data_NU-100SP

_audit_creation_method RASPA-1.0
_audit_creation_date 2021-5-18
_audit_author_name 'David Dubbeldam'

_cell_length_a    59.872
_cell_length_b    59.872
_cell_length_c    59.872
_cell_angle_alpha 90
_cell_angle_beta  90
_cell_angle_gamma 90
_cell_volume      214621

_symmetry_cell_setting          triclinic
_symmetry_space_group_name_Hall 'P 1'
_symmetry_space_group_name_H-M  'P 1'
_symmetry_Int_Tables_number     1

_symmetry_equiv_pos_as_xyz 'x,y,z'

loop_
_atom_site_label
_atom_site_type_symbol
_atom_site_fract_x
_atom_site_fract_y
_atom_site_fract_z
_atom_site_charge
O        O      0.023170000000     0.080820000000     0.113240000000     0          
O        O      0.023120000000     0.106850000000     0.139850000000     0          
C        C      0.030270000000     0.087700000000     0.131980000000     0          
C        C      0.049620000000     0.077930000000     0.141860000000     0          
C        C      0.057630000000     0.086300000000     0.162200000000     0          
H        H      0.051600000000     0.099200000000     0.168500000000     0          
C        C      0.092500000000     0.119400000000     0.239000000000     0          
H        H      0.081600000000     0.127000000000     0.231100000000     0          
C        C      0.100800000000     0.127800000000     0.260000000000     0          
H        H      0.094700000000     0.140700000000     0.266100000000     0          
O        O      0.023170000000     0.580820000000     0.613240000000     0          
O        O      0.023120000000     0.606850000000     0.639850000000     0          
C        C      0.030270000000     0.587700000000     0.631980000000     0          
C        C      0.049620000000     0.577930000000     0.641860000000     0          
C        C      0.057630000000     0.586300000000     0.662200000000     0          
H        H      0.051600000000     0.599200000000     0.668500000000     0          
C        C      0.092500000000     0.619400000000     0.739000000000     0          
H        H      0.081600000000     0.627000000000     0.731100000000     0          
C        C      0.100800000000     0.627800000000     0.760000000000     0          
H        H      0.094700000000     0.640700000000     0.766100000000     0          
O        O      0.523170000000     0.080820000000     0.613240000000     0          
O        O      0.523120000000     0.106850000000     0.639850000000     0          
C        C      0.530270000000     0.087700000000     0.631980000000     0          
C        C      0.549620000000     0.077930000000     0.641860000000     0          
C        C      0.557630000000     0.086300000000     0.662200000000     0          
H        H      0.551600000000     0.099200000000     0.668500000000     0          
C        C      0.592500000000     0.119400000000     0.739000000000     0          
H        H      0.581600000000     0.127000000000     0.731100000000     0          
C        C      0.600800000000     0.127800000000     0.760000000000     0          
H        H      0.594700000000     0.140700000000     0.766100000000     0          
O        O      0.523170000000     0.580820000000     0.113240000000     0          
O        O      0.523120000000     0.606850000000     0.139850000000     0          
C        C      0.530270000000     0.587700000000     0.131980000000     0          
C        C      0.549620000000     0.577930000000     0.141860000000     0          
C        C      0.557630000000     0.586300000000     0.162200000000     0          
H        H      0.551600000000     0.599200000000     0.168500000000     0          
C        C      0.592500000000     0.619400000000     0.239000000000     0          
H        H      0.581600000000     0.627000000000     0.231100000000     0          
C        C      0.600800000000     0.627800000000     0.260000000000     0          
H        H      0.594700000000     0.640700000000     0.266100000000     0          
O        O      0.976830000000     0.919180000000     0.113240000000     0          
O        O      0.976880000000     0.893150000000     0.139850000000     0          
C        C      0.969730000000     0.912300000000     0.131980000000     0          
C        C      0.950380000000     0.922070000000     0.141860000000     0          
C        C      0.942370000000     0.913700000000     0.162200000000     0          
H        H      0.948400000000     0.900800000000     0.168500000000     0          
C        C      0.907500000000     0.880600000000     0.239000000000     0          
H        H      0.918400000000     0.873000000000     0.231100000000     0          
C        C      0.899200000000     0.872200000000     0.260000000000     0          
H        H      0.905300000000     0.859300000000     0.266100000000     0          
O        O      0.976830000000     0.419180000000     0.613240000000     0          
O        O      0.976880000000     0.393150000000     0.639850000000     0          
C        C      0.969730000000     0.412300000000     0.631980000000     0          
C        C      0.950380000000     0.422070000000     0.641860000000     0          
C        C      0.942370000000     0.413700000000     0.662200000000     0          
H        H      0.948400000000     0.400800000000     0.668500000000     0          
C        C      0.907500000000     0.380600000000     0.739000000000     0          
H        H      0.918400000000     0.373000000000     0.731100000000     0          
C        C      0.899200000000     0.372200000000     0.760000000000     0          
H        H      0.905300000000     0.359300000000     0.766100000000     0          
O        O      0.476830000000     0.919180000000     0.613240000000     0          
O        O      0.476880000000     0.893150000000     0.639850000000     0          
C        C      0.469730000000     0.912300000000     0.631980000000     0          
C        C      0.450380000000     0.922070000000     0.641860000000     0          
C        C      0.442370000000     0.913700000000     0.662200000000     0          
H        H      0.448400000000     0.900800000000     0.668500000000     0          
C        C      0.407500000000     0.880600000000     0.739000000000     0          
H        H      0.418400000000     0.873000000000     0.731100000000     0          
C        C      0.399200000000     0.872200000000     0.760000000000     0          
H        H      0.405300000000     0.859300000000     0.766100000000     0          
O        O      0.476830000000     0.419180000000     0.113240000000     0          
O        O      0.476880000000     0.393150000000     0.139850000000     0          
C        C      0.469730000000     0.412300000000     0.131980000000     0          
C        C      0.450380000000     0.422070000000     0.141860000000     0          
C        C      0.442370000000     0.413700000000     0.162200000000     0          
H        H      0.448400000000     0.400800000000     0.168500000000     0          
C        C      0.407500000000     0.380600000000     0.239000000000     0          
H        H      0.418400000000     0.373000000000     0.231100000000     0          
C        C      0.399200000000     0.372200000000     0.260000000000     0          
H        H      0.405300000000     0.359300000000     0.266100000000     0          
O        O      0.976830000000     0.080820000000     0.886760000000     0          
O        O      0.976880000000     0.106850000000     0.860150000000     0          
C        C      0.969730000000     0.087700000000     0.868020000000     0          
C        C      0.950380000000     0.077930000000     0.858140000000     0          
C        C      0.942370000000     0.086300000000     0.837800000000     0          
H        H      0.948400000000     0.099200000000     0.831500000000     0          
C        C      0.907500000000     0.119400000000     0.761000000000     0          
H        H      0.918400000000     0.127000000000     0.768900000000     0          
C        C      0.899200000000     0.127800000000     0.740000000000     0          
H        H      0.905300000000     0.140700000000     0.733900000000     0          
O        O      0.976830000000     0.580820000000     0.386760000000     0          
O        O      0.976880000000     0.606850000000     0.360150000000     0          
C        C      0.969730000000     0.587700000000     0.368020000000     0          
C        C      0.950380000000     0.577930000000     0.358140000000     0          
C        C      0.942370000000     0.586300000000     0.337800000000     0          
H        H      0.948400000000     0.599200000000     0.331500000000     0          
C        C      0.907500000000     0.619400000000     0.261000000000     0          
H        H      0.918400000000     0.627000000000     0.268900000000     0          
C        C      0.899200000000     0.627800000000     0.240000000000     0          
H        H      0.905300000000     0.640700000000     0.233900000000     0          
O        O      0.476830000000     0.080820000000     0.386760000000     0          
O        O      0.476880000000     0.106850000000     0.360150000000     0          
C        C      0.469730000000     0.087700000000     0.368020000000     0          
C        C      0.450380000000     0.077930000000     0.358140000000     0          
C        C      0.442370000000     0.086300000000     0.337800000000     0          
H        H      0.448400000000     0.099200000000     0.331500000000     0          
C        C      0.407500000000     0.119400000000     0.261000000000     0          
H        H      0.418400000000     0.127000000000     0.268900000000     0          
C        C      0.399200000000     0.127800000000     0.240000000000     0          
H        H      0.405300000000     0.140700000000     0.233900000000     0          
O        O      0.476830000000     0.580820000000     0.886760000000     0          
O        O      0.476880000000     0.606850000000     0.860150000000     0          
C        C      0.469730000000     0.587700000000     0.868020000000     0          
C        C      0.450380000000     0.577930000000     0.858140000000     0          
C        C      0.442370000000     0.586300000000     0.837800000000     0          
H        H      0.448400000000     0.599200000000     0.831500000000     0          
C        C      0.407500000000     0.619400000000     0.761000000000     0          
H        H      0.418400000000     0.627000000000     0.768900000000     0          
C        C      0.399200000000     0.627800000000     0.740000000000     0          
H        H      0.405300000000     0.640700000000     0.733900000000     0          
O        O      0.023170000000     0.919180000000     0.886760000000     0          
O        O      0.023120000000     0.893150000000     0.860150000000     0          
C        C      0.030270000000     0.912300000000     0.868020000000     0          
C        C      0.049620000000     0.922070000000     0.858140000000     0          
C        C      0.057630000000     0.913700000000     0.837800000000     0          
H        H      0.051600000000     0.900800000000     0.831500000000     0          
C        C      0.092500000000     0.880600000000     0.761000000000     0          
H        H      0.081600000000     0.873000000000     0.768900000000     0          
C        C      0.100800000000     0.872200000000     0.740000000000     0          
H        H      0.094700000000     0.859300000000     0.733900000000     0          
O        O      0.023170000000     0.419180000000     0.386760000000     0          
O        O      0.023120000000     0.393150000000     0.360150000000     0          
C        C      0.030270000000     0.412300000000     0.368020000000     0          
C        C      0.049620000000     0.422070000000     0.358140000000     0          
C        C      0.057630000000     0.413700000000     0.337800000000     0          
H        H      0.051600000000     0.400800000000     0.331500000000     0          
C        C      0.092500000000     0.380600000000     0.261000000000     0          
H        H      0.081600000000     0.373000000000     0.268900000000     0          
C        C      0.100800000000     0.372200000000     0.240000000000     0          
H        H      0.094700000000     0.359300000000     0.233900000000     0          
O        O      0.523170000000     0.919180000000     0.386760000000     0          
O        O      0.523120000000     0.893150000000     0.360150000000     0          
C        C      0.530270000000     0.912300000000     0.368020000000     0          
C        C      0.549620000000     0.922070000000     0.358140000000     0          
C        C      0.557630000000     0.913700000000     0.337800000000     0          
H        H      0.551600000000     0.900800000000     0.331500000000     0          
C        C      0.592500000000     0.880600000000     0.261000000000     0          
H        H      0.581600000000     0.873000000000     0.268900000000     0          
C        C      0.600800000000     0.872200000000     0.240000000000     0          
H        H      0.594700000000     0.859300000000     0.233900000000     0          
O        O      0.523170000000     0.419180000000     0.886760000000     0          
O        O      0.523120000000     0.393150000000     0.860150000000     0          
C        C      0.530270000000     0.412300000000     0.868020000000     0          
C        C      0.549620000000     0.422070000000     0.858140000000     0          
C        C      0.557630000000     0.413700000000     0.837800000000     0          
H        H      0.551600000000     0.400800000000     0.831500000000     0          
C        C      0.592500000000     0.380600000000     0.761000000000     0          
H        H      0.581600000000     0.373000000000     0.768900000000     0          
C        C      0.600800000000     0.372200000000     0.740000000000     0          
H        H      0.594700000000     0.359300000000     0.733900000000     0          
O        O      0.113240000000     0.023170000000     0.080820000000     0          
O        O      0.139850000000     0.023120000000     0.106850000000     0          
C        C      0.131980000000     0.030270000000     0.087700000000     0          
C        C      0.141860000000     0.049620000000     0.077930000000     0          
C        C      0.162200000000     0.057630000000     0.086300000000     0          
H        H      0.168500000000     0.051600000000     0.099200000000     0          
C        C      0.239000000000     0.092500000000     0.119400000000     0          
H        H      0.231100000000     0.081600000000     0.127000000000     0          
C        C      0.260000000000     0.100800000000     0.127800000000     0          
H        H      0.266100000000     0.094700000000     0.140700000000     0          
O        O      0.113240000000     0.523170000000     0.580820000000     0          
O        O      0.139850000000     0.523120000000     0.606850000000     0          
C        C      0.131980000000     0.530270000000     0.587700000000     0          
C        C      0.141860000000     0.549620000000     0.577930000000     0          
C        C      0.162200000000     0.557630000000     0.586300000000     0          
H        H      0.168500000000     0.551600000000     0.599200000000     0          
C        C      0.239000000000     0.592500000000     0.619400000000     0          
H        H      0.231100000000     0.581600000000     0.627000000000     0          
C        C      0.260000000000     0.600800000000     0.627800000000     0          
H        H      0.266100000000     0.594700000000     0.640700000000     0          
O        O      0.613240000000     0.023170000000     0.580820000000     0          
O        O      0.639850000000     0.023120000000     0.606850000000     0          
C        C      0.631980000000     0.030270000000     0.587700000000     0          
C        C      0.641860000000     0.049620000000     0.577930000000     0          
C        C      0.662200000000     0.057630000000     0.586300000000     0          
H        H      0.668500000000     0.051600000000     0.599200000000     0          
C        C      0.739000000000     0.092500000000     0.619400000000     0          
H        H      0.731100000000     0.081600000000     0.627000000000     0          
C        C      0.760000000000     0.100800000000     0.627800000000     0          
H        H      0.766100000000     0.094700000000     0.640700000000     0          
O        O      0.613240000000     0.523170000000     0.080820000000     0          
O        O      0.639850000000     0.523120000000     0.106850000000     0          
C        C      0.631980000000     0.530270000000     0.087700000000     0          
C        C      0.641860000000     0.549620000000     0.077930000000     0          
C        C      0.662200000000     0.557630000000     0.086300000000     0          
H        H      0.668500000000     0.551600000000     0.099200000000     0          
C        C      0.739000000000     0.592500000000     0.119400000000     0          
H        H      0.731100000000     0.581600000000     0.127000000000     0          
C        C      0.760000000000     0.600800000000     0.127800000000     0          
H        H      0.766100000000     0.594700000000     0.140700000000     0          
O        O      0.113240000000     0.976830000000     0.919180000000     0          
O        O      0.139850000000     0.976880000000     0.893150000000     0          
C        C      0.131980000000     0.969730000000     0.912300000000     0          
C        C      0.141860000000     0.950380000000     0.922070000000     0          
C        C      0.162200000000     0.942370000000     0.913700000000     0          
H        H      0.168500000000     0.948400000000     0.900800000000     0          
C        C      0.239000000000     0.907500000000     0.880600000000     0          
H        H      0.231100000000     0.918400000000     0.873000000000     0          
C        C      0.260000000000     0.899200000000     0.872200000000     0          
H        H      0.266100000000     0.905300000000     0.859300000000     0          
O        O      0.113240000000     0.476830000000     0.419180000000     0          
O        O      0.139850000000     0.476880000000     0.393150000000     0          
C        C      0.131980000000     0.469730000000     0.412300000000     0          
C        C      0.141860000000     0.450380000000     0.422070000000     0          
C        C      0.162200000000     0.442370000000     0.413700000000     0          
H        H      0.168500000000     0.448400000000     0.400800000000     0          
C        C      0.239000000000     0.407500000000     0.380600000000     0          
H        H      0.231100000000     0.418400000000     0.373000000000     0          
C        C      0.260000000000     0.399200000000     0.372200000000     0          
H        H      0.266100000000     0.405300000000     0.359300000000     0          
O        O      0.613240000000     0.976830000000     0.419180000000     0          
O        O      0.639850000000     0.976880000000     0.393150000000     0          
C        C      0.631980000000     0.969730000000     0.412300000000     0          
C        C      0.641860000000     0.950380000000     0.422070000000     0          
C        C      0.662200000000     0.942370000000     0.413700000000     0          
H        H      0.668500000000     0.948400000000     0.400800000000     0          
C        C      0.739000000000     0.907500000000     0.380600000000     0          
H        H      0.731100000000     0.918400000000     0.373000000000     0          
C        C      0.760000000000     0.899200000000     0.372200000000     0          
H        H      0.766100000000     0.905300000000     0.359300000000     0          
O        O      0.613240000000     0.476830000000     0.919180000000     0          
O        O      0.639850000000     0.476880000000     0.893150000000     0          
C        C      0.631980000000     0.469730000000     0.912300000000     0          
C        C      0.641860000000     0.450380000000     0.922070000000     0          
C        C      0.662200000000     0.442370000000     0.913700000000     0          
H        H      0.668500000000     0.448400000000     0.900800000000     0          
C        C      0.739000000000     0.407500000000     0.880600000000     0          
H        H      0.731100000000     0.418400000000     0.873000000000     0          
C        C      0.760000000000     0.399200000000     0.872200000000     0          
H        H      0.766100000000     0.405300000000     0.859300000000     0          
O        O      0.886760000000     0.976830000000     0.080820000000     0          
O        O      0.860150000000     0.976880000000     0.106850000000     0          
C        C      0.868020000000     0.969730000000     0.087700000000     0          
C        C      0.858140000000     0.950380000000     0.077930000000     0          
C        C      0.837800000000     0.942370000000     0.086300000000     0          
H        H      0.831500000000     0.948400000000     0.099200000000     0          
C        C      0.761000000000     0.907500000000     0.119400000000     0          
H        H      0.768900000000     0.918400000000     0.127000000000     0          
C        C      0.740000000000     0.899200000000     0.127800000000     0          
H        H      0.733900000000     0.905300000000     0.140700000000     0          
O        O      0.886760000000     0.476830000000     0.580820000000     0          
O        O      0.860150000000     0.476880000000     0.606850000000     0          
C        C      0.868020000000     0.469730000000     0.587700000000     0          
C        C      0.858140000000     0.450380000000     0.577930000000     0          
C        C      0.837800000000     0.442370000000     0.586300000000     0          
H        H      0.831500000000     0.448400000000     0.599200000000     0          
C        C      0.761000000000     0.407500000000     0.619400000000     0          
H        H      0.768900000000     0.418400000000     0.627000000000     0          
C        C      0.740000000000     0.399200000000     0.627800000000     0          
H        H      0.733900000000     0.405300000000     0.640700000000     0          
O        O      0.386760000000     0.976830000000     0.580820000000     0          
O        O      0.360150000000     0.976880000000     0.606850000000     0          
C        C      0.368020000000     0.969730000000     0.587700000000     0          
C        C      0.358140000000     0.950380000000     0.577930000000     0          
C        C      0.337800000000     0.942370000000     0.586300000000     0          
H        H      0.331500000000     0.948400000000     0.599200000000     0          
C        C      0.261000000000     0.907500000000     0.619400000000     0          
H        H      0.268900000000     0.918400000000     0.627000000000     0          
C        C      0.240000000000     0.899200000000     0.627800000000     0          
H        H      0.233900000000     0.905300000000     0.640700000000     0          
O        O      0.386760000000     0.476830000000     0.080820000000     0          
O        O      0.360150000000     0.476880000000     0.106850000000     0          
C        C      0.368020000000     0.469730000000     0.087700000000     0          
C        C      0.358140000000     0.450380000000     0.077930000000     0          
C        C      0.337800000000     0.442370000000     0.086300000000     0          
H        H      0.331500000000     0.448400000000     0.099200000000     0          
C        C      0.261000000000     0.407500000000     0.119400000000     0          
H        H      0.268900000000     0.418400000000     0.127000000000     0          
C        C      0.240000000000     0.399200000000     0.127800000000     0          
H        H      0.233900000000     0.405300000000     0.140700000000     0          
O        O      0.886760000000     0.023170000000     0.919180000000     0          
O        O      0.860150000000     0.023120000000     0.893150000000     0          
C        C      0.868020000000     0.030270000000     0.912300000000     0          
C        C      0.858140000000     0.049620000000     0.922070000000     0          
C        C      0.837800000000     0.057630000000     0.913700000000     0          
H        H      0.831500000000     0.051600000000     0.900800000000     0          
C        C      0.761000000000     0.092500000000     0.880600000000     0          
H        H      0.768900000000     0.081600000000     0.873000000000     0          
C        C      0.740000000000     0.100800000000     0.872200000000     0          
H        H      0.733900000000     0.094700000000     0.859300000000     0          
O        O      0.886760000000     0.523170000000     0.419180000000     0          
O        O      0.860150000000     0.523120000000     0.393150000000     0          
C        C      0.868020000000     0.530270000000     0.412300000000     0          
C        C      0.858140000000     0.549620000000     0.422070000000     0          
C        C      0.837800000000     0.557630000000     0.413700000000     0          
H        H      0.831500000000     0.551600000000     0.400800000000     0          
C        C      0.761000000000     0.592500000000     0.380600000000     0          
H        H      0.768900000000     0.581600000000     0.373000000000     0          
C        C      0.740000000000     0.600800000000     0.372200000000     0          
H        H      0.733900000000     0.594700000000     0.359300000000     0          
O        O      0.386760000000     0.023170000000     0.419180000000     0          
O        O      0.360150000000     0.023120000000     0.393150000000     0          
C        C      0.368020000000     0.030270000000     0.412300000000     0          
C        C      0.358140000000     0.049620000000     0.422070000000     0          
C        C      0.337800000000     0.057630000000     0.413700000000     0          
H        H      0.331500000000     0.051600000000     0.400800000000     0          
C        C      0.261000000000     0.092500000000     0.380600000000     0          
H        H      0.268900000000     0.081600000000     0.373000000000     0          
C        C      0.240000000000     0.100800000000     0.372200000000     0          
H        H      0.233900000000     0.094700000000     0.359300000000     0          
O        O      0.386760000000     0.523170000000     0.919180000000     0          
O        O      0.360150000000     0.523120000000     0.893150000000     0          
C        C      0.368020000000     0.530270000000     0.912300000000     0          
C        C      0.358140000000     0.549620000000     0.922070000000     0          
C        C      0.337800000000     0.557630000000     0.913700000000     0          
H        H      0.331500000000     0.551600000000     0.900800000000     0          
C        C      0.261000000000     0.592500000000     0.880600000000     0          
H        H      0.268900000000     0.581600000000     0.873000000000     0          
C        C      0.240000000000     0.600800000000     0.872200000000     0          
H        H      0.233900000000     0.594700000000     0.859300000000     0          
O        O      0.080820000000     0.113240000000     0.023170000000     0          
O        O      0.106850000000     0.139850000000     0.023120000000     0          
C        C      0.087700000000     0.131980000000     0.030270000000     0          
C        C      0.077930000000     0.141860000000     0.049620000000     0          
C        C      0.086300000000     0.162200000000     0.057630000000     0          
H        H      0.099200000000     0.168500000000     0.051600000000     0          
C        C      0.119400000000     0.239000000000     0.092500000000     0          
H        H      0.127000000000     0.231100000000     0.081600000000     0          
C        C      0.127800000000     0.260000000000     0.100800000000     0          
H        H      0.140700000000     0.266100000000     0.094700000000     0          
O        O      0.080820000000     0.613240000000     0.523170000000     0          
O        O      0.106850000000     0.639850000000     0.523120000000     0          
C        C      0.087700000000     0.631980000000     0.530270000000     0          
C        C      0.077930000000     0.641860000000     0.549620000000     0          
C        C      0.086300000000     0.662200000000     0.557630000000     0          
H        H      0.099200000000     0.668500000000     0.551600000000     0          
C        C      0.119400000000     0.739000000000     0.592500000000     0          
H        H      0.127000000000     0.731100000000     0.581600000000     0          
C        C      0.127800000000     0.760000000000     0.600800000000     0          
H        H      0.140700000000     0.766100000000     0.594700000000     0          
O        O      0.580820000000     0.113240000000     0.523170000000     0          
O        O      0.606850000000     0.139850000000     0.523120000000     0          
C        C      0.587700000000     0.131980000000     0.530270000000     0          
C        C      0.577930000000     0.141860000000     0.549620000000     0          
C        C      0.586300000000     0.162200000000     0.557630000000     0          
H        H      0.599200000000     0.168500000000     0.551600000000     0          
C        C      0.619400000000     0.239000000000     0.592500000000     0          
H        H      0.627000000000     0.231100000000     0.581600000000     0          
C        C      0.627800000000     0.260000000000     0.600800000000     0          
H        H      0.640700000000     0.266100000000     0.594700000000     0          
O        O      0.580820000000     0.613240000000     0.023170000000     0          
O        O      0.606850000000     0.639850000000     0.023120000000     0          
C        C      0.587700000000     0.631980000000     0.030270000000     0          
C        C      0.577930000000     0.641860000000     0.049620000000     0          
C        C      0.586300000000     0.662200000000     0.057630000000     0          
H        H      0.599200000000     0.668500000000     0.051600000000     0          
C        C      0.619400000000     0.739000000000     0.092500000000     0          
H        H      0.627000000000     0.731100000000     0.081600000000     0          
C        C      0.627800000000     0.760000000000     0.100800000000     0          
H        H      0.640700000000     0.766100000000     0.094700000000     0          
O        O      0.919180000000     0.113240000000     0.976830000000     0          
O        O      0.893150000000     0.139850000000     0.976880000000     0          
C        C      0.912300000000     0.131980000000     0.969730000000     0          
C        C      0.922070000000     0.141860000000     0.950380000000     0          
C        C      0.913700000000     0.162200000000     0.942370000000     0          
H        H      0.900800000000     0.168500000000     0.948400000000     0          
C        C      0.880600000000     0.239000000000     0.907500000000     0          
H        H      0.873000000000     0.231100000000     0.918400000000     0          
C        C      0.872200000000     0.260000000000     0.899200000000     0          
H        H      0.859300000000     0.266100000000     0.905300000000     0          
O        O      0.919180000000     0.613240000000     0.476830000000     0          
O        O      0.893150000000     0.639850000000     0.476880000000     0          
C        C      0.912300000000     0.631980000000     0.469730000000     0          
C        C      0.922070000000     0.641860000000     0.450380000000     0          
C        C      0.913700000000     0.662200000000     0.442370000000     0          
H        H      0.900800000000     0.668500000000     0.448400000000     0          
C        C      0.880600000000     0.739000000000     0.407500000000     0          
H        H      0.873000000000     0.731100000000     0.418400000000     0          
C        C      0.872200000000     0.760000000000     0.399200000000     0          
H        H      0.859300000000     0.766100000000     0.405300000000     0          
O        O      0.419180000000     0.113240000000     0.476830000000     0          
O        O      0.393150000000     0.139850000000     0.476880000000     0          
C        C      0.412300000000     0.131980000000     0.469730000000     0          
C        C      0.422070000000     0.141860000000     0.450380000000     0          
C        C      0.413700000000     0.162200000000     0.442370000000     0          
H        H      0.400800000000     0.168500000000     0.448400000000     0          
C        C      0.380600000000     0.239000000000     0.407500000000     0          
H        H      0.373000000000     0.231100000000     0.418400000000     0          
C        C      0.372200000000     0.260000000000     0.399200000000     0          
H        H      0.359300000000     0.266100000000     0.405300000000     0          
O        O      0.419180000000     0.613240000000     0.976830000000     0          
O        O      0.393150000000     0.639850000000     0.976880000000     0          
C        C      0.412300000000     0.631980000000     0.969730000000     0          
C        C      0.422070000000     0.641860000000     0.950380000000     0          
C        C      0.413700000000     0.662200000000     0.942370000000     0          
H        H      0.400800000000     0.668500000000     0.948400000000     0          
C        C      0.380600000000     0.739000000000     0.907500000000     0          
H        H      0.373000000000     0.731100000000     0.918400000000     0          
C        C      0.372200000000     0.760000000000     0.899200000000     0          
H        H      0.359300000000     0.766100000000     0.905300000000     0          
O        O      0.080820000000     0.886760000000     0.976830000000     0          
O        O      0.106850000000     0.860150000000     0.976880000000     0          
C        C      0.087700000000     0.868020000000     0.969730000000     0          
C        C      0.077930000000     0.858140000000     0.950380000000     0          
C        C      0.086300000000     0.837800000000     0.942370000000     0          
H        H      0.099200000000     0.831500000000     0.948400000000     0          
C        C      0.119400000000     0.761000000000     0.907500000000     0          
H        H      0.127000000000     0.768900000000     0.918400000000     0          
C        C      0.127800000000     0.740000000000     0.899200000000     0          
H        H      0.140700000000     0.733900000000     0.905300000000     0          
O        O      0.080820000000     0.386760000000     0.476830000000     0          
O        O      0.106850000000     0.360150000000     0.476880000000     0          
C        C      0.087700000000     0.368020000000     0.469730000000     0          
C        C      0.077930000000     0.358140000000     0.450380000000     0          
C        C      0.086300000000     0.337800000000     0.442370000000     0          
H        H      0.099200000000     0.331500000000     0.448400000000     0          
C        C      0.119400000000     0.261000000000     0.407500000000     0          
H        H      0.127000000000     0.268900000000     0.418400000000     0          
C        C      0.127800000000     0.240000000000     0.399200000000     0          
H        H      0.140700000000     0.233900000000     0.405300000000     0          
O        O      0.580820000000     0.886760000000     0.476830000000     0          
O        O      0.606850000000     0.860150000000     0.476880000000     0          
C        C      0.587700000000     0.868020000000     0.469730000000     0          
C        C      0.577930000000     0.858140000000     0.450380000000     0          
C        C      0.586300000000     0.837800000000     0.442370000000     0          
H        H      0.599200000000     0.831500000000     0.448400000000     0          
C        C      0.619400000000     0.761000000000     0.407500000000     0          
H        H      0.627000000000     0.768900000000     0.418400000000     0          
C        C      0.627800000000     0.740000000000     0.399200000000     0          
H        H      0.640700000000     0.733900000000     0.405300000000     0          
O        O      0.580820000000     0.386760000000     0.976830000000     0          
O        O      0.606850000000     0.360150000000     0.976880000000     0          
C        C      0.587700000000     0.368020000000     0.969730000000     0          
C        C      0.577930000000     0.358140000000     0.950380000000     0          
C        C      0.586300000000     0.337800000000     0.942370000000     0          
H        H      0.599200000000     0.331500000000     0.948400000000     0          
C        C      0.619400000000     0.261000000000     0.907500000000     0          
H        H      0.627000000000     0.268900000000     0.918400000000     0          
C        C      0.627800000000     0.240000000000     0.899200000000     0          
H        H      0.640700000000     0.233900000000     0.905300000000     0          
O        O      0.919180000000     0.886760000000     0.023170000000     0          
O        O      0.893150000000     0.860150000000     0.023120000000     0          
C        C      0.912300000000     0.868020000000     0.030270000000     0          
C        C      0.922070000000     0.858140000000     0.049620000000     0          
C        C      0.913700000000     0.837800000000     0.057630000000     0          
H        H      0.900800000000     0.831500000000     0.051600000000     0          
C        C      0.880600000000     0.761000000000     0.092500000000     0          
H        H      0.873000000000     0.768900000000     0.081600000000     0          
C        C      0.872200000000     0.740000000000     0.100800000000     0          
H        H      0.859300000000     0.733900000000     0.094700000000     0          
O        O      0.919180000000     0.386760000000     0.523170000000     0          
O        O      0.893150000000     0.360150000000     0.523120000000     0          
C        C      0.912300000000     0.368020000000     0.530270000000     0          
C        C      0.922070000000     0.358140000000     0.549620000000     0          
C        C      0.913700000000     0.337800000000     0.557630000000     0          
H        H      0.900800000000     0.331500000000     0.551600000000     0          
C        C      0.880600000000     0.261000000000     0.592500000000     0          
H        H      0.873000000000     0.268900000000     0.581600000000     0          
C        C      0.872200000000     0.240000000000     0.600800000000     0          
H        H      0.859300000000     0.233900000000     0.594700000000     0          
O        O      0.419180000000     0.886760000000     0.523170000000     0          
O        O      0.393150000000     0.860150000000     0.523120000000     0          
C        C      0.412300000000     0.868020000000     0.530270000000     0          
C        C      0.422070000000     0.858140000000     0.549620000000     0          
C        C      0.413700000000     0.837800000000     0.557630000000     0          
H        H      0.400800000000     0.831500000000     0.551600000000     0          
C        C      0.380600000000     0.761000000000     0.592500000000     0          
H        H      0.373000000000     0.768900000000     0.581600000000     0          
C        C      0.372200000000     0.740000000000     0.600800000000     0          
H        H      0.359300000000     0.733900000000     0.594700000000     0          
O        O      0.419180000000     0.386760000000     0.023170000000     0          
O        O      0.393150000000     0.360150000000     0.023120000000     0          
C        C      0.412300000000     0.368020000000     0.030270000000     0          
C        C      0.422070000000     0.358140000000     0.049620000000     0          
C        C      0.413700000000     0.337800000000     0.057630000000     0          
H        H      0.400800000000     0.331500000000     0.051600000000     0          
C        C      0.380600000000     0.261000000000     0.092500000000     0          
H        H      0.373000000000     0.268900000000     0.081600000000     0          
C        C      0.372200000000     0.240000000000     0.100800000000     0          
H        H      0.359300000000     0.233900000000     0.094700000000     0          
O        O      0.080820000000     0.023170000000     0.886760000000     0          
O        O      0.106850000000     0.023120000000     0.860150000000     0          
C        C      0.087700000000     0.030270000000     0.868020000000     0          
C        C      0.077930000000     0.049620000000     0.858140000000     0          
C        C      0.086300000000     0.057630000000     0.837800000000     0          
H        H      0.099200000000     0.051600000000     0.831500000000     0          
C        C      0.119400000000     0.092500000000     0.761000000000     0          
H        H      0.127000000000     0.081600000000     0.768900000000     0          
C        C      0.127800000000     0.100800000000     0.740000000000     0          
H        H      0.140700000000     0.094700000000     0.733900000000     0          
O        O      0.080820000000     0.523170000000     0.386760000000     0          
O        O      0.106850000000     0.523120000000     0.360150000000     0          
C        C      0.087700000000     0.530270000000     0.368020000000     0          
C        C      0.077930000000     0.549620000000     0.358140000000     0          
C        C      0.086300000000     0.557630000000     0.337800000000     0          
H        H      0.099200000000     0.551600000000     0.331500000000     0          
C        C      0.119400000000     0.592500000000     0.261000000000     0          
H        H      0.127000000000     0.581600000000     0.268900000000     0          
C        C      0.127800000000     0.600800000000     0.240000000000     0          
H        H      0.140700000000     0.594700000000     0.233900000000     0          
O        O      0.580820000000     0.023170000000     0.386760000000     0          
O        O      0.606850000000     0.023120000000     0.360150000000     0          
C        C      0.587700000000     0.030270000000     0.368020000000     0          
C        C      0.577930000000     0.049620000000     0.358140000000     0          
C        C      0.586300000000     0.057630000000     0.337800000000     0          
H        H      0.599200000000     0.051600000000     0.331500000000     0          
C        C      0.619400000000     0.092500000000     0.261000000000     0          
H        H      0.627000000000     0.081600000000     0.268900000000     0          
C        C      0.627800000000     0.100800000000     0.240000000000     0          
H        H      0.640700000000     0.094700000000     0.233900000000     0          
O        O      0.580820000000     0.523170000000     0.886760000000     0          
O        O      0.606850000000     0.523120000000     0.860150000000     0          
C        C      0.587700000000     0.530270000000     0.868020000000     0          
C        C      0.577930000000     0.549620000000     0.858140000000     0          
C        C      0.586300000000     0.557630000000     0.837800000000     0          
H        H      0.599200000000     0.551600000000     0.831500000000     0          
C        C      0.619400000000     0.592500000000     0.761000000000     0          
H        H      0.627000000000     0.581600000000     0.768900000000     0          
C        C      0.627800000000     0.600800000000     0.740000000000     0          
H        H      0.640700000000     0.594700000000     0.733900000000     0          
O        O      0.919180000000     0.976830000000     0.886760000000     0          
O        O      0.893150000000     0.976880000000     0.860150000000     0          
C        C      0.912300000000     0.969730000000     0.868020000000     0          
C        C      0.922070000000     0.950380000000     0.858140000000     0          
C        C      0.913700000000     0.942370000000     0.837800000000     0          
H        H      0.900800000000     0.948400000000     0.831500000000     0          
C        C      0.880600000000     0.907500000000     0.761000000000     0          
H        H      0.873000000000     0.918400000000     0.768900000000     0          
C        C      0.872200000000     0.899200000000     0.740000000000     0          
H        H      0.859300000000     0.905300000000     0.733900000000     0          
O        O      0.919180000000     0.476830000000     0.386760000000     0          
O        O      0.893150000000     0.476880000000     0.360150000000     0          
C        C      0.912300000000     0.469730000000     0.368020000000     0          
C        C      0.922070000000     0.450380000000     0.358140000000     0          
C        C      0.913700000000     0.442370000000     0.337800000000     0          
H        H      0.900800000000     0.448400000000     0.331500000000     0          
C        C      0.880600000000     0.407500000000     0.261000000000     0          
H        H      0.873000000000     0.418400000000     0.268900000000     0          
C        C      0.872200000000     0.399200000000     0.240000000000     0          
H        H      0.859300000000     0.405300000000     0.233900000000     0          
O        O      0.419180000000     0.976830000000     0.386760000000     0          
O        O      0.393150000000     0.976880000000     0.360150000000     0          
C        C      0.412300000000     0.969730000000     0.368020000000     0          
C        C      0.422070000000     0.950380000000     0.358140000000     0          
C        C      0.413700000000     0.942370000000     0.337800000000     0          
H        H      0.400800000000     0.948400000000     0.331500000000     0          
C        C      0.380600000000     0.907500000000     0.261000000000     0          
H        H      0.373000000000     0.918400000000     0.268900000000     0          
C        C      0.372200000000     0.899200000000     0.240000000000     0          
H        H      0.359300000000     0.905300000000     0.233900000000     0          
O        O      0.419180000000     0.476830000000     0.886760000000     0          
O        O      0.393150000000     0.476880000000     0.860150000000     0          
C        C      0.412300000000     0.469730000000     0.868020000000     0          
C        C      0.422070000000     0.450380000000     0.858140000000     0          
C        C      0.413700000000     0.442370000000     0.837800000000     0          
H        H      0.400800000000     0.448400000000     0.831500000000     0          
C        C      0.380600000000     0.407500000000     0.761000000000     0          
H        H      0.373000000000     0.418400000000     0.768900000000     0          
C        C      0.372200000000     0.399200000000     0.740000000000     0          
H        H      0.359300000000     0.405300000000     0.733900000000     0          
O        O      0.080820000000     0.976830000000     0.113240000000     0          
O        O      0.106850000000     0.976880000000     0.139850000000     0          
C        C      0.087700000000     0.969730000000     0.131980000000     0          
C        C      0.077930000000     0.950380000000     0.141860000000     0          
C        C      0.086300000000     0.942370000000     0.162200000000     0          
H        H      0.099200000000     0.948400000000     0.168500000000     0          
C        C      0.119400000000     0.907500000000     0.239000000000     0          
H        H      0.127000000000     0.918400000000     0.231100000000     0          
C        C      0.127800000000     0.899200000000     0.260000000000     0          
H        H      0.140700000000     0.905300000000     0.266100000000     0          
O        O      0.080820000000     0.476830000000     0.613240000000     0          
O        O      0.106850000000     0.476880000000     0.639850000000     0          
C        C      0.087700000000     0.469730000000     0.631980000000     0          
C        C      0.077930000000     0.450380000000     0.641860000000     0          
C        C      0.086300000000     0.442370000000     0.662200000000     0          
H        H      0.099200000000     0.448400000000     0.668500000000     0          
C        C      0.119400000000     0.407500000000     0.739000000000     0          
H        H      0.127000000000     0.418400000000     0.731100000000     0          
C        C      0.127800000000     0.399200000000     0.760000000000     0          
H        H      0.140700000000     0.405300000000     0.766100000000     0          
O        O      0.580820000000     0.976830000000     0.613240000000     0          
O        O      0.606850000000     0.976880000000     0.639850000000     0          
C        C      0.587700000000     0.969730000000     0.631980000000     0          
C        C      0.577930000000     0.950380000000     0.641860000000     0          
C        C      0.586300000000     0.942370000000     0.662200000000     0          
H        H      0.599200000000     0.948400000000     0.668500000000     0          
C        C      0.619400000000     0.907500000000     0.739000000000     0          
H        H      0.627000000000     0.918400000000     0.731100000000     0          
C        C      0.627800000000     0.899200000000     0.760000000000     0          
H        H      0.640700000000     0.905300000000     0.766100000000     0          
O        O      0.580820000000     0.476830000000     0.113240000000     0          
O        O      0.606850000000     0.476880000000     0.139850000000     0          
C        C      0.587700000000     0.469730000000     0.131980000000     0          
C        C      0.577930000000     0.450380000000     0.141860000000     0          
C        C      0.586300000000     0.442370000000     0.162200000000     0          
H        H      0.599200000000     0.448400000000     0.168500000000     0          
C        C      0.619400000000     0.407500000000     0.239000000000     0          
H        H      0.627000000000     0.418400000000     0.231100000000     0          
C        C      0.627800000000     0.399200000000     0.260000000000     0          
H        H      0.640700000000     0.405300000000     0.266100000000     0          
O        O      0.919180000000     0.023170000000     0.113240000000     0          
O        O      0.893150000000     0.023120000000     0.139850000000     0          
C        C      0.912300000000     0.030270000000     0.131980000000     0          
C        C      0.922070000000     0.049620000000     0.141860000000     0          
C        C      0.913700000000     0.057630000000     0.162200000000     0          
H        H      0.900800000000     0.051600000000     0.168500000000     0          
C        C      0.880600000000     0.092500000000     0.239000000000     0          
H        H      0.873000000000     0.081600000000     0.231100000000     0          
C        C      0.872200000000     0.100800000000     0.260000000000     0          
H        H      0.859300000000     0.094700000000     0.266100000000     0          
O        O      0.919180000000     0.523170000000     0.613240000000     0          
O        O      0.893150000000     0.523120000000     0.639850000000     0          
C        C      0.912300000000     0.530270000000     0.631980000000     0          
C        C      0.922070000000     0.549620000000     0.641860000000     0          
C        C      0.913700000000     0.557630000000     0.662200000000     0          
H        H      0.900800000000     0.551600000000     0.668500000000     0          
C        C      0.880600000000     0.592500000000     0.739000000000     0          
H        H      0.873000000000     0.581600000000     0.731100000000     0          
C        C      0.872200000000     0.600800000000     0.760000000000     0          
H        H      0.859300000000     0.594700000000     0.766100000000     0          
O        O      0.419180000000     0.023170000000     0.613240000000     0          
O        O      0.393150000000     0.023120000000     0.639850000000     0          
C        C      0.412300000000     0.030270000000     0.631980000000     0          
C        C      0.422070000000     0.049620000000     0.641860000000     0          
C        C      0.413700000000     0.057630000000     0.662200000000     0          
H        H      0.400800000000     0.051600000000     0.668500000000     0          
C        C      0.380600000000     0.092500000000     0.739000000000     0          
H        H      0.373000000000     0.081600000000     0.731100000000     0          
C        C      0.372200000000     0.100800000000     0.760000000000     0          
H        H      0.359300000000     0.094700000000     0.766100000000     0          
O        O      0.419180000000     0.523170000000     0.113240000000     0          
O        O      0.393150000000     0.523120000000     0.139850000000     0          
C        C      0.412300000000     0.530270000000     0.131980000000     0          
C        C      0.422070000000     0.549620000000     0.141860000000     0          
C        C      0.413700000000     0.557630000000     0.162200000000     0          
H        H      0.400800000000     0.551600000000     0.168500000000     0          
C        C      0.380600000000     0.592500000000     0.239000000000     0          
H        H      0.373000000000     0.581600000000     0.231100000000     0          
C        C      0.372200000000     0.600800000000     0.260000000000     0          
H        H      0.359300000000     0.594700000000     0.266100000000     0          
O        O      0.023170000000     0.113240000000     0.919180000000     0          
O        O      0.023120000000     0.139850000000     0.893150000000     0          
C        C      0.030270000000     0.131980000000     0.912300000000     0          
C        C      0.049620000000     0.141860000000     0.922070000000     0          
C        C      0.057630000000     0.162200000000     0.913700000000     0          
H        H      0.051600000000     0.168500000000     0.900800000000     0          
C        C      0.092500000000     0.239000000000     0.880600000000     0          
H        H      0.081600000000     0.231100000000     0.873000000000     0          
C        C      0.100800000000     0.260000000000     0.872200000000     0          
H        H      0.094700000000     0.266100000000     0.859300000000     0          
O        O      0.023170000000     0.613240000000     0.419180000000     0          
O        O      0.023120000000     0.639850000000     0.393150000000     0          
C        C      0.030270000000     0.631980000000     0.412300000000     0          
C        C      0.049620000000     0.641860000000     0.422070000000     0          
C        C      0.057630000000     0.662200000000     0.413700000000     0          
H        H      0.051600000000     0.668500000000     0.400800000000     0          
C        C      0.092500000000     0.739000000000     0.380600000000     0          
H        H      0.081600000000     0.731100000000     0.373000000000     0          
C        C      0.100800000000     0.760000000000     0.372200000000     0          
H        H      0.094700000000     0.766100000000     0.359300000000     0          
O        O      0.523170000000     0.113240000000     0.419180000000     0          
O        O      0.523120000000     0.139850000000     0.393150000000     0          
C        C      0.530270000000     0.131980000000     0.412300000000     0          
C        C      0.549620000000     0.141860000000     0.422070000000     0          
C        C      0.557630000000     0.162200000000     0.413700000000     0          
H        H      0.551600000000     0.168500000000     0.400800000000     0          
C        C      0.592500000000     0.239000000000     0.380600000000     0          
H        H      0.581600000000     0.231100000000     0.373000000000     0          
C        C      0.600800000000     0.260000000000     0.372200000000     0          
H        H      0.594700000000     0.266100000000     0.359300000000     0          
O        O      0.523170000000     0.613240000000     0.919180000000     0          
O        O      0.523120000000     0.639850000000     0.893150000000     0          
C        C      0.530270000000     0.631980000000     0.912300000000     0          
C        C      0.549620000000     0.641860000000     0.922070000000     0          
C        C      0.557630000000     0.662200000000     0.913700000000     0          
H        H      0.551600000000     0.668500000000     0.900800000000     0          
C        C      0.592500000000     0.739000000000     0.880600000000     0          
H        H      0.581600000000     0.731100000000     0.873000000000     0          
C        C      0.600800000000     0.760000000000     0.872200000000     0          
H        H      0.594700000000     0.766100000000     0.859300000000     0          
O        O      0.976830000000     0.113240000000     0.080820000000     0          
O        O      0.976880000000     0.139850000000     0.106850000000     0          
C        C      0.969730000000     0.131980000000     0.087700000000     0          
C        C      0.950380000000     0.141860000000     0.077930000000     0          
C        C      0.942370000000     0.162200000000     0.086300000000     0          
H        H      0.948400000000     0.168500000000     0.099200000000     0          
C        C      0.907500000000     0.239000000000     0.119400000000     0          
H        H      0.918400000000     0.231100000000     0.127000000000     0          
C        C      0.899200000000     0.260000000000     0.127800000000     0          
H        H      0.905300000000     0.266100000000     0.140700000000     0          
O        O      0.976830000000     0.613240000000     0.580820000000     0          
O        O      0.976880000000     0.639850000000     0.606850000000     0          
C        C      0.969730000000     0.631980000000     0.587700000000     0          
C        C      0.950380000000     0.641860000000     0.577930000000     0          
C        C      0.942370000000     0.662200000000     0.586300000000     0          
H        H      0.948400000000     0.668500000000     0.599200000000     0          
C        C      0.907500000000     0.739000000000     0.619400000000     0          
H        H      0.918400000000     0.731100000000     0.627000000000     0          
C        C      0.899200000000     0.760000000000     0.627800000000     0          
H        H      0.905300000000     0.766100000000     0.640700000000     0          
O        O      0.476830000000     0.113240000000     0.580820000000     0          
O        O      0.476880000000     0.139850000000     0.606850000000     0          
C        C      0.469730000000     0.131980000000     0.587700000000     0          
C        C      0.450380000000     0.141860000000     0.577930000000     0          
C        C      0.442370000000     0.162200000000     0.586300000000     0          
H        H      0.448400000000     0.168500000000     0.599200000000     0          
C        C      0.407500000000     0.239000000000     0.619400000000     0          
H        H      0.418400000000     0.231100000000     0.627000000000     0          
C        C      0.399200000000     0.260000000000     0.627800000000     0          
H        H      0.405300000000     0.266100000000     0.640700000000     0          
O        O      0.476830000000     0.613240000000     0.080820000000     0          
O        O      0.476880000000     0.639850000000     0.106850000000     0          
C        C      0.469730000000     0.631980000000     0.087700000000     0          
C        C      0.450380000000     0.641860000000     0.077930000000     0          
C        C      0.442370000000     0.662200000000     0.086300000000     0          
H        H      0.448400000000     0.668500000000     0.099200000000     0          
C        C      0.407500000000     0.739000000000     0.119400000000     0          
H        H      0.418400000000     0.731100000000     0.127000000000     0          
C        C      0.399200000000     0.760000000000     0.127800000000     0          
H        H      0.405300000000     0.766100000000     0.140700000000     0          
O        O      0.976830000000     0.886760000000     0.919180000000     0          
O        O      0.976880000000     0.860150000000     0.893150000000     0          
C        C      0.969730000000     0.868020000000     0.912300000000     0          
C        C      0.950380000000     0.858140000000     0.922070000000     0          
C        C      0.942370000000     0.837800000000     0.913700000000     0          
H        H      0.948400000000     0.831500000000     0.900800000000     0          
C        C      0.907500000000     0.761000000000     0.880600000000     0          
H        H      0.918400000000     0.768900000000     0.873000000000     0          
C        C      0.899200000000     0.740000000000     0.872200000000     0          
H        H      0.905300000000     0.733900000000     0.859300000000     0          
O        O      0.976830000000     0.386760000000     0.419180000000     0          
O        O      0.976880000000     0.360150000000     0.393150000000     0          
C        C      0.969730000000     0.368020000000     0.412300000000     0          
C        C      0.950380000000     0.358140000000     0.422070000000     0          
C        C      0.942370000000     0.337800000000     0.413700000000     0          
H        H      0.948400000000     0.331500000000     0.400800000000     0          
C        C      0.907500000000     0.261000000000     0.380600000000     0          
H        H      0.918400000000     0.268900000000     0.373000000000     0          
C        C      0.899200000000     0.240000000000     0.372200000000     0          
H        H      0.905300000000     0.233900000000     0.359300000000     0          
O        O      0.476830000000     0.886760000000     0.419180000000     0          
O        O      0.476880000000     0.860150000000     0.393150000000     0          
C        C      0.469730000000     0.868020000000     0.412300000000     0          
C        C      0.450380000000     0.858140000000     0.422070000000     0          
C        C      0.442370000000     0.837800000000     0.413700000000     0          
H        H      0.448400000000     0.831500000000     0.400800000000     0          
C        C      0.407500000000     0.761000000000     0.380600000000     0          
H        H      0.418400000000     0.768900000000     0.373000000000     0          
C        C      0.399200000000     0.740000000000     0.372200000000     0          
H        H      0.405300000000     0.733900000000     0.359300000000     0          
O        O      0.476830000000     0.386760000000     0.919180000000     0          
O        O      0.476880000000     0.360150000000     0.893150000000     0          
C        C      0.469730000000     0.368020000000     0.912300000000     0          
C        C      0.450380000000     0.358140000000     0.922070000000     0          
C        C      0.442370000000     0.337800000000     0.913700000000     0          
H        H      0.448400000000     0.331500000000     0.900800000000     0          
C        C      0.407500000000     0.261000000000     0.880600000000     0          
H        H      0.418400000000     0.268900000000     0.873000000000     0          
C        C      0.399200000000     0.240000000000     0.872200000000     0          
H        H      0.405300000000     0.233900000000     0.859300000000     0          
O        O      0.023170000000     0.886760000000     0.080820000000     0          
O        O      0.023120000000     0.860150000000     0.106850000000     0          
C        C      0.030270000000     0.868020000000     0.087700000000     0          
C        C      0.049620000000     0.858140000000     0.077930000000     0          
C        C      0.057630000000     0.837800000000     0.086300000000     0          
H        H      0.051600000000     0.831500000000     0.099200000000     0          
C        C      0.092500000000     0.761000000000     0.119400000000     0          
H        H      0.081600000000     0.768900000000     0.127000000000     0          
C        C      0.100800000000     0.740000000000     0.127800000000     0          
H        H      0.094700000000     0.733900000000     0.140700000000     0          
O        O      0.023170000000     0.386760000000     0.580820000000     0          
O        O      0.023120000000     0.360150000000     0.606850000000     0          
C        C      0.030270000000     0.368020000000     0.587700000000     0          
C        C      0.049620000000     0.358140000000     0.577930000000     0          
C        C      0.057630000000     0.337800000000     0.586300000000     0          
H        H      0.051600000000     0.331500000000     0.599200000000     0          
C        C      0.092500000000     0.261000000000     0.619400000000     0          
H        H      0.081600000000     0.268900000000     0.627000000000     0          
C        C      0.100800000000     0.240000000000     0.627800000000     0          
H        H      0.094700000000     0.233900000000     0.640700000000     0          
O        O      0.523170000000     0.886760000000     0.580820000000     0          
O        O      0.523120000000     0.860150000000     0.606850000000     0          
C        C      0.530270000000     0.868020000000     0.587700000000     0          
C        C      0.549620000000     0.858140000000     0.577930000000     0          
C        C      0.557630000000     0.837800000000     0.586300000000     0          
H        H      0.551600000000     0.831500000000     0.599200000000     0          
C        C      0.592500000000     0.761000000000     0.619400000000     0          
H        H      0.581600000000     0.768900000000     0.627000000000     0          
C        C      0.600800000000     0.740000000000     0.627800000000     0          
H        H      0.594700000000     0.733900000000     0.640700000000     0          
O        O      0.523170000000     0.386760000000     0.080820000000     0          
O        O      0.523120000000     0.360150000000     0.106850000000     0          
C        C      0.530270000000     0.368020000000     0.087700000000     0          
C        C      0.549620000000     0.358140000000     0.077930000000     0          
C        C      0.557630000000     0.337800000000     0.086300000000     0          
H        H      0.551600000000     0.331500000000     0.099200000000     0          
C        C      0.592500000000     0.261000000000     0.119400000000     0          
H        H      0.581600000000     0.268900000000     0.127000000000     0          
C        C      0.600800000000     0.240000000000     0.127800000000     0          
H        H      0.594700000000     0.233900000000     0.140700000000     0          
O        O      0.113240000000     0.080820000000     0.976830000000     0          
O        O      0.139850000000     0.106850000000     0.976880000000     0          
C        C      0.131980000000     0.087700000000     0.969730000000     0          
C        C      0.141860000000     0.077930000000     0.950380000000     0          
C        C      0.162200000000     0.086300000000     0.942370000000     0          
H        H      0.168500000000     0.099200000000     0.948400000000     0          
C        C      0.239000000000     0.119400000000     0.907500000000     0          
H        H      0.231100000000     0.127000000000     0.918400000000     0          
C        C      0.260000000000     0.127800000000     0.899200000000     0          
H        H      0.266100000000     0.140700000000     0.905300000000     0          
O        O      0.113240000000     0.580820000000     0.476830000000     0          
O        O      0.139850000000     0.606850000000     0.476880000000     0          
C        C      0.131980000000     0.587700000000     0.469730000000     0          
C        C      0.141860000000     0.577930000000     0.450380000000     0          
C        C      0.162200000000     0.586300000000     0.442370000000     0          
H        H      0.168500000000     0.599200000000     0.448400000000     0          
C        C      0.239000000000     0.619400000000     0.407500000000     0          
H        H      0.231100000000     0.627000000000     0.418400000000     0          
C        C      0.260000000000     0.627800000000     0.399200000000     0          
H        H      0.266100000000     0.640700000000     0.405300000000     0          
O        O      0.613240000000     0.080820000000     0.476830000000     0          
O        O      0.639850000000     0.106850000000     0.476880000000     0          
C        C      0.631980000000     0.087700000000     0.469730000000     0          
C        C      0.641860000000     0.077930000000     0.450380000000     0          
C        C      0.662200000000     0.086300000000     0.442370000000     0          
H        H      0.668500000000     0.099200000000     0.448400000000     0          
C        C      0.739000000000     0.119400000000     0.407500000000     0          
H        H      0.731100000000     0.127000000000     0.418400000000     0          
C        C      0.760000000000     0.127800000000     0.399200000000     0          
H        H      0.766100000000     0.140700000000     0.405300000000     0          
O        O      0.613240000000     0.580820000000     0.976830000000     0          
O        O      0.639850000000     0.606850000000     0.976880000000     0          
C        C      0.631980000000     0.587700000000     0.969730000000     0          
C        C      0.641860000000     0.577930000000     0.950380000000     0          
C        C      0.662200000000     0.586300000000     0.942370000000     0          
H        H      0.668500000000     0.599200000000     0.948400000000     0          
C        C      0.739000000000     0.619400000000     0.907500000000     0          
H        H      0.731100000000     0.627000000000     0.918400000000     0          
C        C      0.760000000000     0.627800000000     0.899200000000     0          
H        H      0.766100000000     0.640700000000     0.905300000000     0          
O        O      0.113240000000     0.919180000000     0.023170000000     0          
O        O      0.139850000000     0.893150000000     0.023120000000     0          
C        C      0.131980000000     0.912300000000     0.030270000000     0          
C        C      0.141860000000     0.922070000000     0.049620000000     0          
C        C      0.162200000000     0.913700000000     0.057630000000     0          
H        H      0.168500000000     0.900800000000     0.051600000000     0          
C        C      0.239000000000     0.880600000000     0.092500000000     0          
H        H      0.231100000000     0.873000000000     0.081600000000     0          
C        C      0.260000000000     0.872200000000     0.100800000000     0          
H        H      0.266100000000     0.859300000000     0.094700000000     0          
O        O      0.113240000000     0.419180000000     0.523170000000     0          
O        O      0.139850000000     0.393150000000     0.523120000000     0          
C        C      0.131980000000     0.412300000000     0.530270000000     0          
C        C      0.141860000000     0.422070000000     0.549620000000     0          
C        C      0.162200000000     0.413700000000     0.557630000000     0          
H        H      0.168500000000     0.400800000000     0.551600000000     0          
C        C      0.239000000000     0.380600000000     0.592500000000     0          
H        H      0.231100000000     0.373000000000     0.581600000000     0          
C        C      0.260000000000     0.372200000000     0.600800000000     0          
H        H      0.266100000000     0.359300000000     0.594700000000     0          
O        O      0.613240000000     0.919180000000     0.523170000000     0          
O        O      0.639850000000     0.893150000000     0.523120000000     0          
C        C      0.631980000000     0.912300000000     0.530270000000     0          
C        C      0.641860000000     0.922070000000     0.549620000000     0          
C        C      0.662200000000     0.913700000000     0.557630000000     0          
H        H      0.668500000000     0.900800000000     0.551600000000     0          
C        C      0.739000000000     0.880600000000     0.592500000000     0          
H        H      0.731100000000     0.873000000000     0.581600000000     0          
C        C      0.760000000000     0.872200000000     0.600800000000     0          
H        H      0.766100000000     0.859300000000     0.594700000000     0          
O        O      0.613240000000     0.419180000000     0.023170000000     0          
O        O      0.639850000000     0.393150000000     0.023120000000     0          
C        C      0.631980000000     0.412300000000     0.030270000000     0          
C        C      0.641860000000     0.422070000000     0.049620000000     0          
C        C      0.662200000000     0.413700000000     0.057630000000     0          
H        H      0.668500000000     0.400800000000     0.051600000000     0          
C        C      0.739000000000     0.380600000000     0.092500000000     0          
H        H      0.731100000000     0.373000000000     0.081600000000     0          
C        C      0.760000000000     0.372200000000     0.100800000000     0          
H        H      0.766100000000     0.359300000000     0.094700000000     0          
O        O      0.886760000000     0.080820000000     0.023170000000     0          
O        O      0.860150000000     0.106850000000     0.023120000000     0          
C        C      0.868020000000     0.087700000000     0.030270000000     0          
C        C      0.858140000000     0.077930000000     0.049620000000     0          
C        C      0.837800000000     0.086300000000     0.057630000000     0          
H        H      0.831500000000     0.099200000000     0.051600000000     0          
C        C      0.761000000000     0.119400000000     0.092500000000     0          
H        H      0.768900000000     0.127000000000     0.081600000000     0          
C        C      0.740000000000     0.127800000000     0.100800000000     0          
H        H      0.733900000000     0.140700000000     0.094700000000     0          
O        O      0.886760000000     0.580820000000     0.523170000000     0          
O        O      0.860150000000     0.606850000000     0.523120000000     0          
C        C      0.868020000000     0.587700000000     0.530270000000     0          
C        C      0.858140000000     0.577930000000     0.549620000000     0          
C        C      0.837800000000     0.586300000000     0.557630000000     0          
H        H      0.831500000000     0.599200000000     0.551600000000     0          
C        C      0.761000000000     0.619400000000     0.592500000000     0          
H        H      0.768900000000     0.627000000000     0.581600000000     0          
C        C      0.740000000000     0.627800000000     0.600800000000     0          
H        H      0.733900000000     0.640700000000     0.594700000000     0          
O        O      0.386760000000     0.080820000000     0.523170000000     0          
O        O      0.360150000000     0.106850000000     0.523120000000     0          
C        C      0.368020000000     0.087700000000     0.530270000000     0          
C        C      0.358140000000     0.077930000000     0.549620000000     0          
C        C      0.337800000000     0.086300000000     0.557630000000     0          
H        H      0.331500000000     0.099200000000     0.551600000000     0          
C        C      0.261000000000     0.119400000000     0.592500000000     0          
H        H      0.268900000000     0.127000000000     0.581600000000     0          
C        C      0.240000000000     0.127800000000     0.600800000000     0          
H        H      0.233900000000     0.140700000000     0.594700000000     0          
O        O      0.386760000000     0.580820000000     0.023170000000     0          
O        O      0.360150000000     0.606850000000     0.023120000000     0          
C        C      0.368020000000     0.587700000000     0.030270000000     0          
C        C      0.358140000000     0.577930000000     0.049620000000     0          
C        C      0.337800000000     0.586300000000     0.057630000000     0          
H        H      0.331500000000     0.599200000000     0.051600000000     0          
C        C      0.261000000000     0.619400000000     0.092500000000     0          
H        H      0.268900000000     0.627000000000     0.081600000000     0          
C        C      0.240000000000     0.627800000000     0.100800000000     0          
H        H      0.233900000000     0.640700000000     0.094700000000     0          
O        O      0.886760000000     0.919180000000     0.976830000000     0          
O        O      0.860150000000     0.893150000000     0.976880000000     0          
C        C      0.868020000000     0.912300000000     0.969730000000     0          
C        C      0.858140000000     0.922070000000     0.950380000000     0          
C        C      0.837800000000     0.913700000000     0.942370000000     0          
H        H      0.831500000000     0.900800000000     0.948400000000     0          
C        C      0.761000000000     0.880600000000     0.907500000000     0          
H        H      0.768900000000     0.873000000000     0.918400000000     0          
C        C      0.740000000000     0.872200000000     0.899200000000     0          
H        H      0.733900000000     0.859300000000     0.905300000000     0          
O        O      0.886760000000     0.419180000000     0.476830000000     0          
O        O      0.860150000000     0.393150000000     0.476880000000     0          
C        C      0.868020000000     0.412300000000     0.469730000000     0          
C        C      0.858140000000     0.422070000000     0.450380000000     0          
C        C      0.837800000000     0.413700000000     0.442370000000     0          
H        H      0.831500000000     0.400800000000     0.448400000000     0          
C        C      0.761000000000     0.380600000000     0.407500000000     0          
H        H      0.768900000000     0.373000000000     0.418400000000     0          
C        C      0.740000000000     0.372200000000     0.399200000000     0          
H        H      0.733900000000     0.359300000000     0.405300000000     0          
O        O      0.386760000000     0.919180000000     0.476830000000     0          
O        O      0.360150000000     0.893150000000     0.476880000000     0          
C        C      0.368020000000     0.912300000000     0.469730000000     0          
C        C      0.358140000000     0.922070000000     0.450380000000     0          
C        C      0.337800000000     0.913700000000     0.442370000000     0          
H        H      0.331500000000     0.900800000000     0.448400000000     0          
C        C      0.261000000000     0.880600000000     0.407500000000     0          
H        H      0.268900000000     0.873000000000     0.418400000000     0          
C        C      0.240000000000     0.872200000000     0.399200000000     0          
H        H      0.233900000000     0.859300000000     0.405300000000     0          
O        O      0.386760000000     0.419180000000     0.976830000000     0          
O        O      0.360150000000     0.393150000000     0.976880000000     0          
C        C      0.368020000000     0.412300000000     0.969730000000     0          
C        C      0.358140000000     0.422070000000     0.950380000000     0          
C        C      0.337800000000     0.413700000000     0.942370000000     0          
H        H      0.331500000000     0.400800000000     0.948400000000     0          
C        C      0.261000000000     0.380600000000     0.907500000000     0          
H        H      0.268900000000     0.373000000000     0.918400000000     0          
C        C      0.240000000000     0.372200000000     0.899200000000     0          
H        H      0.233900000000     0.359300000000     0.905300000000     0          
O        O      0.976830000000     0.919180000000     0.886760000000     0          
O        O      0.976880000000     0.893150000000     0.860150000000     0          
C        C      0.969730000000     0.912300000000     0.868020000000     0          
C        C      0.950380000000     0.922070000000     0.858140000000     0          
C        C      0.942370000000     0.913700000000     0.837800000000     0          
H        H      0.948400000000     0.900800000000     0.831500000000     0          
C        C      0.907500000000     0.880600000000     0.761000000000     0          
H        H      0.918400000000     0.873000000000     0.768900000000     0          
C        C      0.899200000000     0.872200000000     0.740000000000     0          
H        H      0.905300000000     0.859300000000     0.733900000000     0          
O        O      0.976830000000     0.419180000000     0.386760000000     0          
O        O      0.976880000000     0.393150000000     0.360150000000     0          
C        C      0.969730000000     0.412300000000     0.368020000000     0          
C        C      0.950380000000     0.422070000000     0.358140000000     0          
C        C      0.942370000000     0.413700000000     0.337800000000     0          
H        H      0.948400000000     0.400800000000     0.331500000000     0          
C        C      0.907500000000     0.380600000000     0.261000000000     0          
H        H      0.918400000000     0.373000000000     0.268900000000     0          
C        C      0.899200000000     0.372200000000     0.240000000000     0          
H        H      0.905300000000     0.359300000000     0.233900000000     0          
O        O      0.476830000000     0.919180000000     0.386760000000     0          
O        O      0.476880000000     0.893150000000     0.360150000000     0          
C        C      0.469730000000     0.912300000000     0.368020000000     0          
C        C      0.450380000000     0.922070000000     0.358140000000     0          
C        C      0.442370000000     0.913700000000     0.337800000000     0          
H        H      0.448400000000     0.900800000000     0.331500000000     0          
C        C      0.407500000000     0.880600000000     0.261000000000     0          
H        H      0.418400000000     0.873000000000     0.268900000000     0          
C        C      0.399200000000     0.872200000000     0.240000000000     0          
H        H      0.405300000000     0.859300000000     0.233900000000     0          
O        O      0.476830000000     0.419180000000     0.886760000000     0          
O        O      0.476880000000     0.393150000000     0.860150000000     0          
C        C      0.469730000000     0.412300000000     0.868020000000     0          
C        C      0.450380000000     0.422070000000     0.858140000000     0          
C        C      0.442370000000     0.413700000000     0.837800000000     0          
H        H      0.448400000000     0.400800000000     0.831500000000     0          
C        C      0.407500000000     0.380600000000     0.761000000000     0          
H        H      0.418400000000     0.373000000000     0.768900000000     0          
C        C      0.399200000000     0.372200000000     0.740000000000     0          
H        H      0.405300000000     0.359300000000     0.733900000000     0          
O        O      0.023170000000     0.080820000000     0.886760000000     0          
O        O      0.023120000000     0.106850000000     0.860150000000     0          
C        C      0.030270000000     0.087700000000     0.868020000000     0          
C        C      0.049620000000     0.077930000000     0.858140000000     0          
C        C      0.057630000000     0.086300000000     0.837800000000     0          
H        H      0.051600000000     0.099200000000     0.831500000000     0          
C        C      0.092500000000     0.119400000000     0.761000000000     0          
H        H      0.081600000000     0.127000000000     0.768900000000     0          
C        C      0.100800000000     0.127800000000     0.740000000000     0          
H        H      0.094700000000     0.140700000000     0.733900000000     0          
O        O      0.023170000000     0.580820000000     0.386760000000     0          
O        O      0.023120000000     0.606850000000     0.360150000000     0          
C        C      0.030270000000     0.587700000000     0.368020000000     0          
C        C      0.049620000000     0.577930000000     0.358140000000     0          
C        C      0.057630000000     0.586300000000     0.337800000000     0          
H        H      0.051600000000     0.599200000000     0.331500000000     0          
C        C      0.092500000000     0.619400000000     0.261000000000     0          
H        H      0.081600000000     0.627000000000     0.268900000000     0          
C        C      0.100800000000     0.627800000000     0.240000000000     0          
H        H      0.094700000000     0.640700000000     0.233900000000     0          
O        O      0.523170000000     0.080820000000     0.386760000000     0          
O        O      0.523120000000     0.106850000000     0.360150000000     0          
C        C      0.530270000000     0.087700000000     0.368020000000     0          
C        C      0.549620000000     0.077930000000     0.358140000000     0          
C        C      0.557630000000     0.086300000000     0.337800000000     0          
H        H      0.551600000000     0.099200000000     0.331500000000     0          
C        C      0.592500000000     0.119400000000     0.261000000000     0          
H        H      0.581600000000     0.127000000000     0.268900000000     0          
C        C      0.600800000000     0.127800000000     0.240000000000     0          
H        H      0.594700000000     0.140700000000     0.233900000000     0          
O        O      0.523170000000     0.580820000000     0.886760000000     0          
O        O      0.523120000000     0.606850000000     0.860150000000     0          
C        C      0.530270000000     0.587700000000     0.868020000000     0          
C        C      0.549620000000     0.577930000000     0.858140000000     0          
C        C      0.557630000000     0.586300000000     0.837800000000     0          
H        H      0.551600000000     0.599200000000     0.831500000000     0          
C        C      0.592500000000     0.619400000000     0.761000000000     0          
H        H      0.581600000000     0.627000000000     0.768900000000     0          
C        C      0.600800000000     0.627800000000     0.740000000000     0          
H        H      0.594700000000     0.640700000000     0.733900000000     0          
O        O      0.023170000000     0.919180000000     0.113240000000     0          
O        O      0.023120000000     0.893150000000     0.139850000000     0          
C        C      0.030270000000     0.912300000000     0.131980000000     0          
C        C      0.049620000000     0.922070000000     0.141860000000     0          
C        C      0.057630000000     0.913700000000     0.162200000000     0          
H        H      0.051600000000     0.900800000000     0.168500000000     0          
C        C      0.092500000000     0.880600000000     0.239000000000     0          
H        H      0.081600000000     0.873000000000     0.231100000000     0          
C        C      0.100800000000     0.872200000000     0.260000000000     0          
H        H      0.094700000000     0.859300000000     0.266100000000     0          
O        O      0.023170000000     0.419180000000     0.613240000000     0          
O        O      0.023120000000     0.393150000000     0.639850000000     0          
C        C      0.030270000000     0.412300000000     0.631980000000     0          
C        C      0.049620000000     0.422070000000     0.641860000000     0          
C        C      0.057630000000     0.413700000000     0.662200000000     0          
H        H      0.051600000000     0.400800000000     0.668500000000     0          
C        C      0.092500000000     0.380600000000     0.739000000000     0          
H        H      0.081600000000     0.373000000000     0.731100000000     0          
C        C      0.100800000000     0.372200000000     0.760000000000     0          
H        H      0.094700000000     0.359300000000     0.766100000000     0          
O        O      0.523170000000     0.919180000000     0.613240000000     0          
O        O      0.523120000000     0.893150000000     0.639850000000     0          
C        C      0.530270000000     0.912300000000     0.631980000000     0          
C        C      0.549620000000     0.922070000000     0.641860000000     0          
C        C      0.557630000000     0.913700000000     0.662200000000     0          
H        H      0.551600000000     0.900800000000     0.668500000000     0          
C        C      0.592500000000     0.880600000000     0.739000000000     0          
H        H      0.581600000000     0.873000000000     0.731100000000     0          
C        C      0.600800000000     0.872200000000     0.760000000000     0          
H        H      0.594700000000     0.859300000000     0.766100000000     0          
O        O      0.523170000000     0.419180000000     0.113240000000     0          
O        O      0.523120000000     0.393150000000     0.139850000000     0          
C        C      0.530270000000     0.412300000000     0.131980000000     0          
C        C      0.549620000000     0.422070000000     0.141860000000     0          
C        C      0.557630000000     0.413700000000     0.162200000000     0          
H        H      0.551600000000     0.400800000000     0.168500000000     0          
C        C      0.592500000000     0.380600000000     0.239000000000     0          
H        H      0.581600000000     0.373000000000     0.231100000000     0          
C        C      0.600800000000     0.372200000000     0.260000000000     0          
H        H      0.594700000000     0.359300000000     0.266100000000     0          
O        O      0.976830000000     0.080820000000     0.113240000000     0          
O        O      0.976880000000     0.106850000000     0.139850000000     0          
C        C      0.969730000000     0.087700000000     0.131980000000     0          
C        C      0.950380000000     0.077930000000     0.141860000000     0          
C        C      0.942370000000     0.086300000000     0.162200000000     0          
H        H      0.948400000000     0.099200000000     0.168500000000     0          
C        C      0.907500000000     0.119400000000     0.239000000000     0          
H        H      0.918400000000     0.127000000000     0.231100000000     0          
C        C      0.899200000000     0.127800000000     0.260000000000     0          
H        H      0.905300000000     0.140700000000     0.266100000000     0          
O        O      0.976830000000     0.580820000000     0.613240000000     0          
O        O      0.976880000000     0.606850000000     0.639850000000     0          
C        C      0.969730000000     0.587700000000     0.631980000000     0          
C        C      0.950380000000     0.577930000000     0.641860000000     0          
C        C      0.942370000000     0.586300000000     0.662200000000     0          
H        H      0.948400000000     0.599200000000     0.668500000000     0          
C        C      0.907500000000     0.619400000000     0.739000000000     0          
H        H      0.918400000000     0.627000000000     0.731100000000     0          
C        C      0.899200000000     0.627800000000     0.760000000000     0          
H        H      0.905300000000     0.640700000000     0.766100000000     0          
O        O      0.476830000000     0.080820000000     0.613240000000     0          
O        O      0.476880000000     0.106850000000     0.639850000000     0          
C        C      0.469730000000     0.087700000000     0.631980000000     0          
C        C      0.450380000000     0.077930000000     0.641860000000     0          
C        C      0.442370000000     0.086300000000     0.662200000000     0          
H        H      0.448400000000     0.099200000000     0.668500000000     0          
C        C      0.407500000000     0.119400000000     0.739000000000     0          
H        H      0.418400000000     0.127000000000     0.731100000000     0          
C        C      0.399200000000     0.127800000000     0.760000000000     0          
H        H      0.405300000000     0.140700000000     0.766100000000     0          
O        O      0.476830000000     0.580820000000     0.113240000000     0          
O        O      0.476880000000     0.606850000000     0.139850000000     0          
C        C      0.469730000000     0.587700000000     0.131980000000     0          
C        C      0.450380000000     0.577930000000     0.141860000000     0          
C        C      0.442370000000     0.586300000000     0.162200000000     0          
H        H      0.448400000000     0.599200000000     0.168500000000     0          
C        C      0.407500000000     0.619400000000     0.239000000000     0          
H        H      0.418400000000     0.627000000000     0.231100000000     0          
C        C      0.399200000000     0.627800000000     0.260000000000     0          
H        H      0.405300000000     0.640700000000     0.266100000000     0          
O        O      0.886760000000     0.976830000000     0.919180000000     0          
O        O      0.860150000000     0.976880000000     0.893150000000     0          
C        C      0.868020000000     0.969730000000     0.912300000000     0          
C        C      0.858140000000     0.950380000000     0.922070000000     0          
C        C      0.837800000000     0.942370000000     0.913700000000     0          
H        H      0.831500000000     0.948400000000     0.900800000000     0          
C        C      0.761000000000     0.907500000000     0.880600000000     0          
H        H      0.768900000000     0.918400000000     0.873000000000     0          
C        C      0.740000000000     0.899200000000     0.872200000000     0          
H        H      0.733900000000     0.905300000000     0.859300000000     0          
O        O      0.886760000000     0.476830000000     0.419180000000     0          
O        O      0.860150000000     0.476880000000     0.393150000000     0          
C        C      0.868020000000     0.469730000000     0.412300000000     0          
C        C      0.858140000000     0.450380000000     0.422070000000     0          
C        C      0.837800000000     0.442370000000     0.413700000000     0          
H        H      0.831500000000     0.448400000000     0.400800000000     0          
C        C      0.761000000000     0.407500000000     0.380600000000     0          
H        H      0.768900000000     0.418400000000     0.373000000000     0          
C        C      0.740000000000     0.399200000000     0.372200000000     0          
H        H      0.733900000000     0.405300000000     0.359300000000     0          
O        O      0.386760000000     0.976830000000     0.419180000000     0          
O        O      0.360150000000     0.976880000000     0.393150000000     0          
C        C      0.368020000000     0.969730000000     0.412300000000     0          
C        C      0.358140000000     0.950380000000     0.422070000000     0          
C        C      0.337800000000     0.942370000000     0.413700000000     0          
H        H      0.331500000000     0.948400000000     0.400800000000     0          
C        C      0.261000000000     0.907500000000     0.380600000000     0          
H        H      0.268900000000     0.918400000000     0.373000000000     0          
C        C      0.240000000000     0.899200000000     0.372200000000     0          
H        H      0.233900000000     0.905300000000     0.359300000000     0          
O        O      0.386760000000     0.476830000000     0.919180000000     0          
O        O      0.360150000000     0.476880000000     0.893150000000     0          
C        C      0.368020000000     0.469730000000     0.912300000000     0          
C        C      0.358140000000     0.450380000000     0.922070000000     0          
C        C      0.337800000000     0.442370000000     0.913700000000     0          
H        H      0.331500000000     0.448400000000     0.900800000000     0          
C        C      0.261000000000     0.407500000000     0.880600000000     0          
H        H      0.268900000000     0.418400000000     0.873000000000     0          
C        C      0.240000000000     0.399200000000     0.872200000000     0          
H        H      0.233900000000     0.405300000000     0.859300000000     0          
O        O      0.886760000000     0.023170000000     0.080820000000     0          
O        O      0.860150000000     0.023120000000     0.106850000000     0          
C        C      0.868020000000     0.030270000000     0.087700000000     0          
C        C      0.858140000000     0.049620000000     0.077930000000     0          
C        C      0.837800000000     0.057630000000     0.086300000000     0          
H        H      0.831500000000     0.051600000000     0.099200000000     0          
C        C      0.761000000000     0.092500000000     0.119400000000     0          
H        H      0.768900000000     0.081600000000     0.127000000000     0          
C        C      0.740000000000     0.100800000000     0.127800000000     0          
H        H      0.733900000000     0.094700000000     0.140700000000     0          
O        O      0.886760000000     0.523170000000     0.580820000000     0          
O        O      0.860150000000     0.523120000000     0.606850000000     0          
C        C      0.868020000000     0.530270000000     0.587700000000     0          
C        C      0.858140000000     0.549620000000     0.577930000000     0          
C        C      0.837800000000     0.557630000000     0.586300000000     0          
H        H      0.831500000000     0.551600000000     0.599200000000     0          
C        C      0.761000000000     0.592500000000     0.619400000000     0          
H        H      0.768900000000     0.581600000000     0.627000000000     0          
C        C      0.740000000000     0.600800000000     0.627800000000     0          
H        H      0.733900000000     0.594700000000     0.640700000000     0          
O        O      0.386760000000     0.023170000000     0.580820000000     0          
O        O      0.360150000000     0.023120000000     0.606850000000     0          
C        C      0.368020000000     0.030270000000     0.587700000000     0          
C        C      0.358140000000     0.049620000000     0.577930000000     0          
C        C      0.337800000000     0.057630000000     0.586300000000     0          
H        H      0.331500000000     0.051600000000     0.599200000000     0          
C        C      0.261000000000     0.092500000000     0.619400000000     0          
H        H      0.268900000000     0.081600000000     0.627000000000     0          
C        C      0.240000000000     0.100800000000     0.627800000000     0          
H        H      0.233900000000     0.094700000000     0.640700000000     0          
O        O      0.386760000000     0.523170000000     0.080820000000     0          
O        O      0.360150000000     0.523120000000     0.106850000000     0          
C        C      0.368020000000     0.530270000000     0.087700000000     0          
C        C      0.358140000000     0.549620000000     0.077930000000     0          
C        C      0.337800000000     0.557630000000     0.086300000000     0          
H        H      0.331500000000     0.551600000000     0.099200000000     0          
C        C      0.261000000000     0.592500000000     0.119400000000     0          
H        H      0.268900000000     0.581600000000     0.127000000000     0          
C        C      0.240000000000     0.600800000000     0.127800000000     0          
H        H      0.233900000000     0.594700000000     0.140700000000     0          
O        O      0.113240000000     0.023170000000     0.919180000000     0          
O        O      0.139850000000     0.023120000000     0.893150000000     0          
C        C      0.131980000000     0.030270000000     0.912300000000     0          
C        C      0.141860000000     0.049620000000     0.922070000000     0          
C        C      0.162200000000     0.057630000000     0.913700000000     0          
H        H      0.168500000000     0.051600000000     0.900800000000     0          
C        C      0.239000000000     0.092500000000     0.880600000000     0          
H        H      0.231100000000     0.081600000000     0.873000000000     0          
C        C      0.260000000000     0.100800000000     0.872200000000     0          
H        H      0.266100000000     0.094700000000     0.859300000000     0          
O        O      0.113240000000     0.523170000000     0.419180000000     0          
O        O      0.139850000000     0.523120000000     0.393150000000     0          
C        C      0.131980000000     0.530270000000     0.412300000000     0          
C        C      0.141860000000     0.549620000000     0.422070000000     0          
C        C      0.162200000000     0.557630000000     0.413700000000     0          
H        H      0.168500000000     0.551600000000     0.400800000000     0          
C        C      0.239000000000     0.592500000000     0.380600000000     0          
H        H      0.231100000000     0.581600000000     0.373000000000     0          
C        C      0.260000000000     0.600800000000     0.372200000000     0          
H        H      0.266100000000     0.594700000000     0.359300000000     0          
O        O      0.613240000000     0.023170000000     0.419180000000     0          
O        O      0.639850000000     0.023120000000     0.393150000000     0          
C        C      0.631980000000     0.030270000000     0.412300000000     0          
C        C      0.641860000000     0.049620000000     0.422070000000     0          
C        C      0.662200000000     0.057630000000     0.413700000000     0          
H        H      0.668500000000     0.051600000000     0.400800000000     0          
C        C      0.739000000000     0.092500000000     0.380600000000     0          
H        H      0.731100000000     0.081600000000     0.373000000000     0          
C        C      0.760000000000     0.100800000000     0.372200000000     0          
H        H      0.766100000000     0.094700000000     0.359300000000     0          
O        O      0.613240000000     0.523170000000     0.919180000000     0          
O        O      0.639850000000     0.523120000000     0.893150000000     0          
C        C      0.631980000000     0.530270000000     0.912300000000     0          
C        C      0.641860000000     0.549620000000     0.922070000000     0          
C        C      0.662200000000     0.557630000000     0.913700000000     0          
H        H      0.668500000000     0.551600000000     0.900800000000     0          
C        C      0.739000000000     0.592500000000     0.880600000000     0          
H        H      0.731100000000     0.581600000000     0.873000000000     0          
C        C      0.760000000000     0.600800000000     0.872200000000     0          
H        H      0.766100000000     0.594700000000     0.859300000000     0          
O        O      0.113240000000     0.976830000000     0.080820000000     0          
O        O      0.139850000000     0.976880000000     0.106850000000     0          
C        C      0.131980000000     0.969730000000     0.087700000000     0          
C        C      0.141860000000     0.950380000000     0.077930000000     0          
C        C      0.162200000000     0.942370000000     0.086300000000     0          
H        H      0.168500000000     0.948400000000     0.099200000000     0          
C        C      0.239000000000     0.907500000000     0.119400000000     0          
H        H      0.231100000000     0.918400000000     0.127000000000     0          
C        C      0.260000000000     0.899200000000     0.127800000000     0          
H        H      0.266100000000     0.905300000000     0.140700000000     0          
O        O      0.113240000000     0.476830000000     0.580820000000     0          
O        O      0.139850000000     0.476880000000     0.606850000000     0          
C        C      0.131980000000     0.469730000000     0.587700000000     0          
C        C      0.141860000000     0.450380000000     0.577930000000     0          
C        C      0.162200000000     0.442370000000     0.586300000000     0          
H        H      0.168500000000     0.448400000000     0.599200000000     0          
C        C      0.239000000000     0.407500000000     0.619400000000     0          
H        H      0.231100000000     0.418400000000     0.627000000000     0          
C        C      0.260000000000     0.399200000000     0.627800000000     0          
H        H      0.266100000000     0.405300000000     0.640700000000     0          
O        O      0.613240000000     0.976830000000     0.580820000000     0          
O        O      0.639850000000     0.976880000000     0.606850000000     0          
C        C      0.631980000000     0.969730000000     0.587700000000     0          
C        C      0.641860000000     0.950380000000     0.577930000000     0          
C        C      0.662200000000     0.942370000000     0.586300000000     0          
H        H      0.668500000000     0.948400000000     0.599200000000     0          
C        C      0.739000000000     0.907500000000     0.619400000000     0          
H        H      0.731100000000     0.918400000000     0.627000000000     0          
C        C      0.760000000000     0.899200000000     0.627800000000     0          
H        H      0.766100000000     0.905300000000     0.640700000000     0          
O        O      0.613240000000     0.476830000000     0.080820000000     0          
O        O      0.639850000000     0.476880000000     0.106850000000     0          
C        C      0.631980000000     0.469730000000     0.087700000000     0          
C        C      0.641860000000     0.450380000000     0.077930000000     0          
C        C      0.662200000000     0.442370000000     0.086300000000     0          
H        H      0.668500000000     0.448400000000     0.099200000000     0          
C        C      0.739000000000     0.407500000000     0.119400000000     0          
H        H      0.731100000000     0.418400000000     0.127000000000     0          
C        C      0.760000000000     0.399200000000     0.127800000000     0          
H        H      0.766100000000     0.405300000000     0.140700000000     0          
O        O      0.919180000000     0.886760000000     0.976830000000     0          
O        O      0.893150000000     0.860150000000     0.976880000000     0          
C        C      0.912300000000     0.868020000000     0.969730000000     0          
C        C      0.922070000000     0.858140000000     0.950380000000     0          
C        C      0.913700000000     0.837800000000     0.942370000000     0          
H        H      0.900800000000     0.831500000000     0.948400000000     0          
C        C      0.880600000000     0.761000000000     0.907500000000     0          
H        H      0.873000000000     0.768900000000     0.918400000000     0          
C        C      0.872200000000     0.740000000000     0.899200000000     0          
H        H      0.859300000000     0.733900000000     0.905300000000     0          
O        O      0.919180000000     0.386760000000     0.476830000000     0          
O        O      0.893150000000     0.360150000000     0.476880000000     0          
C        C      0.912300000000     0.368020000000     0.469730000000     0          
C        C      0.922070000000     0.358140000000     0.450380000000     0          
C        C      0.913700000000     0.337800000000     0.442370000000     0          
H        H      0.900800000000     0.331500000000     0.448400000000     0          
C        C      0.880600000000     0.261000000000     0.407500000000     0          
H        H      0.873000000000     0.268900000000     0.418400000000     0          
C        C      0.872200000000     0.240000000000     0.399200000000     0          
H        H      0.859300000000     0.233900000000     0.405300000000     0          
O        O      0.419180000000     0.886760000000     0.476830000000     0          
O        O      0.393150000000     0.860150000000     0.476880000000     0          
C        C      0.412300000000     0.868020000000     0.469730000000     0          
C        C      0.422070000000     0.858140000000     0.450380000000     0          
C        C      0.413700000000     0.837800000000     0.442370000000     0          
H        H      0.400800000000     0.831500000000     0.448400000000     0          
C        C      0.380600000000     0.761000000000     0.407500000000     0          
H        H      0.373000000000     0.768900000000     0.418400000000     0          
C        C      0.372200000000     0.740000000000     0.399200000000     0          
H        H      0.359300000000     0.733900000000     0.405300000000     0          
O        O      0.419180000000     0.386760000000     0.976830000000     0          
O        O      0.393150000000     0.360150000000     0.976880000000     0          
C        C      0.412300000000     0.368020000000     0.969730000000     0          
C        C      0.422070000000     0.358140000000     0.950380000000     0          
C        C      0.413700000000     0.337800000000     0.942370000000     0          
H        H      0.400800000000     0.331500000000     0.948400000000     0          
C        C      0.380600000000     0.261000000000     0.907500000000     0          
H        H      0.373000000000     0.268900000000     0.918400000000     0          
C        C      0.372200000000     0.240000000000     0.899200000000     0          
H        H      0.359300000000     0.233900000000     0.905300000000     0          
O        O      0.080820000000     0.886760000000     0.023170000000     0          
O        O      0.106850000000     0.860150000000     0.023120000000     0          
C        C      0.087700000000     0.868020000000     0.030270000000     0          
C        C      0.077930000000     0.858140000000     0.049620000000     0          
C        C      0.086300000000     0.837800000000     0.057630000000     0          
H        H      0.099200000000     0.831500000000     0.051600000000     0          
C        C      0.119400000000     0.761000000000     0.092500000000     0          
H        H      0.127000000000     0.768900000000     0.081600000000     0          
C        C      0.127800000000     0.740000000000     0.100800000000     0          
H        H      0.140700000000     0.733900000000     0.094700000000     0          
O        O      0.080820000000     0.386760000000     0.523170000000     0          
O        O      0.106850000000     0.360150000000     0.523120000000     0          
C        C      0.087700000000     0.368020000000     0.530270000000     0          
C        C      0.077930000000     0.358140000000     0.549620000000     0          
C        C      0.086300000000     0.337800000000     0.557630000000     0          
H        H      0.099200000000     0.331500000000     0.551600000000     0          
C        C      0.119400000000     0.261000000000     0.592500000000     0          
H        H      0.127000000000     0.268900000000     0.581600000000     0          
C        C      0.127800000000     0.240000000000     0.600800000000     0          
H        H      0.140700000000     0.233900000000     0.594700000000     0          
O        O      0.580820000000     0.886760000000     0.523170000000     0          
O        O      0.606850000000     0.860150000000     0.523120000000     0          
C        C      0.587700000000     0.868020000000     0.530270000000     0          
C        C      0.577930000000     0.858140000000     0.549620000000     0          
C        C      0.586300000000     0.837800000000     0.557630000000     0          
H        H      0.599200000000     0.831500000000     0.551600000000     0          
C        C      0.619400000000     0.761000000000     0.592500000000     0          
H        H      0.627000000000     0.768900000000     0.581600000000     0          
C        C      0.627800000000     0.740000000000     0.600800000000     0          
H        H      0.640700000000     0.733900000000     0.594700000000     0          
O        O      0.580820000000     0.386760000000     0.023170000000     0          
O        O      0.606850000000     0.360150000000     0.023120000000     0          
C        C      0.587700000000     0.368020000000     0.030270000000     0          
C        C      0.577930000000     0.358140000000     0.049620000000     0          
C        C      0.586300000000     0.337800000000     0.057630000000     0          
H        H      0.599200000000     0.331500000000     0.051600000000     0          
C        C      0.619400000000     0.261000000000     0.092500000000     0          
H        H      0.627000000000     0.268900000000     0.081600000000     0          
C        C      0.627800000000     0.240000000000     0.100800000000     0          
H        H      0.640700000000     0.233900000000     0.094700000000     0          
O        O      0.919180000000     0.113240000000     0.023170000000     0          
O        O      0.893150000000     0.139850000000     0.023120000000     0          
C        C      0.912300000000     0.131980000000     0.030270000000     0          
C        C      0.922070000000     0.141860000000     0.049620000000     0          
C        C      0.913700000000     0.162200000000     0.057630000000     0          
H        H      0.900800000000     0.168500000000     0.051600000000     0          
C        C      0.880600000000     0.239000000000     0.092500000000     0          
H        H      0.873000000000     0.231100000000     0.081600000000     0          
C        C      0.872200000000     0.260000000000     0.100800000000     0          
H        H      0.859300000000     0.266100000000     0.094700000000     0          
O        O      0.919180000000     0.613240000000     0.523170000000     0          
O        O      0.893150000000     0.639850000000     0.523120000000     0          
C        C      0.912300000000     0.631980000000     0.530270000000     0          
C        C      0.922070000000     0.641860000000     0.549620000000     0          
C        C      0.913700000000     0.662200000000     0.557630000000     0          
H        H      0.900800000000     0.668500000000     0.551600000000     0          
C        C      0.880600000000     0.739000000000     0.592500000000     0          
H        H      0.873000000000     0.731100000000     0.581600000000     0          
C        C      0.872200000000     0.760000000000     0.600800000000     0          
H        H      0.859300000000     0.766100000000     0.594700000000     0          
O        O      0.419180000000     0.113240000000     0.523170000000     0          
O        O      0.393150000000     0.139850000000     0.523120000000     0          
C        C      0.412300000000     0.131980000000     0.530270000000     0          
C        C      0.422070000000     0.141860000000     0.549620000000     0          
C        C      0.413700000000     0.162200000000     0.557630000000     0          
H        H      0.400800000000     0.168500000000     0.551600000000     0          
C        C      0.380600000000     0.239000000000     0.592500000000     0          
H        H      0.373000000000     0.231100000000     0.581600000000     0          
C        C      0.372200000000     0.260000000000     0.600800000000     0          
H        H      0.359300000000     0.266100000000     0.594700000000     0          
O        O      0.419180000000     0.613240000000     0.023170000000     0          
O        O      0.393150000000     0.639850000000     0.023120000000     0          
C        C      0.412300000000     0.631980000000     0.030270000000     0          
C        C      0.422070000000     0.641860000000     0.049620000000     0          
C        C      0.413700000000     0.662200000000     0.057630000000     0          
H        H      0.400800000000     0.668500000000     0.051600000000     0          
C        C      0.380600000000     0.739000000000     0.092500000000     0          
H        H      0.373000000000     0.731100000000     0.081600000000     0          
C        C      0.372200000000     0.760000000000     0.100800000000     0          
H        H      0.359300000000     0.766100000000     0.094700000000     0          
O        O      0.080820000000     0.113240000000     0.976830000000     0          
O        O      0.106850000000     0.139850000000     0.976880000000     0          
C        C      0.087700000000     0.131980000000     0.969730000000     0          
C        C      0.077930000000     0.141860000000     0.950380000000     0          
C        C      0.086300000000     0.162200000000     0.942370000000     0          
H        H      0.099200000000     0.168500000000     0.948400000000     0          
C        C      0.119400000000     0.239000000000     0.907500000000     0          
H        H      0.127000000000     0.231100000000     0.918400000000     0          
C        C      0.127800000000     0.260000000000     0.899200000000     0          
H        H      0.140700000000     0.266100000000     0.905300000000     0          
O        O      0.080820000000     0.613240000000     0.476830000000     0          
O        O      0.106850000000     0.639850000000     0.476880000000     0          
C        C      0.087700000000     0.631980000000     0.469730000000     0          
C        C      0.077930000000     0.641860000000     0.450380000000     0          
C        C      0.086300000000     0.662200000000     0.442370000000     0          
H        H      0.099200000000     0.668500000000     0.448400000000     0          
C        C      0.119400000000     0.739000000000     0.407500000000     0          
H        H      0.127000000000     0.731100000000     0.418400000000     0          
C        C      0.127800000000     0.760000000000     0.399200000000     0          
H        H      0.140700000000     0.766100000000     0.405300000000     0          
O        O      0.580820000000     0.113240000000     0.476830000000     0          
O        O      0.606850000000     0.139850000000     0.476880000000     0          
C        C      0.587700000000     0.131980000000     0.469730000000     0          
C        C      0.577930000000     0.141860000000     0.450380000000     0          
C        C      0.586300000000     0.162200000000     0.442370000000     0          
H        H      0.599200000000     0.168500000000     0.448400000000     0          
C        C      0.619400000000     0.239000000000     0.407500000000     0          
H        H      0.627000000000     0.231100000000     0.418400000000     0          
C        C      0.627800000000     0.260000000000     0.399200000000     0          
H        H      0.640700000000     0.266100000000     0.405300000000     0          
O        O      0.580820000000     0.613240000000     0.976830000000     0          
O        O      0.606850000000     0.639850000000     0.976880000000     0          
C        C      0.587700000000     0.631980000000     0.969730000000     0          
C        C      0.577930000000     0.641860000000     0.950380000000     0          
C        C      0.586300000000     0.662200000000     0.942370000000     0          
H        H      0.599200000000     0.668500000000     0.948400000000     0          
C        C      0.619400000000     0.739000000000     0.907500000000     0          
H        H      0.627000000000     0.731100000000     0.918400000000     0          
C        C      0.627800000000     0.760000000000     0.899200000000     0          
H        H      0.640700000000     0.766100000000     0.905300000000     0          
O        O      0.919180000000     0.976830000000     0.113240000000     0          
O        O      0.893150000000     0.976880000000     0.139850000000     0          
C        C      0.912300000000     0.969730000000     0.131980000000     0          
C        C      0.922070000000     0.950380000000     0.141860000000     0          
C        C      0.913700000000     0.942370000000     0.162200000000     0          
H        H      0.900800000000     0.948400000000     0.168500000000     0          
C        C      0.880600000000     0.907500000000     0.239000000000     0          
H        H      0.873000000000     0.918400000000     0.231100000000     0          
C        C      0.872200000000     0.899200000000     0.260000000000     0          
H        H      0.859300000000     0.905300000000     0.266100000000     0          
O        O      0.919180000000     0.476830000000     0.613240000000     0          
O        O      0.893150000000     0.476880000000     0.639850000000     0          
C        C      0.912300000000     0.469730000000     0.631980000000     0          
C        C      0.922070000000     0.450380000000     0.641860000000     0          
C        C      0.913700000000     0.442370000000     0.662200000000     0          
H        H      0.900800000000     0.448400000000     0.668500000000     0          
C        C      0.880600000000     0.407500000000     0.739000000000     0          
H        H      0.873000000000     0.418400000000     0.731100000000     0          
C        C      0.872200000000     0.399200000000     0.760000000000     0          
H        H      0.859300000000     0.405300000000     0.766100000000     0          
O        O      0.419180000000     0.976830000000     0.613240000000     0          
O        O      0.393150000000     0.976880000000     0.639850000000     0          
C        C      0.412300000000     0.969730000000     0.631980000000     0          
C        C      0.422070000000     0.950380000000     0.641860000000     0          
C        C      0.413700000000     0.942370000000     0.662200000000     0          
H        H      0.400800000000     0.948400000000     0.668500000000     0          
C        C      0.380600000000     0.907500000000     0.739000000000     0          
H        H      0.373000000000     0.918400000000     0.731100000000     0          
C        C      0.372200000000     0.899200000000     0.760000000000     0          
H        H      0.359300000000     0.905300000000     0.766100000000     0          
O        O      0.419180000000     0.476830000000     0.113240000000     0          
O        O      0.393150000000     0.476880000000     0.139850000000     0          
C        C      0.412300000000     0.469730000000     0.131980000000     0          
C        C      0.422070000000     0.450380000000     0.141860000000     0          
C        C      0.413700000000     0.442370000000     0.162200000000     0          
H        H      0.400800000000     0.448400000000     0.168500000000     0          
C        C      0.380600000000     0.407500000000     0.239000000000     0          
H        H      0.373000000000     0.418400000000     0.231100000000     0          
C        C      0.372200000000     0.399200000000     0.260000000000     0          
H        H      0.359300000000     0.405300000000     0.266100000000     0          
O        O      0.080820000000     0.023170000000     0.113240000000     0          
O        O      0.106850000000     0.023120000000     0.139850000000     0          
C        C      0.087700000000     0.030270000000     0.131980000000     0          
C        C      0.077930000000     0.049620000000     0.141860000000     0          
C        C      0.086300000000     0.057630000000     0.162200000000     0          
H        H      0.099200000000     0.051600000000     0.168500000000     0          
C        C      0.119400000000     0.092500000000     0.239000000000     0          
H        H      0.127000000000     0.081600000000     0.231100000000     0          
C        C      0.127800000000     0.100800000000     0.260000000000     0          
H        H      0.140700000000     0.094700000000     0.266100000000     0          
O        O      0.080820000000     0.523170000000     0.613240000000     0          
O        O      0.106850000000     0.523120000000     0.639850000000     0          
C        C      0.087700000000     0.530270000000     0.631980000000     0          
C        C      0.077930000000     0.549620000000     0.641860000000     0          
C        C      0.086300000000     0.557630000000     0.662200000000     0          
H        H      0.099200000000     0.551600000000     0.668500000000     0          
C        C      0.119400000000     0.592500000000     0.739000000000     0          
H        H      0.127000000000     0.581600000000     0.731100000000     0          
C        C      0.127800000000     0.600800000000     0.760000000000     0          
H        H      0.140700000000     0.594700000000     0.766100000000     0          
O        O      0.580820000000     0.023170000000     0.613240000000     0          
O        O      0.606850000000     0.023120000000     0.639850000000     0          
C        C      0.587700000000     0.030270000000     0.631980000000     0          
C        C      0.577930000000     0.049620000000     0.641860000000     0          
C        C      0.586300000000     0.057630000000     0.662200000000     0          
H        H      0.599200000000     0.051600000000     0.668500000000     0          
C        C      0.619400000000     0.092500000000     0.739000000000     0          
H        H      0.627000000000     0.081600000000     0.731100000000     0          
C        C      0.627800000000     0.100800000000     0.760000000000     0          
H        H      0.640700000000     0.094700000000     0.766100000000     0          
O        O      0.580820000000     0.523170000000     0.113240000000     0          
O        O      0.606850000000     0.523120000000     0.139850000000     0          
C        C      0.587700000000     0.530270000000     0.131980000000     0          
C        C      0.577930000000     0.549620000000     0.141860000000     0          
C        C      0.586300000000     0.557630000000     0.162200000000     0          
H        H      0.599200000000     0.551600000000     0.168500000000     0          
C        C      0.619400000000     0.592500000000     0.239000000000     0          
H        H      0.627000000000     0.581600000000     0.231100000000     0          
C        C      0.627800000000     0.600800000000     0.260000000000     0          
H        H      0.640700000000     0.594700000000     0.266100000000     0          
O        O      0.919180000000     0.023170000000     0.886760000000     0          
O        O      0.893150000000     0.023120000000     0.860150000000     0          
C        C      0.912300000000     0.030270000000     0.868020000000     0          
C        C      0.922070000000     0.049620000000     0.858140000000     0          
C        C      0.913700000000     0.057630000000     0.837800000000     0          
H        H      0.900800000000     0.051600000000     0.831500000000     0          
C        C      0.880600000000     0.092500000000     0.761000000000     0          
H        H      0.873000000000     0.081600000000     0.768900000000     0          
C        C      0.872200000000     0.100800000000     0.740000000000     0          
H        H      0.859300000000     0.094700000000     0.733900000000     0          
O        O      0.919180000000     0.523170000000     0.386760000000     0          
O        O      0.893150000000     0.523120000000     0.360150000000     0          
C        C      0.912300000000     0.530270000000     0.368020000000     0          
C        C      0.922070000000     0.549620000000     0.358140000000     0          
C        C      0.913700000000     0.557630000000     0.337800000000     0          
H        H      0.900800000000     0.551600000000     0.331500000000     0          
C        C      0.880600000000     0.592500000000     0.261000000000     0          
H        H      0.873000000000     0.581600000000     0.268900000000     0          
C        C      0.872200000000     0.600800000000     0.240000000000     0          
H        H      0.859300000000     0.594700000000     0.233900000000     0          
O        O      0.419180000000     0.023170000000     0.386760000000     0          
O        O      0.393150000000     0.023120000000     0.360150000000     0          
C        C      0.412300000000     0.030270000000     0.368020000000     0          
C        C      0.422070000000     0.049620000000     0.358140000000     0          
C        C      0.413700000000     0.057630000000     0.337800000000     0          
H        H      0.400800000000     0.051600000000     0.331500000000     0          
C        C      0.380600000000     0.092500000000     0.261000000000     0          
H        H      0.373000000000     0.081600000000     0.268900000000     0          
C        C      0.372200000000     0.100800000000     0.240000000000     0          
H        H      0.359300000000     0.094700000000     0.233900000000     0          
O        O      0.419180000000     0.523170000000     0.886760000000     0          
O        O      0.393150000000     0.523120000000     0.860150000000     0          
C        C      0.412300000000     0.530270000000     0.868020000000     0          
C        C      0.422070000000     0.549620000000     0.858140000000     0          
C        C      0.413700000000     0.557630000000     0.837800000000     0          
H        H      0.400800000000     0.551600000000     0.831500000000     0          
C        C      0.380600000000     0.592500000000     0.761000000000     0          
H        H      0.373000000000     0.581600000000     0.768900000000     0          
C        C      0.372200000000     0.600800000000     0.740000000000     0          
H        H      0.359300000000     0.594700000000     0.733900000000     0          
O        O      0.080820000000     0.976830000000     0.886760000000     0          
O        O      0.106850000000     0.976880000000     0.860150000000     0          
C        C      0.087700000000     0.969730000000     0.868020000000     0          
C        C      0.077930000000     0.950380000000     0.858140000000     0          
C        C      0.086300000000     0.942370000000     0.837800000000     0          
H        H      0.099200000000     0.948400000000     0.831500000000     0          
C        C      0.119400000000     0.907500000000     0.761000000000     0          
H        H      0.127000000000     0.918400000000     0.768900000000     0          
C        C      0.127800000000     0.899200000000     0.740000000000     0          
H        H      0.140700000000     0.905300000000     0.733900000000     0          
O        O      0.080820000000     0.476830000000     0.386760000000     0          
O        O      0.106850000000     0.476880000000     0.360150000000     0          
C        C      0.087700000000     0.469730000000     0.368020000000     0          
C        C      0.077930000000     0.450380000000     0.358140000000     0          
C        C      0.086300000000     0.442370000000     0.337800000000     0          
H        H      0.099200000000     0.448400000000     0.331500000000     0          
C        C      0.119400000000     0.407500000000     0.261000000000     0          
H        H      0.127000000000     0.418400000000     0.268900000000     0          
C        C      0.127800000000     0.399200000000     0.240000000000     0          
H        H      0.140700000000     0.405300000000     0.233900000000     0          
O        O      0.580820000000     0.976830000000     0.386760000000     0          
O        O      0.606850000000     0.976880000000     0.360150000000     0          
C        C      0.587700000000     0.969730000000     0.368020000000     0          
C        C      0.577930000000     0.950380000000     0.358140000000     0          
C        C      0.586300000000     0.942370000000     0.337800000000     0          
H        H      0.599200000000     0.948400000000     0.331500000000     0          
C        C      0.619400000000     0.907500000000     0.261000000000     0          
H        H      0.627000000000     0.918400000000     0.268900000000     0          
C        C      0.627800000000     0.899200000000     0.240000000000     0          
H        H      0.640700000000     0.905300000000     0.233900000000     0          
O        O      0.580820000000     0.476830000000     0.886760000000     0          
O        O      0.606850000000     0.476880000000     0.860150000000     0          
C        C      0.587700000000     0.469730000000     0.868020000000     0          
C        C      0.577930000000     0.450380000000     0.858140000000     0          
C        C      0.586300000000     0.442370000000     0.837800000000     0          
H        H      0.599200000000     0.448400000000     0.831500000000     0          
C        C      0.619400000000     0.407500000000     0.761000000000     0          
H        H      0.627000000000     0.418400000000     0.768900000000     0          
C        C      0.627800000000     0.399200000000     0.740000000000     0          
H        H      0.640700000000     0.405300000000     0.733900000000     0          
O        O      0.976830000000     0.886760000000     0.080820000000     0          
O        O      0.976880000000     0.860150000000     0.106850000000     0          
C        C      0.969730000000     0.868020000000     0.087700000000     0          
C        C      0.950380000000     0.858140000000     0.077930000000     0          
C        C      0.942370000000     0.837800000000     0.086300000000     0          
H        H      0.948400000000     0.831500000000     0.099200000000     0          
C        C      0.907500000000     0.761000000000     0.119400000000     0          
H        H      0.918400000000     0.768900000000     0.127000000000     0          
C        C      0.899200000000     0.740000000000     0.127800000000     0          
H        H      0.905300000000     0.733900000000     0.140700000000     0          
O        O      0.976830000000     0.386760000000     0.580820000000     0          
O        O      0.976880000000     0.360150000000     0.606850000000     0          
C        C      0.969730000000     0.368020000000     0.587700000000     0          
C        C      0.950380000000     0.358140000000     0.577930000000     0          
C        C      0.942370000000     0.337800000000     0.586300000000     0          
H        H      0.948400000000     0.331500000000     0.599200000000     0          
C        C      0.907500000000     0.261000000000     0.619400000000     0          
H        H      0.918400000000     0.268900000000     0.627000000000     0          
C        C      0.899200000000     0.240000000000     0.627800000000     0          
H        H      0.905300000000     0.233900000000     0.640700000000     0          
O        O      0.476830000000     0.886760000000     0.580820000000     0          
O        O      0.476880000000     0.860150000000     0.606850000000     0          
C        C      0.469730000000     0.868020000000     0.587700000000     0          
C        C      0.450380000000     0.858140000000     0.577930000000     0          
C        C      0.442370000000     0.837800000000     0.586300000000     0          
H        H      0.448400000000     0.831500000000     0.599200000000     0          
C        C      0.407500000000     0.761000000000     0.619400000000     0          
H        H      0.418400000000     0.768900000000     0.627000000000     0          
C        C      0.399200000000     0.740000000000     0.627800000000     0          
H        H      0.405300000000     0.733900000000     0.640700000000     0          
O        O      0.476830000000     0.386760000000     0.080820000000     0          
O        O      0.476880000000     0.360150000000     0.106850000000     0          
C        C      0.469730000000     0.368020000000     0.087700000000     0          
C        C      0.450380000000     0.358140000000     0.077930000000     0          
C        C      0.442370000000     0.337800000000     0.086300000000     0          
H        H      0.448400000000     0.331500000000     0.099200000000     0          
C        C      0.407500000000     0.261000000000     0.119400000000     0          
H        H      0.418400000000     0.268900000000     0.127000000000     0          
C        C      0.399200000000     0.240000000000     0.127800000000     0          
H        H      0.405300000000     0.233900000000     0.140700000000     0          
O        O      0.023170000000     0.886760000000     0.919180000000     0          
O        O      0.023120000000     0.860150000000     0.893150000000     0          
C        C      0.030270000000     0.868020000000     0.912300000000     0          
C        C      0.049620000000     0.858140000000     0.922070000000     0          
C        C      0.057630000000     0.837800000000     0.913700000000     0          
H        H      0.051600000000     0.831500000000     0.900800000000     0          
C        C      0.092500000000     0.761000000000     0.880600000000     0          
H        H      0.081600000000     0.768900000000     0.873000000000     0          
C        C      0.100800000000     0.740000000000     0.872200000000     0          
H        H      0.094700000000     0.733900000000     0.859300000000     0          
O        O      0.023170000000     0.386760000000     0.419180000000     0          
O        O      0.023120000000     0.360150000000     0.393150000000     0          
C        C      0.030270000000     0.368020000000     0.412300000000     0          
C        C      0.049620000000     0.358140000000     0.422070000000     0          
C        C      0.057630000000     0.337800000000     0.413700000000     0          
H        H      0.051600000000     0.331500000000     0.400800000000     0          
C        C      0.092500000000     0.261000000000     0.380600000000     0          
H        H      0.081600000000     0.268900000000     0.373000000000     0          
C        C      0.100800000000     0.240000000000     0.372200000000     0          
H        H      0.094700000000     0.233900000000     0.359300000000     0          
O        O      0.523170000000     0.886760000000     0.419180000000     0          
O        O      0.523120000000     0.860150000000     0.393150000000     0          
C        C      0.530270000000     0.868020000000     0.412300000000     0          
C        C      0.549620000000     0.858140000000     0.422070000000     0          
C        C      0.557630000000     0.837800000000     0.413700000000     0          
H        H      0.551600000000     0.831500000000     0.400800000000     0          
C        C      0.592500000000     0.761000000000     0.380600000000     0          
H        H      0.581600000000     0.768900000000     0.373000000000     0          
C        C      0.600800000000     0.740000000000     0.372200000000     0          
H        H      0.594700000000     0.733900000000     0.359300000000     0          
O        O      0.523170000000     0.386760000000     0.919180000000     0          
O        O      0.523120000000     0.360150000000     0.893150000000     0          
C        C      0.530270000000     0.368020000000     0.912300000000     0          
C        C      0.549620000000     0.358140000000     0.922070000000     0          
C        C      0.557630000000     0.337800000000     0.913700000000     0          
H        H      0.551600000000     0.331500000000     0.900800000000     0          
C        C      0.592500000000     0.261000000000     0.880600000000     0          
H        H      0.581600000000     0.268900000000     0.873000000000     0          
C        C      0.600800000000     0.240000000000     0.872200000000     0          
H        H      0.594700000000     0.233900000000     0.859300000000     0          
O        O      0.023170000000     0.113240000000     0.080820000000     0          
O        O      0.023120000000     0.139850000000     0.106850000000     0          
C        C      0.030270000000     0.131980000000     0.087700000000     0          
C        C      0.049620000000     0.141860000000     0.077930000000     0          
C        C      0.057630000000     0.162200000000     0.086300000000     0          
H        H      0.051600000000     0.168500000000     0.099200000000     0          
C        C      0.092500000000     0.239000000000     0.119400000000     0          
H        H      0.081600000000     0.231100000000     0.127000000000     0          
C        C      0.100800000000     0.260000000000     0.127800000000     0          
H        H      0.094700000000     0.266100000000     0.140700000000     0          
O        O      0.023170000000     0.613240000000     0.580820000000     0          
O        O      0.023120000000     0.639850000000     0.606850000000     0          
C        C      0.030270000000     0.631980000000     0.587700000000     0          
C        C      0.049620000000     0.641860000000     0.577930000000     0          
C        C      0.057630000000     0.662200000000     0.586300000000     0          
H        H      0.051600000000     0.668500000000     0.599200000000     0          
C        C      0.092500000000     0.739000000000     0.619400000000     0          
H        H      0.081600000000     0.731100000000     0.627000000000     0          
C        C      0.100800000000     0.760000000000     0.627800000000     0          
H        H      0.094700000000     0.766100000000     0.640700000000     0          
O        O      0.523170000000     0.113240000000     0.580820000000     0          
O        O      0.523120000000     0.139850000000     0.606850000000     0          
C        C      0.530270000000     0.131980000000     0.587700000000     0          
C        C      0.549620000000     0.141860000000     0.577930000000     0          
C        C      0.557630000000     0.162200000000     0.586300000000     0          
H        H      0.551600000000     0.168500000000     0.599200000000     0          
C        C      0.592500000000     0.239000000000     0.619400000000     0          
H        H      0.581600000000     0.231100000000     0.627000000000     0          
C        C      0.600800000000     0.260000000000     0.627800000000     0          
H        H      0.594700000000     0.266100000000     0.640700000000     0          
O        O      0.523170000000     0.613240000000     0.080820000000     0          
O        O      0.523120000000     0.639850000000     0.106850000000     0          
C        C      0.530270000000     0.631980000000     0.087700000000     0          
C        C      0.549620000000     0.641860000000     0.077930000000     0          
C        C      0.557630000000     0.662200000000     0.086300000000     0          
H        H      0.551600000000     0.668500000000     0.099200000000     0          
C        C      0.592500000000     0.739000000000     0.119400000000     0          
H        H      0.581600000000     0.731100000000     0.127000000000     0          
C        C      0.600800000000     0.760000000000     0.127800000000     0          
H        H      0.594700000000     0.766100000000     0.140700000000     0          
O        O      0.976830000000     0.113240000000     0.919180000000     0          
O        O      0.976880000000     0.139850000000     0.893150000000     0          
C        C      0.969730000000     0.131980000000     0.912300000000     0          
C        C      0.950380000000     0.141860000000     0.922070000000     0          
C        C      0.942370000000     0.162200000000     0.913700000000     0          
H        H      0.948400000000     0.168500000000     0.900800000000     0          
C        C      0.907500000000     0.239000000000     0.880600000000     0          
H        H      0.918400000000     0.231100000000     0.873000000000     0          
C        C      0.899200000000     0.260000000000     0.872200000000     0          
H        H      0.905300000000     0.266100000000     0.859300000000     0          
O        O      0.976830000000     0.613240000000     0.419180000000     0          
O        O      0.976880000000     0.639850000000     0.393150000000     0          
C        C      0.969730000000     0.631980000000     0.412300000000     0          
C        C      0.950380000000     0.641860000000     0.422070000000     0          
C        C      0.942370000000     0.662200000000     0.413700000000     0          
H        H      0.948400000000     0.668500000000     0.400800000000     0          
C        C      0.907500000000     0.739000000000     0.380600000000     0          
H        H      0.918400000000     0.731100000000     0.373000000000     0          
C        C      0.899200000000     0.760000000000     0.372200000000     0          
H        H      0.905300000000     0.766100000000     0.359300000000     0          
O        O      0.476830000000     0.113240000000     0.419180000000     0          
O        O      0.476880000000     0.139850000000     0.393150000000     0          
C        C      0.469730000000     0.131980000000     0.412300000000     0          
C        C      0.450380000000     0.141860000000     0.422070000000     0          
C        C      0.442370000000     0.162200000000     0.413700000000     0          
H        H      0.448400000000     0.168500000000     0.400800000000     0          
C        C      0.407500000000     0.239000000000     0.380600000000     0          
H        H      0.418400000000     0.231100000000     0.373000000000     0          
C        C      0.399200000000     0.260000000000     0.372200000000     0          
H        H      0.405300000000     0.266100000000     0.359300000000     0          
O        O      0.476830000000     0.613240000000     0.919180000000     0          
O        O      0.476880000000     0.639850000000     0.893150000000     0          
C        C      0.469730000000     0.631980000000     0.912300000000     0          
C        C      0.450380000000     0.641860000000     0.922070000000     0          
C        C      0.442370000000     0.662200000000     0.913700000000     0          
H        H      0.448400000000     0.668500000000     0.900800000000     0          
C        C      0.407500000000     0.739000000000     0.880600000000     0          
H        H      0.418400000000     0.731100000000     0.873000000000     0          
C        C      0.399200000000     0.760000000000     0.872200000000     0          
H        H      0.405300000000     0.766100000000     0.859300000000     0          
O        O      0.886760000000     0.919180000000     0.023170000000     0          
O        O      0.860150000000     0.893150000000     0.023120000000     0          
C        C      0.868020000000     0.912300000000     0.030270000000     0          
C        C      0.858140000000     0.922070000000     0.049620000000     0          
C        C      0.837800000000     0.913700000000     0.057630000000     0          
H        H      0.831500000000     0.900800000000     0.051600000000     0          
C        C      0.761000000000     0.880600000000     0.092500000000     0          
H        H      0.768900000000     0.873000000000     0.081600000000     0          
C        C      0.740000000000     0.872200000000     0.100800000000     0          
H        H      0.733900000000     0.859300000000     0.094700000000     0          
O        O      0.886760000000     0.419180000000     0.523170000000     0          
O        O      0.860150000000     0.393150000000     0.523120000000     0          
C        C      0.868020000000     0.412300000000     0.530270000000     0          
C        C      0.858140000000     0.422070000000     0.549620000000     0          
C        C      0.837800000000     0.413700000000     0.557630000000     0          
H        H      0.831500000000     0.400800000000     0.551600000000     0          
C        C      0.761000000000     0.380600000000     0.592500000000     0          
H        H      0.768900000000     0.373000000000     0.581600000000     0          
C        C      0.740000000000     0.372200000000     0.600800000000     0          
H        H      0.733900000000     0.359300000000     0.594700000000     0          
O        O      0.386760000000     0.919180000000     0.523170000000     0          
O        O      0.360150000000     0.893150000000     0.523120000000     0          
C        C      0.368020000000     0.912300000000     0.530270000000     0          
C        C      0.358140000000     0.922070000000     0.549620000000     0          
C        C      0.337800000000     0.913700000000     0.557630000000     0          
H        H      0.331500000000     0.900800000000     0.551600000000     0          
C        C      0.261000000000     0.880600000000     0.592500000000     0          
H        H      0.268900000000     0.873000000000     0.581600000000     0          
C        C      0.240000000000     0.872200000000     0.600800000000     0          
H        H      0.233900000000     0.859300000000     0.594700000000     0          
O        O      0.386760000000     0.419180000000     0.023170000000     0          
O        O      0.360150000000     0.393150000000     0.023120000000     0          
C        C      0.368020000000     0.412300000000     0.030270000000     0          
C        C      0.358140000000     0.422070000000     0.049620000000     0          
C        C      0.337800000000     0.413700000000     0.057630000000     0          
H        H      0.331500000000     0.400800000000     0.051600000000     0          
C        C      0.261000000000     0.380600000000     0.092500000000     0          
H        H      0.268900000000     0.373000000000     0.081600000000     0          
C        C      0.240000000000     0.372200000000     0.100800000000     0          
H        H      0.233900000000     0.359300000000     0.094700000000     0          
O        O      0.886760000000     0.080820000000     0.976830000000     0          
O        O      0.860150000000     0.106850000000     0.976880000000     0          
C        C      0.868020000000     0.087700000000     0.969730000000     0          
C        C      0.858140000000     0.077930000000     0.950380000000     0          
C        C      0.837800000000     0.086300000000     0.942370000000     0          
H        H      0.831500000000     0.099200000000     0.948400000000     0          
C        C      0.761000000000     0.119400000000     0.907500000000     0          
H        H      0.768900000000     0.127000000000     0.918400000000     0          
C        C      0.740000000000     0.127800000000     0.899200000000     0          
H        H      0.733900000000     0.140700000000     0.905300000000     0          
O        O      0.886760000000     0.580820000000     0.476830000000     0          
O        O      0.860150000000     0.606850000000     0.476880000000     0          
C        C      0.868020000000     0.587700000000     0.469730000000     0          
C        C      0.858140000000     0.577930000000     0.450380000000     0          
C        C      0.837800000000     0.586300000000     0.442370000000     0          
H        H      0.831500000000     0.599200000000     0.448400000000     0          
C        C      0.761000000000     0.619400000000     0.407500000000     0          
H        H      0.768900000000     0.627000000000     0.418400000000     0          
C        C      0.740000000000     0.627800000000     0.399200000000     0          
H        H      0.733900000000     0.640700000000     0.405300000000     0          
O        O      0.386760000000     0.080820000000     0.476830000000     0          
O        O      0.360150000000     0.106850000000     0.476880000000     0          
C        C      0.368020000000     0.087700000000     0.469730000000     0          
C        C      0.358140000000     0.077930000000     0.450380000000     0          
C        C      0.337800000000     0.086300000000     0.442370000000     0          
H        H      0.331500000000     0.099200000000     0.448400000000     0          
C        C      0.261000000000     0.119400000000     0.407500000000     0          
H        H      0.268900000000     0.127000000000     0.418400000000     0          
C        C      0.240000000000     0.127800000000     0.399200000000     0          
H        H      0.233900000000     0.140700000000     0.405300000000     0          
O        O      0.386760000000     0.580820000000     0.976830000000     0          
O        O      0.360150000000     0.606850000000     0.976880000000     0          
C        C      0.368020000000     0.587700000000     0.969730000000     0          
C        C      0.358140000000     0.577930000000     0.950380000000     0          
C        C      0.337800000000     0.586300000000     0.942370000000     0          
H        H      0.331500000000     0.599200000000     0.948400000000     0          
C        C      0.261000000000     0.619400000000     0.907500000000     0          
H        H      0.268900000000     0.627000000000     0.918400000000     0          
C        C      0.240000000000     0.627800000000     0.899200000000     0          
H        H      0.233900000000     0.640700000000     0.905300000000     0          
O        O      0.113240000000     0.919180000000     0.976830000000     0          
O        O      0.139850000000     0.893150000000     0.976880000000     0          
C        C      0.131980000000     0.912300000000     0.969730000000     0          
C        C      0.141860000000     0.922070000000     0.950380000000     0          
C        C      0.162200000000     0.913700000000     0.942370000000     0          
H        H      0.168500000000     0.900800000000     0.948400000000     0          
C        C      0.239000000000     0.880600000000     0.907500000000     0          
H        H      0.231100000000     0.873000000000     0.918400000000     0          
C        C      0.260000000000     0.872200000000     0.899200000000     0          
H        H      0.266100000000     0.859300000000     0.905300000000     0          
O        O      0.113240000000     0.419180000000     0.476830000000     0          
O        O      0.139850000000     0.393150000000     0.476880000000     0          
C        C      0.131980000000     0.412300000000     0.469730000000     0          
C        C      0.141860000000     0.422070000000     0.450380000000     0          
C        C      0.162200000000     0.413700000000     0.442370000000     0          
H        H      0.168500000000     0.400800000000     0.448400000000     0          
C        C      0.239000000000     0.380600000000     0.407500000000     0          
H        H      0.231100000000     0.373000000000     0.418400000000     0          
C        C      0.260000000000     0.372200000000     0.399200000000     0          
H        H      0.266100000000     0.359300000000     0.405300000000     0          
O        O      0.613240000000     0.919180000000     0.476830000000     0          
O        O      0.639850000000     0.893150000000     0.476880000000     0          
C        C      0.631980000000     0.912300000000     0.469730000000     0          
C        C      0.641860000000     0.922070000000     0.450380000000     0          
C        C      0.662200000000     0.913700000000     0.442370000000     0          
H        H      0.668500000000     0.900800000000     0.448400000000     0          
C        C      0.739000000000     0.880600000000     0.407500000000     0          
H        H      0.731100000000     0.873000000000     0.418400000000     0          
C        C      0.760000000000     0.872200000000     0.399200000000     0          
H        H      0.766100000000     0.859300000000     0.405300000000     0          
O        O      0.613240000000     0.419180000000     0.976830000000     0          
O        O      0.639850000000     0.393150000000     0.976880000000     0          
C        C      0.631980000000     0.412300000000     0.969730000000     0          
C        C      0.641860000000     0.422070000000     0.950380000000     0          
C        C      0.662200000000     0.413700000000     0.942370000000     0          
H        H      0.668500000000     0.400800000000     0.948400000000     0          
C        C      0.739000000000     0.380600000000     0.907500000000     0          
H        H      0.731100000000     0.373000000000     0.918400000000     0          
C        C      0.760000000000     0.372200000000     0.899200000000     0          
H        H      0.766100000000     0.359300000000     0.905300000000     0          
O        O      0.113240000000     0.080820000000     0.023170000000     0          
O        O      0.139850000000     0.106850000000     0.023120000000     0          
C        C      0.131980000000     0.087700000000     0.030270000000     0          
C        C      0.141860000000     0.077930000000     0.049620000000     0          
C        C      0.162200000000     0.086300000000     0.057630000000     0          
H        H      0.168500000000     0.099200000000     0.051600000000     0          
C        C      0.239000000000     0.119400000000     0.092500000000     0          
H        H      0.231100000000     0.127000000000     0.081600000000     0          
C        C      0.260000000000     0.127800000000     0.100800000000     0          
H        H      0.266100000000     0.140700000000     0.094700000000     0          
O        O      0.113240000000     0.580820000000     0.523170000000     0          
O        O      0.139850000000     0.606850000000     0.523120000000     0          
C        C      0.131980000000     0.587700000000     0.530270000000     0          
C        C      0.141860000000     0.577930000000     0.549620000000     0          
C        C      0.162200000000     0.586300000000     0.557630000000     0          
H        H      0.168500000000     0.599200000000     0.551600000000     0          
C        C      0.239000000000     0.619400000000     0.592500000000     0          
H        H      0.231100000000     0.627000000000     0.581600000000     0          
C        C      0.260000000000     0.627800000000     0.600800000000     0          
H        H      0.266100000000     0.640700000000     0.594700000000     0          
O        O      0.613240000000     0.080820000000     0.523170000000     0          
O        O      0.639850000000     0.106850000000     0.523120000000     0          
C        C      0.631980000000     0.087700000000     0.530270000000     0          
C        C      0.641860000000     0.077930000000     0.549620000000     0          
C        C      0.662200000000     0.086300000000     0.557630000000     0          
H        H      0.668500000000     0.099200000000     0.551600000000     0          
C        C      0.739000000000     0.119400000000     0.592500000000     0          
H        H      0.731100000000     0.127000000000     0.581600000000     0          
C        C      0.760000000000     0.127800000000     0.600800000000     0          
H        H      0.766100000000     0.140700000000     0.594700000000     0          
O        O      0.613240000000     0.580820000000     0.023170000000     0          
O        O      0.639850000000     0.606850000000     0.023120000000     0          
C        C      0.631980000000     0.587700000000     0.030270000000     0          
C        C      0.641860000000     0.577930000000     0.049620000000     0          
C        C      0.662200000000     0.586300000000     0.057630000000     0          
H        H      0.668500000000     0.599200000000     0.051600000000     0          
C        C      0.739000000000     0.619400000000     0.092500000000     0          
H        H      0.731100000000     0.627000000000     0.081600000000     0          
C        C      0.760000000000     0.627800000000     0.100800000000     0          
H        H      0.766100000000     0.640700000000     0.094700000000     0          
Cu       Cu     0.000000000000     0.094620000000     0.094620000000     0          
Cu       Cu     0.000000000000     0.126040000000     0.126040000000     0          
Cu       Cu     0.000000000000     0.594620000000     0.594620000000     0          
Cu       Cu     0.000000000000     0.626040000000     0.626040000000     0          
Cu       Cu     0.500000000000     0.094620000000     0.594620000000     0          
Cu       Cu     0.500000000000     0.126040000000     0.626040000000     0          
Cu       Cu     0.500000000000     0.594620000000     0.094620000000     0          
Cu       Cu     0.500000000000     0.626040000000     0.126040000000     0          
Cu       Cu     0.000000000000     0.905380000000     0.094620000000     0          
Cu       Cu     0.000000000000     0.873960000000     0.126040000000     0          
Cu       Cu     0.000000000000     0.405380000000     0.594620000000     0          
Cu       Cu     0.000000000000     0.373960000000     0.626040000000     0          
Cu       Cu     0.500000000000     0.905380000000     0.594620000000     0          
Cu       Cu     0.500000000000     0.873960000000     0.626040000000     0          
Cu       Cu     0.500000000000     0.405380000000     0.094620000000     0          
Cu       Cu     0.500000000000     0.373960000000     0.126040000000     0          
Cu       Cu     0.000000000000     0.094620000000     0.905380000000     0          
Cu       Cu     0.000000000000     0.126040000000     0.873960000000     0          
Cu       Cu     0.000000000000     0.594620000000     0.405380000000     0          
Cu       Cu     0.000000000000     0.626040000000     0.373960000000     0          
Cu       Cu     0.500000000000     0.094620000000     0.405380000000     0          
Cu       Cu     0.500000000000     0.126040000000     0.373960000000     0          
Cu       Cu     0.500000000000     0.594620000000     0.905380000000     0          
Cu       Cu     0.500000000000     0.626040000000     0.873960000000     0          
Cu       Cu     0.000000000000     0.905380000000     0.905380000000     0          
Cu       Cu     0.000000000000     0.873960000000     0.873960000000     0          
Cu       Cu     0.000000000000     0.405380000000     0.405380000000     0          
Cu       Cu     0.000000000000     0.373960000000     0.373960000000     0          
Cu       Cu     0.500000000000     0.905380000000     0.405380000000     0          
Cu       Cu     0.500000000000     0.873960000000     0.373960000000     0          
Cu       Cu     0.500000000000     0.405380000000     0.905380000000     0          
Cu       Cu     0.500000000000     0.373960000000     0.873960000000     0          
Cu       Cu     0.094620000000     0.000000000000     0.094620000000     0          
Cu       Cu     0.126040000000     0.000000000000     0.126040000000     0          
Cu       Cu     0.094620000000     0.500000000000     0.594620000000     0          
Cu       Cu     0.126040000000     0.500000000000     0.626040000000     0          
Cu       Cu     0.594620000000     0.000000000000     0.594620000000     0          
Cu       Cu     0.626040000000     0.000000000000     0.626040000000     0          
Cu       Cu     0.594620000000     0.500000000000     0.094620000000     0          
Cu       Cu     0.626040000000     0.500000000000     0.126040000000     0          
Cu       Cu     0.094620000000     0.000000000000     0.905380000000     0          
Cu       Cu     0.126040000000     0.000000000000     0.873960000000     0          
Cu       Cu     0.094620000000     0.500000000000     0.405380000000     0          
Cu       Cu     0.126040000000     0.500000000000     0.373960000000     0          
Cu       Cu     0.594620000000     0.000000000000     0.405380000000     0          
Cu       Cu     0.626040000000     0.000000000000     0.373960000000     0          
Cu       Cu     0.594620000000     0.500000000000     0.905380000000     0          
Cu       Cu     0.626040000000     0.500000000000     0.873960000000     0          
Cu       Cu     0.905380000000     0.000000000000     0.094620000000     0          
Cu       Cu     0.873960000000     0.000000000000     0.126040000000     0          
Cu       Cu     0.905380000000     0.500000000000     0.594620000000     0          
Cu       Cu     0.873960000000     0.500000000000     0.626040000000     0          
Cu       Cu     0.405380000000     0.000000000000     0.594620000000     0          
Cu       Cu     0.373960000000     0.000000000000     0.626040000000     0          
Cu       Cu     0.405380000000     0.500000000000     0.094620000000     0          
Cu       Cu     0.373960000000     0.500000000000     0.126040000000     0          
Cu       Cu     0.905380000000     0.000000000000     0.905380000000     0          
Cu       Cu     0.873960000000     0.000000000000     0.873960000000     0          
Cu       Cu     0.905380000000     0.500000000000     0.405380000000     0          
Cu       Cu     0.873960000000     0.500000000000     0.373960000000     0          
Cu       Cu     0.405380000000     0.000000000000     0.405380000000     0          
Cu       Cu     0.373960000000     0.000000000000     0.373960000000     0          
Cu       Cu     0.405380000000     0.500000000000     0.905380000000     0          
Cu       Cu     0.373960000000     0.500000000000     0.873960000000     0          
Cu       Cu     0.094620000000     0.094620000000     0.000000000000     0          
Cu       Cu     0.126040000000     0.126040000000     0.000000000000     0          
Cu       Cu     0.094620000000     0.594620000000     0.500000000000     0          
Cu       Cu     0.126040000000     0.626040000000     0.500000000000     0          
Cu       Cu     0.594620000000     0.094620000000     0.500000000000     0          
Cu       Cu     0.626040000000     0.126040000000     0.500000000000     0          
Cu       Cu     0.594620000000     0.594620000000     0.000000000000     0          
Cu       Cu     0.626040000000     0.626040000000     0.000000000000     0          
Cu       Cu     0.905380000000     0.094620000000     0.000000000000     0          
Cu       Cu     0.873960000000     0.126040000000     0.000000000000     0          
Cu       Cu     0.905380000000     0.594620000000     0.500000000000     0          
Cu       Cu     0.873960000000     0.626040000000     0.500000000000     0          
Cu       Cu     0.405380000000     0.094620000000     0.500000000000     0          
Cu       Cu     0.373960000000     0.126040000000     0.500000000000     0          
Cu       Cu     0.405380000000     0.594620000000     0.000000000000     0          
Cu       Cu     0.373960000000     0.626040000000     0.000000000000     0          
Cu       Cu     0.094620000000     0.905380000000     0.000000000000     0          
Cu       Cu     0.126040000000     0.873960000000     0.000000000000     0          
Cu       Cu     0.094620000000     0.405380000000     0.500000000000     0          
Cu       Cu     0.126040000000     0.373960000000     0.500000000000     0          
Cu       Cu     0.594620000000     0.905380000000     0.500000000000     0          
Cu       Cu     0.626040000000     0.873960000000     0.500000000000     0          
Cu       Cu     0.594620000000     0.405380000000     0.000000000000     0          
Cu       Cu     0.626040000000     0.373960000000     0.000000000000     0          
Cu       Cu     0.905380000000     0.905380000000     0.000000000000     0          
Cu       Cu     0.873960000000     0.873960000000     0.000000000000     0          
Cu       Cu     0.905380000000     0.405380000000     0.500000000000     0          
Cu       Cu     0.873960000000     0.373960000000     0.500000000000     0          
Cu       Cu     0.405380000000     0.905380000000     0.500000000000     0          
Cu       Cu     0.373960000000     0.873960000000     0.500000000000     0          
Cu       Cu     0.405380000000     0.405380000000     0.000000000000     0          
Cu       Cu     0.373960000000     0.373960000000     0.000000000000     0          
C        C      0.059760000000     0.059760000000     0.133000000000     0          
H        H      0.053800000000     0.053800000000     0.120000000000     0          
C        C      0.074790000000     0.074790000000     0.172700000000     0          
C        C      0.084110000000     0.084110000000     0.193700000000     0          
C        C      0.091520000000     0.091520000000     0.210400000000     0          
C        C      0.100900000000     0.100900000000     0.231600000000     0          
C        C      0.117120000000     0.117120000000     0.270900000000     0          
C        C      0.127000000000     0.127000000000     0.290400000000     0          
C        C      0.135600000000     0.135600000000     0.307700000000     0          
C        C      0.145200000000     0.145200000000     0.326600000000     0          
C        C      0.164000000000     0.164000000000     0.364100000000     0          
H        H      0.170400000000     0.170400000000     0.376700000000     0          
C        C      0.059760000000     0.559760000000     0.633000000000     0          
H        H      0.053800000000     0.553800000000     0.620000000000     0          
C        C      0.074790000000     0.574790000000     0.672700000000     0          
C        C      0.084110000000     0.584110000000     0.693700000000     0          
C        C      0.091520000000     0.591520000000     0.710400000000     0          
C        C      0.100900000000     0.600900000000     0.731600000000     0          
C        C      0.117120000000     0.617120000000     0.770900000000     0          
C        C      0.127000000000     0.627000000000     0.790400000000     0          
C        C      0.135600000000     0.635600000000     0.807700000000     0          
C        C      0.145200000000     0.645200000000     0.826600000000     0          
C        C      0.164000000000     0.664000000000     0.864100000000     0          
H        H      0.170400000000     0.670400000000     0.876700000000     0          
C        C      0.559760000000     0.059760000000     0.633000000000     0          
H        H      0.553800000000     0.053800000000     0.620000000000     0          
C        C      0.574790000000     0.074790000000     0.672700000000     0          
C        C      0.584110000000     0.084110000000     0.693700000000     0          
C        C      0.591520000000     0.091520000000     0.710400000000     0          
C        C      0.600900000000     0.100900000000     0.731600000000     0          
C        C      0.617120000000     0.117120000000     0.770900000000     0          
C        C      0.627000000000     0.127000000000     0.790400000000     0          
C        C      0.635600000000     0.135600000000     0.807700000000     0          
C        C      0.645200000000     0.145200000000     0.826600000000     0          
C        C      0.664000000000     0.164000000000     0.864100000000     0          
H        H      0.670400000000     0.170400000000     0.876700000000     0          
C        C      0.559760000000     0.559760000000     0.133000000000     0          
H        H      0.553800000000     0.553800000000     0.120000000000     0          
C        C      0.574790000000     0.574790000000     0.172700000000     0          
C        C      0.584110000000     0.584110000000     0.193700000000     0          
C        C      0.591520000000     0.591520000000     0.210400000000     0          
C        C      0.600900000000     0.600900000000     0.231600000000     0          
C        C      0.617120000000     0.617120000000     0.270900000000     0          
C        C      0.627000000000     0.627000000000     0.290400000000     0          
C        C      0.635600000000     0.635600000000     0.307700000000     0          
C        C      0.645200000000     0.645200000000     0.326600000000     0          
C        C      0.664000000000     0.664000000000     0.364100000000     0          
H        H      0.670400000000     0.670400000000     0.376700000000     0          
C        C      0.940240000000     0.940240000000     0.133000000000     0          
H        H      0.946200000000     0.946200000000     0.120000000000     0          
C        C      0.925210000000     0.925210000000     0.172700000000     0          
C        C      0.915890000000     0.915890000000     0.193700000000     0          
C        C      0.908480000000     0.908480000000     0.210400000000     0          
C        C      0.899100000000     0.899100000000     0.231600000000     0          
C        C      0.882880000000     0.882880000000     0.270900000000     0          
C        C      0.873000000000     0.873000000000     0.290400000000     0          
C        C      0.864400000000     0.864400000000     0.307700000000     0          
C        C      0.854800000000     0.854800000000     0.326600000000     0          
C        C      0.836000000000     0.836000000000     0.364100000000     0          
H        H      0.829600000000     0.829600000000     0.376700000000     0          
C        C      0.940240000000     0.440240000000     0.633000000000     0          
H        H      0.946200000000     0.446200000000     0.620000000000     0          
C        C      0.925210000000     0.425210000000     0.672700000000     0          
C        C      0.915890000000     0.415890000000     0.693700000000     0          
C        C      0.908480000000     0.408480000000     0.710400000000     0          
C        C      0.899100000000     0.399100000000     0.731600000000     0          
C        C      0.882880000000     0.382880000000     0.770900000000     0          
C        C      0.873000000000     0.373000000000     0.790400000000     0          
C        C      0.864400000000     0.364400000000     0.807700000000     0          
C        C      0.854800000000     0.354800000000     0.826600000000     0          
C        C      0.836000000000     0.336000000000     0.864100000000     0          
H        H      0.829600000000     0.329600000000     0.876700000000     0          
C        C      0.440240000000     0.940240000000     0.633000000000     0          
H        H      0.446200000000     0.946200000000     0.620000000000     0          
C        C      0.425210000000     0.925210000000     0.672700000000     0          
C        C      0.415890000000     0.915890000000     0.693700000000     0          
C        C      0.408480000000     0.908480000000     0.710400000000     0          
C        C      0.399100000000     0.899100000000     0.731600000000     0          
C        C      0.382880000000     0.882880000000     0.770900000000     0          
C        C      0.373000000000     0.873000000000     0.790400000000     0          
C        C      0.364400000000     0.864400000000     0.807700000000     0          
C        C      0.354800000000     0.854800000000     0.826600000000     0          
C        C      0.336000000000     0.836000000000     0.864100000000     0          
H        H      0.329600000000     0.829600000000     0.876700000000     0          
C        C      0.440240000000     0.440240000000     0.133000000000     0          
H        H      0.446200000000     0.446200000000     0.120000000000     0          
C        C      0.425210000000     0.425210000000     0.172700000000     0          
C        C      0.415890000000     0.415890000000     0.193700000000     0          
C        C      0.408480000000     0.408480000000     0.210400000000     0          
C        C      0.399100000000     0.399100000000     0.231600000000     0          
C        C      0.382880000000     0.382880000000     0.270900000000     0          
C        C      0.373000000000     0.373000000000     0.290400000000     0          
C        C      0.364400000000     0.364400000000     0.307700000000     0          
C        C      0.354800000000     0.354800000000     0.326600000000     0          
C        C      0.336000000000     0.336000000000     0.364100000000     0          
H        H      0.329600000000     0.329600000000     0.376700000000     0          
C        C      0.940240000000     0.059760000000     0.867000000000     0          
H        H      0.946200000000     0.053800000000     0.880000000000     0          
C        C      0.925210000000     0.074790000000     0.827300000000     0          
C        C      0.915890000000     0.084110000000     0.806300000000     0          
C        C      0.908480000000     0.091520000000     0.789600000000     0          
C        C      0.899100000000     0.100900000000     0.768400000000     0          
C        C      0.882880000000     0.117120000000     0.729100000000     0          
C        C      0.873000000000     0.127000000000     0.709600000000     0          
C        C      0.864400000000     0.135600000000     0.692300000000     0          
C        C      0.854800000000     0.145200000000     0.673400000000     0          
C        C      0.836000000000     0.164000000000     0.635900000000     0          
H        H      0.829600000000     0.170400000000     0.623300000000     0          
C        C      0.940240000000     0.559760000000     0.367000000000     0          
H        H      0.946200000000     0.553800000000     0.380000000000     0          
C        C      0.925210000000     0.574790000000     0.327300000000     0          
C        C      0.915890000000     0.584110000000     0.306300000000     0          
C        C      0.908480000000     0.591520000000     0.289600000000     0          
C        C      0.899100000000     0.600900000000     0.268400000000     0          
C        C      0.882880000000     0.617120000000     0.229100000000     0          
C        C      0.873000000000     0.627000000000     0.209600000000     0          
C        C      0.864400000000     0.635600000000     0.192300000000     0          
C        C      0.854800000000     0.645200000000     0.173400000000     0          
C        C      0.836000000000     0.664000000000     0.135900000000     0          
H        H      0.829600000000     0.670400000000     0.123300000000     0          
C        C      0.440240000000     0.059760000000     0.367000000000     0          
H        H      0.446200000000     0.053800000000     0.380000000000     0          
C        C      0.425210000000     0.074790000000     0.327300000000     0          
C        C      0.415890000000     0.084110000000     0.306300000000     0          
C        C      0.408480000000     0.091520000000     0.289600000000     0          
C        C      0.399100000000     0.100900000000     0.268400000000     0          
C        C      0.382880000000     0.117120000000     0.229100000000     0          
C        C      0.373000000000     0.127000000000     0.209600000000     0          
C        C      0.364400000000     0.135600000000     0.192300000000     0          
C        C      0.354800000000     0.145200000000     0.173400000000     0          
C        C      0.336000000000     0.164000000000     0.135900000000     0          
H        H      0.329600000000     0.170400000000     0.123300000000     0          
C        C      0.440240000000     0.559760000000     0.867000000000     0          
H        H      0.446200000000     0.553800000000     0.880000000000     0          
C        C      0.425210000000     0.574790000000     0.827300000000     0          
C        C      0.415890000000     0.584110000000     0.806300000000     0          
C        C      0.408480000000     0.591520000000     0.789600000000     0          
C        C      0.399100000000     0.600900000000     0.768400000000     0          
C        C      0.382880000000     0.617120000000     0.729100000000     0          
C        C      0.373000000000     0.627000000000     0.709600000000     0          
C        C      0.364400000000     0.635600000000     0.692300000000     0          
C        C      0.354800000000     0.645200000000     0.673400000000     0          
C        C      0.336000000000     0.664000000000     0.635900000000     0          
H        H      0.329600000000     0.670400000000     0.623300000000     0          
C        C      0.059760000000     0.940240000000     0.867000000000     0          
H        H      0.053800000000     0.946200000000     0.880000000000     0          
C        C      0.074790000000     0.925210000000     0.827300000000     0          
C        C      0.084110000000     0.915890000000     0.806300000000     0          
C        C      0.091520000000     0.908480000000     0.789600000000     0          
C        C      0.100900000000     0.899100000000     0.768400000000     0          
C        C      0.117120000000     0.882880000000     0.729100000000     0          
C        C      0.127000000000     0.873000000000     0.709600000000     0          
C        C      0.135600000000     0.864400000000     0.692300000000     0          
C        C      0.145200000000     0.854800000000     0.673400000000     0          
C        C      0.164000000000     0.836000000000     0.635900000000     0          
H        H      0.170400000000     0.829600000000     0.623300000000     0          
C        C      0.059760000000     0.440240000000     0.367000000000     0          
H        H      0.053800000000     0.446200000000     0.380000000000     0          
C        C      0.074790000000     0.425210000000     0.327300000000     0          
C        C      0.084110000000     0.415890000000     0.306300000000     0          
C        C      0.091520000000     0.408480000000     0.289600000000     0          
C        C      0.100900000000     0.399100000000     0.268400000000     0          
C        C      0.117120000000     0.382880000000     0.229100000000     0          
C        C      0.127000000000     0.373000000000     0.209600000000     0          
C        C      0.135600000000     0.364400000000     0.192300000000     0          
C        C      0.145200000000     0.354800000000     0.173400000000     0          
C        C      0.164000000000     0.336000000000     0.135900000000     0          
H        H      0.170400000000     0.329600000000     0.123300000000     0          
C        C      0.559760000000     0.940240000000     0.367000000000     0          
H        H      0.553800000000     0.946200000000     0.380000000000     0          
C        C      0.574790000000     0.925210000000     0.327300000000     0          
C        C      0.584110000000     0.915890000000     0.306300000000     0          
C        C      0.591520000000     0.908480000000     0.289600000000     0          
C        C      0.600900000000     0.899100000000     0.268400000000     0          
C        C      0.617120000000     0.882880000000     0.229100000000     0          
C        C      0.627000000000     0.873000000000     0.209600000000     0          
C        C      0.635600000000     0.864400000000     0.192300000000     0          
C        C      0.645200000000     0.854800000000     0.173400000000     0          
C        C      0.664000000000     0.836000000000     0.135900000000     0          
H        H      0.670400000000     0.829600000000     0.123300000000     0          
C        C      0.559760000000     0.440240000000     0.867000000000     0          
H        H      0.553800000000     0.446200000000     0.880000000000     0          
C        C      0.574790000000     0.425210000000     0.827300000000     0          
C        C      0.584110000000     0.415890000000     0.806300000000     0          
C        C      0.591520000000     0.408480000000     0.789600000000     0          
C        C      0.600900000000     0.399100000000     0.768400000000     0          
C        C      0.617120000000     0.382880000000     0.729100000000     0          
C        C      0.627000000000     0.373000000000     0.709600000000     0          
C        C      0.635600000000     0.364400000000     0.692300000000     0          
C        C      0.645200000000     0.354800000000     0.673400000000     0          
C        C      0.664000000000     0.336000000000     0.635900000000     0          
H        H      0.670400000000     0.329600000000     0.623300000000     0          
C        C      0.133000000000     0.059760000000     0.059760000000     0          
H        H      0.120000000000     0.053800000000     0.053800000000     0          
C        C      0.172700000000     0.074790000000     0.074790000000     0          
C        C      0.193700000000     0.084110000000     0.084110000000     0          
C        C      0.210400000000     0.091520000000     0.091520000000     0          
C        C      0.231600000000     0.100900000000     0.100900000000     0          
C        C      0.270900000000     0.117120000000     0.117120000000     0          
C        C      0.290400000000     0.127000000000     0.127000000000     0          
C        C      0.307700000000     0.135600000000     0.135600000000     0          
C        C      0.326600000000     0.145200000000     0.145200000000     0          
C        C      0.364100000000     0.164000000000     0.164000000000     0          
H        H      0.376700000000     0.170400000000     0.170400000000     0          
C        C      0.133000000000     0.559760000000     0.559760000000     0          
H        H      0.120000000000     0.553800000000     0.553800000000     0          
C        C      0.172700000000     0.574790000000     0.574790000000     0          
C        C      0.193700000000     0.584110000000     0.584110000000     0          
C        C      0.210400000000     0.591520000000     0.591520000000     0          
C        C      0.231600000000     0.600900000000     0.600900000000     0          
C        C      0.270900000000     0.617120000000     0.617120000000     0          
C        C      0.290400000000     0.627000000000     0.627000000000     0          
C        C      0.307700000000     0.635600000000     0.635600000000     0          
C        C      0.326600000000     0.645200000000     0.645200000000     0          
C        C      0.364100000000     0.664000000000     0.664000000000     0          
H        H      0.376700000000     0.670400000000     0.670400000000     0          
C        C      0.633000000000     0.059760000000     0.559760000000     0          
H        H      0.620000000000     0.053800000000     0.553800000000     0          
C        C      0.672700000000     0.074790000000     0.574790000000     0          
C        C      0.693700000000     0.084110000000     0.584110000000     0          
C        C      0.710400000000     0.091520000000     0.591520000000     0          
C        C      0.731600000000     0.100900000000     0.600900000000     0          
C        C      0.770900000000     0.117120000000     0.617120000000     0          
C        C      0.790400000000     0.127000000000     0.627000000000     0          
C        C      0.807700000000     0.135600000000     0.635600000000     0          
C        C      0.826600000000     0.145200000000     0.645200000000     0          
C        C      0.864100000000     0.164000000000     0.664000000000     0          
H        H      0.876700000000     0.170400000000     0.670400000000     0          
C        C      0.633000000000     0.559760000000     0.059760000000     0          
H        H      0.620000000000     0.553800000000     0.053800000000     0          
C        C      0.672700000000     0.574790000000     0.074790000000     0          
C        C      0.693700000000     0.584110000000     0.084110000000     0          
C        C      0.710400000000     0.591520000000     0.091520000000     0          
C        C      0.731600000000     0.600900000000     0.100900000000     0          
C        C      0.770900000000     0.617120000000     0.117120000000     0          
C        C      0.790400000000     0.627000000000     0.127000000000     0          
C        C      0.807700000000     0.635600000000     0.135600000000     0          
C        C      0.826600000000     0.645200000000     0.145200000000     0          
C        C      0.864100000000     0.664000000000     0.164000000000     0          
H        H      0.876700000000     0.670400000000     0.170400000000     0          
C        C      0.133000000000     0.940240000000     0.940240000000     0          
H        H      0.120000000000     0.946200000000     0.946200000000     0          
C        C      0.172700000000     0.925210000000     0.925210000000     0          
C        C      0.193700000000     0.915890000000     0.915890000000     0          
C        C      0.210400000000     0.908480000000     0.908480000000     0          
C        C      0.231600000000     0.899100000000     0.899100000000     0          
C        C      0.270900000000     0.882880000000     0.882880000000     0          
C        C      0.290400000000     0.873000000000     0.873000000000     0          
C        C      0.307700000000     0.864400000000     0.864400000000     0          
C        C      0.326600000000     0.854800000000     0.854800000000     0          
C        C      0.364100000000     0.836000000000     0.836000000000     0          
H        H      0.376700000000     0.829600000000     0.829600000000     0          
C        C      0.133000000000     0.440240000000     0.440240000000     0          
H        H      0.120000000000     0.446200000000     0.446200000000     0          
C        C      0.172700000000     0.425210000000     0.425210000000     0          
C        C      0.193700000000     0.415890000000     0.415890000000     0          
C        C      0.210400000000     0.408480000000     0.408480000000     0          
C        C      0.231600000000     0.399100000000     0.399100000000     0          
C        C      0.270900000000     0.382880000000     0.382880000000     0          
C        C      0.290400000000     0.373000000000     0.373000000000     0          
C        C      0.307700000000     0.364400000000     0.364400000000     0          
C        C      0.326600000000     0.354800000000     0.354800000000     0          
C        C      0.364100000000     0.336000000000     0.336000000000     0          
H        H      0.376700000000     0.329600000000     0.329600000000     0          
C        C      0.633000000000     0.940240000000     0.440240000000     0          
H        H      0.620000000000     0.946200000000     0.446200000000     0          
C        C      0.672700000000     0.925210000000     0.425210000000     0          
C        C      0.693700000000     0.915890000000     0.415890000000     0          
C        C      0.710400000000     0.908480000000     0.408480000000     0          
C        C      0.731600000000     0.899100000000     0.399100000000     0          
C        C      0.770900000000     0.882880000000     0.382880000000     0          
C        C      0.790400000000     0.873000000000     0.373000000000     0          
C        C      0.807700000000     0.864400000000     0.364400000000     0          
C        C      0.826600000000     0.854800000000     0.354800000000     0          
C        C      0.864100000000     0.836000000000     0.336000000000     0          
H        H      0.876700000000     0.829600000000     0.329600000000     0          
C        C      0.633000000000     0.440240000000     0.940240000000     0          
H        H      0.620000000000     0.446200000000     0.946200000000     0          
C        C      0.672700000000     0.425210000000     0.925210000000     0          
C        C      0.693700000000     0.415890000000     0.915890000000     0          
C        C      0.710400000000     0.408480000000     0.908480000000     0          
C        C      0.731600000000     0.399100000000     0.899100000000     0          
C        C      0.770900000000     0.382880000000     0.882880000000     0          
C        C      0.790400000000     0.373000000000     0.873000000000     0          
C        C      0.807700000000     0.364400000000     0.864400000000     0          
C        C      0.826600000000     0.354800000000     0.854800000000     0          
C        C      0.864100000000     0.336000000000     0.836000000000     0          
H        H      0.876700000000     0.329600000000     0.829600000000     0          
C        C      0.867000000000     0.940240000000     0.059760000000     0          
H        H      0.880000000000     0.946200000000     0.053800000000     0          
C        C      0.827300000000     0.925210000000     0.074790000000     0          
C        C      0.806300000000     0.915890000000     0.084110000000     0          
C        C      0.789600000000     0.908480000000     0.091520000000     0          
C        C      0.768400000000     0.899100000000     0.100900000000     0          
C        C      0.729100000000     0.882880000000     0.117120000000     0          
C        C      0.709600000000     0.873000000000     0.127000000000     0          
C        C      0.692300000000     0.864400000000     0.135600000000     0          
C        C      0.673400000000     0.854800000000     0.145200000000     0          
C        C      0.635900000000     0.836000000000     0.164000000000     0          
H        H      0.623300000000     0.829600000000     0.170400000000     0          
C        C      0.867000000000     0.440240000000     0.559760000000     0          
H        H      0.880000000000     0.446200000000     0.553800000000     0          
C        C      0.827300000000     0.425210000000     0.574790000000     0          
C        C      0.806300000000     0.415890000000     0.584110000000     0          
C        C      0.789600000000     0.408480000000     0.591520000000     0          
C        C      0.768400000000     0.399100000000     0.600900000000     0          
C        C      0.729100000000     0.382880000000     0.617120000000     0          
C        C      0.709600000000     0.373000000000     0.627000000000     0          
C        C      0.692300000000     0.364400000000     0.635600000000     0          
C        C      0.673400000000     0.354800000000     0.645200000000     0          
C        C      0.635900000000     0.336000000000     0.664000000000     0          
H        H      0.623300000000     0.329600000000     0.670400000000     0          
C        C      0.367000000000     0.940240000000     0.559760000000     0          
H        H      0.380000000000     0.946200000000     0.553800000000     0          
C        C      0.327300000000     0.925210000000     0.574790000000     0          
C        C      0.306300000000     0.915890000000     0.584110000000     0          
C        C      0.289600000000     0.908480000000     0.591520000000     0          
C        C      0.268400000000     0.899100000000     0.600900000000     0          
C        C      0.229100000000     0.882880000000     0.617120000000     0          
C        C      0.209600000000     0.873000000000     0.627000000000     0          
C        C      0.192300000000     0.864400000000     0.635600000000     0          
C        C      0.173400000000     0.854800000000     0.645200000000     0          
C        C      0.135900000000     0.836000000000     0.664000000000     0          
H        H      0.123300000000     0.829600000000     0.670400000000     0          
C        C      0.367000000000     0.440240000000     0.059760000000     0          
H        H      0.380000000000     0.446200000000     0.053800000000     0          
C        C      0.327300000000     0.425210000000     0.074790000000     0          
C        C      0.306300000000     0.415890000000     0.084110000000     0          
C        C      0.289600000000     0.408480000000     0.091520000000     0          
C        C      0.268400000000     0.399100000000     0.100900000000     0          
C        C      0.229100000000     0.382880000000     0.117120000000     0          
C        C      0.209600000000     0.373000000000     0.127000000000     0          
C        C      0.192300000000     0.364400000000     0.135600000000     0          
C        C      0.173400000000     0.354800000000     0.145200000000     0          
C        C      0.135900000000     0.336000000000     0.164000000000     0          
H        H      0.123300000000     0.329600000000     0.170400000000     0          
C        C      0.867000000000     0.059760000000     0.940240000000     0          
H        H      0.880000000000     0.053800000000     0.946200000000     0          
C        C      0.827300000000     0.074790000000     0.925210000000     0          
C        C      0.806300000000     0.084110000000     0.915890000000     0          
C        C      0.789600000000     0.091520000000     0.908480000000     0          
C        C      0.768400000000     0.100900000000     0.899100000000     0          
C        C      0.729100000000     0.117120000000     0.882880000000     0          
C        C      0.709600000000     0.127000000000     0.873000000000     0          
C        C      0.692300000000     0.135600000000     0.864400000000     0          
C        C      0.673400000000     0.145200000000     0.854800000000     0          
C        C      0.635900000000     0.164000000000     0.836000000000     0          
H        H      0.623300000000     0.170400000000     0.829600000000     0          
C        C      0.867000000000     0.559760000000     0.440240000000     0          
H        H      0.880000000000     0.553800000000     0.446200000000     0          
C        C      0.827300000000     0.574790000000     0.425210000000     0          
C        C      0.806300000000     0.584110000000     0.415890000000     0          
C        C      0.789600000000     0.591520000000     0.408480000000     0          
C        C      0.768400000000     0.600900000000     0.399100000000     0          
C        C      0.729100000000     0.617120000000     0.382880000000     0          
C        C      0.709600000000     0.627000000000     0.373000000000     0          
C        C      0.692300000000     0.635600000000     0.364400000000     0          
C        C      0.673400000000     0.645200000000     0.354800000000     0          
C        C      0.635900000000     0.664000000000     0.336000000000     0          
H        H      0.623300000000     0.670400000000     0.329600000000     0          
C        C      0.367000000000     0.059760000000     0.440240000000     0          
H        H      0.380000000000     0.053800000000     0.446200000000     0          
C        C      0.327300000000     0.074790000000     0.425210000000     0          
C        C      0.306300000000     0.084110000000     0.415890000000     0          
C        C      0.289600000000     0.091520000000     0.408480000000     0          
C        C      0.268400000000     0.100900000000     0.399100000000     0          
C        C      0.229100000000     0.117120000000     0.382880000000     0          
C        C      0.209600000000     0.127000000000     0.373000000000     0          
C        C      0.192300000000     0.135600000000     0.364400000000     0          
C        C      0.173400000000     0.145200000000     0.354800000000     0          
C        C      0.135900000000     0.164000000000     0.336000000000     0          
H        H      0.123300000000     0.170400000000     0.329600000000     0          
C        C      0.367000000000     0.559760000000     0.940240000000     0          
H        H      0.380000000000     0.553800000000     0.946200000000     0          
C        C      0.327300000000     0.574790000000     0.925210000000     0          
C        C      0.306300000000     0.584110000000     0.915890000000     0          
C        C      0.289600000000     0.591520000000     0.908480000000     0          
C        C      0.268400000000     0.600900000000     0.899100000000     0          
C        C      0.229100000000     0.617120000000     0.882880000000     0          
C        C      0.209600000000     0.627000000000     0.873000000000     0          
C        C      0.192300000000     0.635600000000     0.864400000000     0          
C        C      0.173400000000     0.645200000000     0.854800000000     0          
C        C      0.135900000000     0.664000000000     0.836000000000     0          
H        H      0.123300000000     0.670400000000     0.829600000000     0          
C        C      0.059760000000     0.133000000000     0.059760000000     0          
H        H      0.053800000000     0.120000000000     0.053800000000     0          
C        C      0.074790000000     0.172700000000     0.074790000000     0          
C        C      0.084110000000     0.193700000000     0.084110000000     0          
C        C      0.091520000000     0.210400000000     0.091520000000     0          
C        C      0.100900000000     0.231600000000     0.100900000000     0          
C        C      0.117120000000     0.270900000000     0.117120000000     0          
C        C      0.127000000000     0.290400000000     0.127000000000     0          
C        C      0.135600000000     0.307700000000     0.135600000000     0          
C        C      0.145200000000     0.326600000000     0.145200000000     0          
C        C      0.164000000000     0.364100000000     0.164000000000     0          
H        H      0.170400000000     0.376700000000     0.170400000000     0          
C        C      0.059760000000     0.633000000000     0.559760000000     0          
H        H      0.053800000000     0.620000000000     0.553800000000     0          
C        C      0.074790000000     0.672700000000     0.574790000000     0          
C        C      0.084110000000     0.693700000000     0.584110000000     0          
C        C      0.091520000000     0.710400000000     0.591520000000     0          
C        C      0.100900000000     0.731600000000     0.600900000000     0          
C        C      0.117120000000     0.770900000000     0.617120000000     0          
C        C      0.127000000000     0.790400000000     0.627000000000     0          
C        C      0.135600000000     0.807700000000     0.635600000000     0          
C        C      0.145200000000     0.826600000000     0.645200000000     0          
C        C      0.164000000000     0.864100000000     0.664000000000     0          
H        H      0.170400000000     0.876700000000     0.670400000000     0          
C        C      0.559760000000     0.133000000000     0.559760000000     0          
H        H      0.553800000000     0.120000000000     0.553800000000     0          
C        C      0.574790000000     0.172700000000     0.574790000000     0          
C        C      0.584110000000     0.193700000000     0.584110000000     0          
C        C      0.591520000000     0.210400000000     0.591520000000     0          
C        C      0.600900000000     0.231600000000     0.600900000000     0          
C        C      0.617120000000     0.270900000000     0.617120000000     0          
C        C      0.627000000000     0.290400000000     0.627000000000     0          
C        C      0.635600000000     0.307700000000     0.635600000000     0          
C        C      0.645200000000     0.326600000000     0.645200000000     0          
C        C      0.664000000000     0.364100000000     0.664000000000     0          
H        H      0.670400000000     0.376700000000     0.670400000000     0          
C        C      0.559760000000     0.633000000000     0.059760000000     0          
H        H      0.553800000000     0.620000000000     0.053800000000     0          
C        C      0.574790000000     0.672700000000     0.074790000000     0          
C        C      0.584110000000     0.693700000000     0.084110000000     0          
C        C      0.591520000000     0.710400000000     0.091520000000     0          
C        C      0.600900000000     0.731600000000     0.100900000000     0          
C        C      0.617120000000     0.770900000000     0.117120000000     0          
C        C      0.627000000000     0.790400000000     0.127000000000     0          
C        C      0.635600000000     0.807700000000     0.135600000000     0          
C        C      0.645200000000     0.826600000000     0.145200000000     0          
C        C      0.664000000000     0.864100000000     0.164000000000     0          
H        H      0.670400000000     0.876700000000     0.170400000000     0          
C        C      0.940240000000     0.133000000000     0.940240000000     0          
H        H      0.946200000000     0.120000000000     0.946200000000     0          
C        C      0.925210000000     0.172700000000     0.925210000000     0          
C        C      0.915890000000     0.193700000000     0.915890000000     0          
C        C      0.908480000000     0.210400000000     0.908480000000     0          
C        C      0.899100000000     0.231600000000     0.899100000000     0          
C        C      0.882880000000     0.270900000000     0.882880000000     0          
C        C      0.873000000000     0.290400000000     0.873000000000     0          
C        C      0.864400000000     0.307700000000     0.864400000000     0          
C        C      0.854800000000     0.326600000000     0.854800000000     0          
C        C      0.836000000000     0.364100000000     0.836000000000     0          
H        H      0.829600000000     0.376700000000     0.829600000000     0          
C        C      0.940240000000     0.633000000000     0.440240000000     0          
H        H      0.946200000000     0.620000000000     0.446200000000     0          
C        C      0.925210000000     0.672700000000     0.425210000000     0          
C        C      0.915890000000     0.693700000000     0.415890000000     0          
C        C      0.908480000000     0.710400000000     0.408480000000     0          
C        C      0.899100000000     0.731600000000     0.399100000000     0          
C        C      0.882880000000     0.770900000000     0.382880000000     0          
C        C      0.873000000000     0.790400000000     0.373000000000     0          
C        C      0.864400000000     0.807700000000     0.364400000000     0          
C        C      0.854800000000     0.826600000000     0.354800000000     0          
C        C      0.836000000000     0.864100000000     0.336000000000     0          
H        H      0.829600000000     0.876700000000     0.329600000000     0          
C        C      0.440240000000     0.133000000000     0.440240000000     0          
H        H      0.446200000000     0.120000000000     0.446200000000     0          
C        C      0.425210000000     0.172700000000     0.425210000000     0          
C        C      0.415890000000     0.193700000000     0.415890000000     0          
C        C      0.408480000000     0.210400000000     0.408480000000     0          
C        C      0.399100000000     0.231600000000     0.399100000000     0          
C        C      0.382880000000     0.270900000000     0.382880000000     0          
C        C      0.373000000000     0.290400000000     0.373000000000     0          
C        C      0.364400000000     0.307700000000     0.364400000000     0          
C        C      0.354800000000     0.326600000000     0.354800000000     0          
C        C      0.336000000000     0.364100000000     0.336000000000     0          
H        H      0.329600000000     0.376700000000     0.329600000000     0          
C        C      0.440240000000     0.633000000000     0.940240000000     0          
H        H      0.446200000000     0.620000000000     0.946200000000     0          
C        C      0.425210000000     0.672700000000     0.925210000000     0          
C        C      0.415890000000     0.693700000000     0.915890000000     0          
C        C      0.408480000000     0.710400000000     0.908480000000     0          
C        C      0.399100000000     0.731600000000     0.899100000000     0          
C        C      0.382880000000     0.770900000000     0.882880000000     0          
C        C      0.373000000000     0.790400000000     0.873000000000     0          
C        C      0.364400000000     0.807700000000     0.864400000000     0          
C        C      0.354800000000     0.826600000000     0.854800000000     0          
C        C      0.336000000000     0.864100000000     0.836000000000     0          
H        H      0.329600000000     0.876700000000     0.829600000000     0          
C        C      0.059760000000     0.867000000000     0.940240000000     0          
H        H      0.053800000000     0.880000000000     0.946200000000     0          
C        C      0.074790000000     0.827300000000     0.925210000000     0          
C        C      0.084110000000     0.806300000000     0.915890000000     0          
C        C      0.091520000000     0.789600000000     0.908480000000     0          
C        C      0.100900000000     0.768400000000     0.899100000000     0          
C        C      0.117120000000     0.729100000000     0.882880000000     0          
C        C      0.127000000000     0.709600000000     0.873000000000     0          
C        C      0.135600000000     0.692300000000     0.864400000000     0          
C        C      0.145200000000     0.673400000000     0.854800000000     0          
C        C      0.164000000000     0.635900000000     0.836000000000     0          
H        H      0.170400000000     0.623300000000     0.829600000000     0          
C        C      0.059760000000     0.367000000000     0.440240000000     0          
H        H      0.053800000000     0.380000000000     0.446200000000     0          
C        C      0.074790000000     0.327300000000     0.425210000000     0          
C        C      0.084110000000     0.306300000000     0.415890000000     0          
C        C      0.091520000000     0.289600000000     0.408480000000     0          
C        C      0.100900000000     0.268400000000     0.399100000000     0          
C        C      0.117120000000     0.229100000000     0.382880000000     0          
C        C      0.127000000000     0.209600000000     0.373000000000     0          
C        C      0.135600000000     0.192300000000     0.364400000000     0          
C        C      0.145200000000     0.173400000000     0.354800000000     0          
C        C      0.164000000000     0.135900000000     0.336000000000     0          
H        H      0.170400000000     0.123300000000     0.329600000000     0          
C        C      0.559760000000     0.867000000000     0.440240000000     0          
H        H      0.553800000000     0.880000000000     0.446200000000     0          
C        C      0.574790000000     0.827300000000     0.425210000000     0          
C        C      0.584110000000     0.806300000000     0.415890000000     0          
C        C      0.591520000000     0.789600000000     0.408480000000     0          
C        C      0.600900000000     0.768400000000     0.399100000000     0          
C        C      0.617120000000     0.729100000000     0.382880000000     0          
C        C      0.627000000000     0.709600000000     0.373000000000     0          
C        C      0.635600000000     0.692300000000     0.364400000000     0          
C        C      0.645200000000     0.673400000000     0.354800000000     0          
C        C      0.664000000000     0.635900000000     0.336000000000     0          
H        H      0.670400000000     0.623300000000     0.329600000000     0          
C        C      0.559760000000     0.367000000000     0.940240000000     0          
H        H      0.553800000000     0.380000000000     0.946200000000     0          
C        C      0.574790000000     0.327300000000     0.925210000000     0          
C        C      0.584110000000     0.306300000000     0.915890000000     0          
C        C      0.591520000000     0.289600000000     0.908480000000     0          
C        C      0.600900000000     0.268400000000     0.899100000000     0          
C        C      0.617120000000     0.229100000000     0.882880000000     0          
C        C      0.627000000000     0.209600000000     0.873000000000     0          
C        C      0.635600000000     0.192300000000     0.864400000000     0          
C        C      0.645200000000     0.173400000000     0.854800000000     0          
C        C      0.664000000000     0.135900000000     0.836000000000     0          
H        H      0.670400000000     0.123300000000     0.829600000000     0          
C        C      0.940240000000     0.867000000000     0.059760000000     0          
H        H      0.946200000000     0.880000000000     0.053800000000     0          
C        C      0.925210000000     0.827300000000     0.074790000000     0          
C        C      0.915890000000     0.806300000000     0.084110000000     0          
C        C      0.908480000000     0.789600000000     0.091520000000     0          
C        C      0.899100000000     0.768400000000     0.100900000000     0          
C        C      0.882880000000     0.729100000000     0.117120000000     0          
C        C      0.873000000000     0.709600000000     0.127000000000     0          
C        C      0.864400000000     0.692300000000     0.135600000000     0          
C        C      0.854800000000     0.673400000000     0.145200000000     0          
C        C      0.836000000000     0.635900000000     0.164000000000     0          
H        H      0.829600000000     0.623300000000     0.170400000000     0          
C        C      0.940240000000     0.367000000000     0.559760000000     0          
H        H      0.946200000000     0.380000000000     0.553800000000     0          
C        C      0.925210000000     0.327300000000     0.574790000000     0          
C        C      0.915890000000     0.306300000000     0.584110000000     0          
C        C      0.908480000000     0.289600000000     0.591520000000     0          
C        C      0.899100000000     0.268400000000     0.600900000000     0          
C        C      0.882880000000     0.229100000000     0.617120000000     0          
C        C      0.873000000000     0.209600000000     0.627000000000     0          
C        C      0.864400000000     0.192300000000     0.635600000000     0          
C        C      0.854800000000     0.173400000000     0.645200000000     0          
C        C      0.836000000000     0.135900000000     0.664000000000     0          
H        H      0.829600000000     0.123300000000     0.670400000000     0          
C        C      0.440240000000     0.867000000000     0.559760000000     0          
H        H      0.446200000000     0.880000000000     0.553800000000     0          
C        C      0.425210000000     0.827300000000     0.574790000000     0          
C        C      0.415890000000     0.806300000000     0.584110000000     0          
C        C      0.408480000000     0.789600000000     0.591520000000     0          
C        C      0.399100000000     0.768400000000     0.600900000000     0          
C        C      0.382880000000     0.729100000000     0.617120000000     0          
C        C      0.373000000000     0.709600000000     0.627000000000     0          
C        C      0.364400000000     0.692300000000     0.635600000000     0          
C        C      0.354800000000     0.673400000000     0.645200000000     0          
C        C      0.336000000000     0.635900000000     0.664000000000     0          
H        H      0.329600000000     0.623300000000     0.670400000000     0          
C        C      0.440240000000     0.367000000000     0.059760000000     0          
H        H      0.446200000000     0.380000000000     0.053800000000     0          
C        C      0.425210000000     0.327300000000     0.074790000000     0          
C        C      0.415890000000     0.306300000000     0.084110000000     0          
C        C      0.408480000000     0.289600000000     0.091520000000     0          
C        C      0.399100000000     0.268400000000     0.100900000000     0          
C        C      0.382880000000     0.229100000000     0.117120000000     0          
C        C      0.373000000000     0.209600000000     0.127000000000     0          
C        C      0.364400000000     0.192300000000     0.135600000000     0          
C        C      0.354800000000     0.173400000000     0.145200000000     0          
C        C      0.336000000000     0.135900000000     0.164000000000     0          
H        H      0.329600000000     0.123300000000     0.170400000000     0          
C        C      0.059760000000     0.059760000000     0.867000000000     0          
H        H      0.053800000000     0.053800000000     0.880000000000     0          
C        C      0.074790000000     0.074790000000     0.827300000000     0          
C        C      0.084110000000     0.084110000000     0.806300000000     0          
C        C      0.091520000000     0.091520000000     0.789600000000     0          
C        C      0.100900000000     0.100900000000     0.768400000000     0          
C        C      0.117120000000     0.117120000000     0.729100000000     0          
C        C      0.127000000000     0.127000000000     0.709600000000     0          
C        C      0.135600000000     0.135600000000     0.692300000000     0          
C        C      0.145200000000     0.145200000000     0.673400000000     0          
C        C      0.164000000000     0.164000000000     0.635900000000     0          
H        H      0.170400000000     0.170400000000     0.623300000000     0          
C        C      0.059760000000     0.559760000000     0.367000000000     0          
H        H      0.053800000000     0.553800000000     0.380000000000     0          
C        C      0.074790000000     0.574790000000     0.327300000000     0          
C        C      0.084110000000     0.584110000000     0.306300000000     0          
C        C      0.091520000000     0.591520000000     0.289600000000     0          
C        C      0.100900000000     0.600900000000     0.268400000000     0          
C        C      0.117120000000     0.617120000000     0.229100000000     0          
C        C      0.127000000000     0.627000000000     0.209600000000     0          
C        C      0.135600000000     0.635600000000     0.192300000000     0          
C        C      0.145200000000     0.645200000000     0.173400000000     0          
C        C      0.164000000000     0.664000000000     0.135900000000     0          
H        H      0.170400000000     0.670400000000     0.123300000000     0          
C        C      0.559760000000     0.059760000000     0.367000000000     0          
H        H      0.553800000000     0.053800000000     0.380000000000     0          
C        C      0.574790000000     0.074790000000     0.327300000000     0          
C        C      0.584110000000     0.084110000000     0.306300000000     0          
C        C      0.591520000000     0.091520000000     0.289600000000     0          
C        C      0.600900000000     0.100900000000     0.268400000000     0          
C        C      0.617120000000     0.117120000000     0.229100000000     0          
C        C      0.627000000000     0.127000000000     0.209600000000     0          
C        C      0.635600000000     0.135600000000     0.192300000000     0          
C        C      0.645200000000     0.145200000000     0.173400000000     0          
C        C      0.664000000000     0.164000000000     0.135900000000     0          
H        H      0.670400000000     0.170400000000     0.123300000000     0          
C        C      0.559760000000     0.559760000000     0.867000000000     0          
H        H      0.553800000000     0.553800000000     0.880000000000     0          
C        C      0.574790000000     0.574790000000     0.827300000000     0          
C        C      0.584110000000     0.584110000000     0.806300000000     0          
C        C      0.591520000000     0.591520000000     0.789600000000     0          
C        C      0.600900000000     0.600900000000     0.768400000000     0          
C        C      0.617120000000     0.617120000000     0.729100000000     0          
C        C      0.627000000000     0.627000000000     0.709600000000     0          
C        C      0.635600000000     0.635600000000     0.692300000000     0          
C        C      0.645200000000     0.645200000000     0.673400000000     0          
C        C      0.664000000000     0.664000000000     0.635900000000     0          
H        H      0.670400000000     0.670400000000     0.623300000000     0          
C        C      0.940240000000     0.940240000000     0.867000000000     0          
H        H      0.946200000000     0.946200000000     0.880000000000     0          
C        C      0.925210000000     0.925210000000     0.827300000000     0          
C        C      0.915890000000     0.915890000000     0.806300000000     0          
C        C      0.908480000000     0.908480000000     0.789600000000     0          
C        C      0.899100000000     0.899100000000     0.768400000000     0          
C        C      0.882880000000     0.882880000000     0.729100000000     0          
C        C      0.873000000000     0.873000000000     0.709600000000     0          
C        C      0.864400000000     0.864400000000     0.692300000000     0          
C        C      0.854800000000     0.854800000000     0.673400000000     0          
C        C      0.836000000000     0.836000000000     0.635900000000     0          
H        H      0.829600000000     0.829600000000     0.623300000000     0          
C        C      0.940240000000     0.440240000000     0.367000000000     0          
H        H      0.946200000000     0.446200000000     0.380000000000     0          
C        C      0.925210000000     0.425210000000     0.327300000000     0          
C        C      0.915890000000     0.415890000000     0.306300000000     0          
C        C      0.908480000000     0.408480000000     0.289600000000     0          
C        C      0.899100000000     0.399100000000     0.268400000000     0          
C        C      0.882880000000     0.382880000000     0.229100000000     0          
C        C      0.873000000000     0.373000000000     0.209600000000     0          
C        C      0.864400000000     0.364400000000     0.192300000000     0          
C        C      0.854800000000     0.354800000000     0.173400000000     0          
C        C      0.836000000000     0.336000000000     0.135900000000     0          
H        H      0.829600000000     0.329600000000     0.123300000000     0          
C        C      0.440240000000     0.940240000000     0.367000000000     0          
H        H      0.446200000000     0.946200000000     0.380000000000     0          
C        C      0.425210000000     0.925210000000     0.327300000000     0          
C        C      0.415890000000     0.915890000000     0.306300000000     0          
C        C      0.408480000000     0.908480000000     0.289600000000     0          
C        C      0.399100000000     0.899100000000     0.268400000000     0          
C        C      0.382880000000     0.882880000000     0.229100000000     0          
C        C      0.373000000000     0.873000000000     0.209600000000     0          
C        C      0.364400000000     0.864400000000     0.192300000000     0          
C        C      0.354800000000     0.854800000000     0.173400000000     0          
C        C      0.336000000000     0.836000000000     0.135900000000     0          
H        H      0.329600000000     0.829600000000     0.123300000000     0          
C        C      0.440240000000     0.440240000000     0.867000000000     0          
H        H      0.446200000000     0.446200000000     0.880000000000     0          
C        C      0.425210000000     0.425210000000     0.827300000000     0          
C        C      0.415890000000     0.415890000000     0.806300000000     0          
C        C      0.408480000000     0.408480000000     0.789600000000     0          
C        C      0.399100000000     0.399100000000     0.768400000000     0          
C        C      0.382880000000     0.382880000000     0.729100000000     0          
C        C      0.373000000000     0.373000000000     0.709600000000     0          
C        C      0.364400000000     0.364400000000     0.692300000000     0          
C        C      0.354800000000     0.354800000000     0.673400000000     0          
C        C      0.336000000000     0.336000000000     0.635900000000     0          
H        H      0.329600000000     0.329600000000     0.623300000000     0          
C        C      0.059760000000     0.940240000000     0.133000000000     0          
H        H      0.053800000000     0.946200000000     0.120000000000     0          
C        C      0.074790000000     0.925210000000     0.172700000000     0          
C        C      0.084110000000     0.915890000000     0.193700000000     0          
C        C      0.091520000000     0.908480000000     0.210400000000     0          
C        C      0.100900000000     0.899100000000     0.231600000000     0          
C        C      0.117120000000     0.882880000000     0.270900000000     0          
C        C      0.127000000000     0.873000000000     0.290400000000     0          
C        C      0.135600000000     0.864400000000     0.307700000000     0          
C        C      0.145200000000     0.854800000000     0.326600000000     0          
C        C      0.164000000000     0.836000000000     0.364100000000     0          
H        H      0.170400000000     0.829600000000     0.376700000000     0          
C        C      0.059760000000     0.440240000000     0.633000000000     0          
H        H      0.053800000000     0.446200000000     0.620000000000     0          
C        C      0.074790000000     0.425210000000     0.672700000000     0          
C        C      0.084110000000     0.415890000000     0.693700000000     0          
C        C      0.091520000000     0.408480000000     0.710400000000     0          
C        C      0.100900000000     0.399100000000     0.731600000000     0          
C        C      0.117120000000     0.382880000000     0.770900000000     0          
C        C      0.127000000000     0.373000000000     0.790400000000     0          
C        C      0.135600000000     0.364400000000     0.807700000000     0          
C        C      0.145200000000     0.354800000000     0.826600000000     0          
C        C      0.164000000000     0.336000000000     0.864100000000     0          
H        H      0.170400000000     0.329600000000     0.876700000000     0          
C        C      0.559760000000     0.940240000000     0.633000000000     0          
H        H      0.553800000000     0.946200000000     0.620000000000     0          
C        C      0.574790000000     0.925210000000     0.672700000000     0          
C        C      0.584110000000     0.915890000000     0.693700000000     0          
C        C      0.591520000000     0.908480000000     0.710400000000     0          
C        C      0.600900000000     0.899100000000     0.731600000000     0          
C        C      0.617120000000     0.882880000000     0.770900000000     0          
C        C      0.627000000000     0.873000000000     0.790400000000     0          
C        C      0.635600000000     0.864400000000     0.807700000000     0          
C        C      0.645200000000     0.854800000000     0.826600000000     0          
C        C      0.664000000000     0.836000000000     0.864100000000     0          
H        H      0.670400000000     0.829600000000     0.876700000000     0          
C        C      0.559760000000     0.440240000000     0.133000000000     0          
H        H      0.553800000000     0.446200000000     0.120000000000     0          
C        C      0.574790000000     0.425210000000     0.172700000000     0          
C        C      0.584110000000     0.415890000000     0.193700000000     0          
C        C      0.591520000000     0.408480000000     0.210400000000     0          
C        C      0.600900000000     0.399100000000     0.231600000000     0          
C        C      0.617120000000     0.382880000000     0.270900000000     0          
C        C      0.627000000000     0.373000000000     0.290400000000     0          
C        C      0.635600000000     0.364400000000     0.307700000000     0          
C        C      0.645200000000     0.354800000000     0.326600000000     0          
C        C      0.664000000000     0.336000000000     0.364100000000     0          
H        H      0.670400000000     0.329600000000     0.376700000000     0          
C        C      0.940240000000     0.059760000000     0.133000000000     0          
H        H      0.946200000000     0.053800000000     0.120000000000     0          
C        C      0.925210000000     0.074790000000     0.172700000000     0          
C        C      0.915890000000     0.084110000000     0.193700000000     0          
C        C      0.908480000000     0.091520000000     0.210400000000     0          
C        C      0.899100000000     0.100900000000     0.231600000000     0          
C        C      0.882880000000     0.117120000000     0.270900000000     0          
C        C      0.873000000000     0.127000000000     0.290400000000     0          
C        C      0.864400000000     0.135600000000     0.307700000000     0          
C        C      0.854800000000     0.145200000000     0.326600000000     0          
C        C      0.836000000000     0.164000000000     0.364100000000     0          
H        H      0.829600000000     0.170400000000     0.376700000000     0          
C        C      0.940240000000     0.559760000000     0.633000000000     0          
H        H      0.946200000000     0.553800000000     0.620000000000     0          
C        C      0.925210000000     0.574790000000     0.672700000000     0          
C        C      0.915890000000     0.584110000000     0.693700000000     0          
C        C      0.908480000000     0.591520000000     0.710400000000     0          
C        C      0.899100000000     0.600900000000     0.731600000000     0          
C        C      0.882880000000     0.617120000000     0.770900000000     0          
C        C      0.873000000000     0.627000000000     0.790400000000     0          
C        C      0.864400000000     0.635600000000     0.807700000000     0          
C        C      0.854800000000     0.645200000000     0.826600000000     0          
C        C      0.836000000000     0.664000000000     0.864100000000     0          
H        H      0.829600000000     0.670400000000     0.876700000000     0          
C        C      0.440240000000     0.059760000000     0.633000000000     0          
H        H      0.446200000000     0.053800000000     0.620000000000     0          
C        C      0.425210000000     0.074790000000     0.672700000000     0          
C        C      0.415890000000     0.084110000000     0.693700000000     0          
C        C      0.408480000000     0.091520000000     0.710400000000     0          
C        C      0.399100000000     0.100900000000     0.731600000000     0          
C        C      0.382880000000     0.117120000000     0.770900000000     0          
C        C      0.373000000000     0.127000000000     0.790400000000     0          
C        C      0.364400000000     0.135600000000     0.807700000000     0          
C        C      0.354800000000     0.145200000000     0.826600000000     0          
C        C      0.336000000000     0.164000000000     0.864100000000     0          
H        H      0.329600000000     0.170400000000     0.876700000000     0          
C        C      0.440240000000     0.559760000000     0.133000000000     0          
H        H      0.446200000000     0.553800000000     0.120000000000     0          
C        C      0.425210000000     0.574790000000     0.172700000000     0          
C        C      0.415890000000     0.584110000000     0.193700000000     0          
C        C      0.408480000000     0.591520000000     0.210400000000     0          
C        C      0.399100000000     0.600900000000     0.231600000000     0          
C        C      0.382880000000     0.617120000000     0.270900000000     0          
C        C      0.373000000000     0.627000000000     0.290400000000     0          
C        C      0.364400000000     0.635600000000     0.307700000000     0          
C        C      0.354800000000     0.645200000000     0.326600000000     0          
C        C      0.336000000000     0.664000000000     0.364100000000     0          
H        H      0.329600000000     0.670400000000     0.376700000000     0          
C        C      0.059760000000     0.133000000000     0.940240000000     0          
H        H      0.053800000000     0.120000000000     0.946200000000     0          
C        C      0.074790000000     0.172700000000     0.925210000000     0          
C        C      0.084110000000     0.193700000000     0.915890000000     0          
C        C      0.091520000000     0.210400000000     0.908480000000     0          
C        C      0.100900000000     0.231600000000     0.899100000000     0          
C        C      0.117120000000     0.270900000000     0.882880000000     0          
C        C      0.127000000000     0.290400000000     0.873000000000     0          
C        C      0.135600000000     0.307700000000     0.864400000000     0          
C        C      0.145200000000     0.326600000000     0.854800000000     0          
C        C      0.164000000000     0.364100000000     0.836000000000     0          
H        H      0.170400000000     0.376700000000     0.829600000000     0          
C        C      0.059760000000     0.633000000000     0.440240000000     0          
H        H      0.053800000000     0.620000000000     0.446200000000     0          
C        C      0.074790000000     0.672700000000     0.425210000000     0          
C        C      0.084110000000     0.693700000000     0.415890000000     0          
C        C      0.091520000000     0.710400000000     0.408480000000     0          
C        C      0.100900000000     0.731600000000     0.399100000000     0          
C        C      0.117120000000     0.770900000000     0.382880000000     0          
C        C      0.127000000000     0.790400000000     0.373000000000     0          
C        C      0.135600000000     0.807700000000     0.364400000000     0          
C        C      0.145200000000     0.826600000000     0.354800000000     0          
C        C      0.164000000000     0.864100000000     0.336000000000     0          
H        H      0.170400000000     0.876700000000     0.329600000000     0          
C        C      0.559760000000     0.133000000000     0.440240000000     0          
H        H      0.553800000000     0.120000000000     0.446200000000     0          
C        C      0.574790000000     0.172700000000     0.425210000000     0          
C        C      0.584110000000     0.193700000000     0.415890000000     0          
C        C      0.591520000000     0.210400000000     0.408480000000     0          
C        C      0.600900000000     0.231600000000     0.399100000000     0          
C        C      0.617120000000     0.270900000000     0.382880000000     0          
C        C      0.627000000000     0.290400000000     0.373000000000     0          
C        C      0.635600000000     0.307700000000     0.364400000000     0          
C        C      0.645200000000     0.326600000000     0.354800000000     0          
C        C      0.664000000000     0.364100000000     0.336000000000     0          
H        H      0.670400000000     0.376700000000     0.329600000000     0          
C        C      0.559760000000     0.633000000000     0.940240000000     0          
H        H      0.553800000000     0.620000000000     0.946200000000     0          
C        C      0.574790000000     0.672700000000     0.925210000000     0          
C        C      0.584110000000     0.693700000000     0.915890000000     0          
C        C      0.591520000000     0.710400000000     0.908480000000     0          
C        C      0.600900000000     0.731600000000     0.899100000000     0          
C        C      0.617120000000     0.770900000000     0.882880000000     0          
C        C      0.627000000000     0.790400000000     0.873000000000     0          
C        C      0.635600000000     0.807700000000     0.864400000000     0          
C        C      0.645200000000     0.826600000000     0.854800000000     0          
C        C      0.664000000000     0.864100000000     0.836000000000     0          
H        H      0.670400000000     0.876700000000     0.829600000000     0          
C        C      0.940240000000     0.133000000000     0.059760000000     0          
H        H      0.946200000000     0.120000000000     0.053800000000     0          
C        C      0.925210000000     0.172700000000     0.074790000000     0          
C        C      0.915890000000     0.193700000000     0.084110000000     0          
C        C      0.908480000000     0.210400000000     0.091520000000     0          
C        C      0.899100000000     0.231600000000     0.100900000000     0          
C        C      0.882880000000     0.270900000000     0.117120000000     0          
C        C      0.873000000000     0.290400000000     0.127000000000     0          
C        C      0.864400000000     0.307700000000     0.135600000000     0          
C        C      0.854800000000     0.326600000000     0.145200000000     0          
C        C      0.836000000000     0.364100000000     0.164000000000     0          
H        H      0.829600000000     0.376700000000     0.170400000000     0          
C        C      0.940240000000     0.633000000000     0.559760000000     0          
H        H      0.946200000000     0.620000000000     0.553800000000     0          
C        C      0.925210000000     0.672700000000     0.574790000000     0          
C        C      0.915890000000     0.693700000000     0.584110000000     0          
C        C      0.908480000000     0.710400000000     0.591520000000     0          
C        C      0.899100000000     0.731600000000     0.600900000000     0          
C        C      0.882880000000     0.770900000000     0.617120000000     0          
C        C      0.873000000000     0.790400000000     0.627000000000     0          
C        C      0.864400000000     0.807700000000     0.635600000000     0          
C        C      0.854800000000     0.826600000000     0.645200000000     0          
C        C      0.836000000000     0.864100000000     0.664000000000     0          
H        H      0.829600000000     0.876700000000     0.670400000000     0          
C        C      0.440240000000     0.133000000000     0.559760000000     0          
H        H      0.446200000000     0.120000000000     0.553800000000     0          
C        C      0.425210000000     0.172700000000     0.574790000000     0          
C        C      0.415890000000     0.193700000000     0.584110000000     0          
C        C      0.408480000000     0.210400000000     0.591520000000     0          
C        C      0.399100000000     0.231600000000     0.600900000000     0          
C        C      0.382880000000     0.270900000000     0.617120000000     0          
C        C      0.373000000000     0.290400000000     0.627000000000     0          
C        C      0.364400000000     0.307700000000     0.635600000000     0          
C        C      0.354800000000     0.326600000000     0.645200000000     0          
C        C      0.336000000000     0.364100000000     0.664000000000     0          
H        H      0.329600000000     0.376700000000     0.670400000000     0          
C        C      0.440240000000     0.633000000000     0.059760000000     0          
H        H      0.446200000000     0.620000000000     0.053800000000     0          
C        C      0.425210000000     0.672700000000     0.074790000000     0          
C        C      0.415890000000     0.693700000000     0.084110000000     0          
C        C      0.408480000000     0.710400000000     0.091520000000     0          
C        C      0.399100000000     0.731600000000     0.100900000000     0          
C        C      0.382880000000     0.770900000000     0.117120000000     0          
C        C      0.373000000000     0.790400000000     0.127000000000     0          
C        C      0.364400000000     0.807700000000     0.135600000000     0          
C        C      0.354800000000     0.826600000000     0.145200000000     0          
C        C      0.336000000000     0.864100000000     0.164000000000     0          
H        H      0.329600000000     0.876700000000     0.170400000000     0          
C        C      0.940240000000     0.867000000000     0.940240000000     0          
H        H      0.946200000000     0.880000000000     0.946200000000     0          
C        C      0.925210000000     0.827300000000     0.925210000000     0          
C        C      0.915890000000     0.806300000000     0.915890000000     0          
C        C      0.908480000000     0.789600000000     0.908480000000     0          
C        C      0.899100000000     0.768400000000     0.899100000000     0          
C        C      0.882880000000     0.729100000000     0.882880000000     0          
C        C      0.873000000000     0.709600000000     0.873000000000     0          
C        C      0.864400000000     0.692300000000     0.864400000000     0          
C        C      0.854800000000     0.673400000000     0.854800000000     0          
C        C      0.836000000000     0.635900000000     0.836000000000     0          
H        H      0.829600000000     0.623300000000     0.829600000000     0          
C        C      0.940240000000     0.367000000000     0.440240000000     0          
H        H      0.946200000000     0.380000000000     0.446200000000     0          
C        C      0.925210000000     0.327300000000     0.425210000000     0          
C        C      0.915890000000     0.306300000000     0.415890000000     0          
C        C      0.908480000000     0.289600000000     0.408480000000     0          
C        C      0.899100000000     0.268400000000     0.399100000000     0          
C        C      0.882880000000     0.229100000000     0.382880000000     0          
C        C      0.873000000000     0.209600000000     0.373000000000     0          
C        C      0.864400000000     0.192300000000     0.364400000000     0          
C        C      0.854800000000     0.173400000000     0.354800000000     0          
C        C      0.836000000000     0.135900000000     0.336000000000     0          
H        H      0.829600000000     0.123300000000     0.329600000000     0          
C        C      0.440240000000     0.867000000000     0.440240000000     0          
H        H      0.446200000000     0.880000000000     0.446200000000     0          
C        C      0.425210000000     0.827300000000     0.425210000000     0          
C        C      0.415890000000     0.806300000000     0.415890000000     0          
C        C      0.408480000000     0.789600000000     0.408480000000     0          
C        C      0.399100000000     0.768400000000     0.399100000000     0          
C        C      0.382880000000     0.729100000000     0.382880000000     0          
C        C      0.373000000000     0.709600000000     0.373000000000     0          
C        C      0.364400000000     0.692300000000     0.364400000000     0          
C        C      0.354800000000     0.673400000000     0.354800000000     0          
C        C      0.336000000000     0.635900000000     0.336000000000     0          
H        H      0.329600000000     0.623300000000     0.329600000000     0          
C        C      0.440240000000     0.367000000000     0.940240000000     0          
H        H      0.446200000000     0.380000000000     0.946200000000     0          
C        C      0.425210000000     0.327300000000     0.925210000000     0          
C        C      0.415890000000     0.306300000000     0.915890000000     0          
C        C      0.408480000000     0.289600000000     0.908480000000     0          
C        C      0.399100000000     0.268400000000     0.899100000000     0          
C        C      0.382880000000     0.229100000000     0.882880000000     0          
C        C      0.373000000000     0.209600000000     0.873000000000     0          
C        C      0.364400000000     0.192300000000     0.864400000000     0          
C        C      0.354800000000     0.173400000000     0.854800000000     0          
C        C      0.336000000000     0.135900000000     0.836000000000     0          
H        H      0.329600000000     0.123300000000     0.829600000000     0          
C        C      0.059760000000     0.867000000000     0.059760000000     0          
H        H      0.053800000000     0.880000000000     0.053800000000     0          
C        C      0.074790000000     0.827300000000     0.074790000000     0          
C        C      0.084110000000     0.806300000000     0.084110000000     0          
C        C      0.091520000000     0.789600000000     0.091520000000     0          
C        C      0.100900000000     0.768400000000     0.100900000000     0          
C        C      0.117120000000     0.729100000000     0.117120000000     0          
C        C      0.127000000000     0.709600000000     0.127000000000     0          
C        C      0.135600000000     0.692300000000     0.135600000000     0          
C        C      0.145200000000     0.673400000000     0.145200000000     0          
C        C      0.164000000000     0.635900000000     0.164000000000     0          
H        H      0.170400000000     0.623300000000     0.170400000000     0          
C        C      0.059760000000     0.367000000000     0.559760000000     0          
H        H      0.053800000000     0.380000000000     0.553800000000     0          
C        C      0.074790000000     0.327300000000     0.574790000000     0          
C        C      0.084110000000     0.306300000000     0.584110000000     0          
C        C      0.091520000000     0.289600000000     0.591520000000     0          
C        C      0.100900000000     0.268400000000     0.600900000000     0          
C        C      0.117120000000     0.229100000000     0.617120000000     0          
C        C      0.127000000000     0.209600000000     0.627000000000     0          
C        C      0.135600000000     0.192300000000     0.635600000000     0          
C        C      0.145200000000     0.173400000000     0.645200000000     0          
C        C      0.164000000000     0.135900000000     0.664000000000     0          
H        H      0.170400000000     0.123300000000     0.670400000000     0          
C        C      0.559760000000     0.867000000000     0.559760000000     0          
H        H      0.553800000000     0.880000000000     0.553800000000     0          
C        C      0.574790000000     0.827300000000     0.574790000000     0          
C        C      0.584110000000     0.806300000000     0.584110000000     0          
C        C      0.591520000000     0.789600000000     0.591520000000     0          
C        C      0.600900000000     0.768400000000     0.600900000000     0          
C        C      0.617120000000     0.729100000000     0.617120000000     0          
C        C      0.627000000000     0.709600000000     0.627000000000     0          
C        C      0.635600000000     0.692300000000     0.635600000000     0          
C        C      0.645200000000     0.673400000000     0.645200000000     0          
C        C      0.664000000000     0.635900000000     0.664000000000     0          
H        H      0.670400000000     0.623300000000     0.670400000000     0          
C        C      0.559760000000     0.367000000000     0.059760000000     0          
H        H      0.553800000000     0.380000000000     0.053800000000     0          
C        C      0.574790000000     0.327300000000     0.074790000000     0          
C        C      0.584110000000     0.306300000000     0.084110000000     0          
C        C      0.591520000000     0.289600000000     0.091520000000     0          
C        C      0.600900000000     0.268400000000     0.100900000000     0          
C        C      0.617120000000     0.229100000000     0.117120000000     0          
C        C      0.627000000000     0.209600000000     0.127000000000     0          
C        C      0.635600000000     0.192300000000     0.135600000000     0          
C        C      0.645200000000     0.173400000000     0.145200000000     0          
C        C      0.664000000000     0.135900000000     0.164000000000     0          
H        H      0.670400000000     0.123300000000     0.170400000000     0          
C        C      0.133000000000     0.059760000000     0.940240000000     0          
H        H      0.120000000000     0.053800000000     0.946200000000     0          
C        C      0.172700000000     0.074790000000     0.925210000000     0          
C        C      0.193700000000     0.084110000000     0.915890000000     0          
C        C      0.210400000000     0.091520000000     0.908480000000     0          
C        C      0.231600000000     0.100900000000     0.899100000000     0          
C        C      0.270900000000     0.117120000000     0.882880000000     0          
C        C      0.290400000000     0.127000000000     0.873000000000     0          
C        C      0.307700000000     0.135600000000     0.864400000000     0          
C        C      0.326600000000     0.145200000000     0.854800000000     0          
C        C      0.364100000000     0.164000000000     0.836000000000     0          
H        H      0.376700000000     0.170400000000     0.829600000000     0          
C        C      0.133000000000     0.559760000000     0.440240000000     0          
H        H      0.120000000000     0.553800000000     0.446200000000     0          
C        C      0.172700000000     0.574790000000     0.425210000000     0          
C        C      0.193700000000     0.584110000000     0.415890000000     0          
C        C      0.210400000000     0.591520000000     0.408480000000     0          
C        C      0.231600000000     0.600900000000     0.399100000000     0          
C        C      0.270900000000     0.617120000000     0.382880000000     0          
C        C      0.290400000000     0.627000000000     0.373000000000     0          
C        C      0.307700000000     0.635600000000     0.364400000000     0          
C        C      0.326600000000     0.645200000000     0.354800000000     0          
C        C      0.364100000000     0.664000000000     0.336000000000     0          
H        H      0.376700000000     0.670400000000     0.329600000000     0          
C        C      0.633000000000     0.059760000000     0.440240000000     0          
H        H      0.620000000000     0.053800000000     0.446200000000     0          
C        C      0.672700000000     0.074790000000     0.425210000000     0          
C        C      0.693700000000     0.084110000000     0.415890000000     0          
C        C      0.710400000000     0.091520000000     0.408480000000     0          
C        C      0.731600000000     0.100900000000     0.399100000000     0          
C        C      0.770900000000     0.117120000000     0.382880000000     0          
C        C      0.790400000000     0.127000000000     0.373000000000     0          
C        C      0.807700000000     0.135600000000     0.364400000000     0          
C        C      0.826600000000     0.145200000000     0.354800000000     0          
C        C      0.864100000000     0.164000000000     0.336000000000     0          
H        H      0.876700000000     0.170400000000     0.329600000000     0          
C        C      0.633000000000     0.559760000000     0.940240000000     0          
H        H      0.620000000000     0.553800000000     0.946200000000     0          
C        C      0.672700000000     0.574790000000     0.925210000000     0          
C        C      0.693700000000     0.584110000000     0.915890000000     0          
C        C      0.710400000000     0.591520000000     0.908480000000     0          
C        C      0.731600000000     0.600900000000     0.899100000000     0          
C        C      0.770900000000     0.617120000000     0.882880000000     0          
C        C      0.790400000000     0.627000000000     0.873000000000     0          
C        C      0.807700000000     0.635600000000     0.864400000000     0          
C        C      0.826600000000     0.645200000000     0.854800000000     0          
C        C      0.864100000000     0.664000000000     0.836000000000     0          
H        H      0.876700000000     0.670400000000     0.829600000000     0          
C        C      0.133000000000     0.940240000000     0.059760000000     0          
H        H      0.120000000000     0.946200000000     0.053800000000     0          
C        C      0.172700000000     0.925210000000     0.074790000000     0          
C        C      0.193700000000     0.915890000000     0.084110000000     0          
C        C      0.210400000000     0.908480000000     0.091520000000     0          
C        C      0.231600000000     0.899100000000     0.100900000000     0          
C        C      0.270900000000     0.882880000000     0.117120000000     0          
C        C      0.290400000000     0.873000000000     0.127000000000     0          
C        C      0.307700000000     0.864400000000     0.135600000000     0          
C        C      0.326600000000     0.854800000000     0.145200000000     0          
C        C      0.364100000000     0.836000000000     0.164000000000     0          
H        H      0.376700000000     0.829600000000     0.170400000000     0          
C        C      0.133000000000     0.440240000000     0.559760000000     0          
H        H      0.120000000000     0.446200000000     0.553800000000     0          
C        C      0.172700000000     0.425210000000     0.574790000000     0          
C        C      0.193700000000     0.415890000000     0.584110000000     0          
C        C      0.210400000000     0.408480000000     0.591520000000     0          
C        C      0.231600000000     0.399100000000     0.600900000000     0          
C        C      0.270900000000     0.382880000000     0.617120000000     0          
C        C      0.290400000000     0.373000000000     0.627000000000     0          
C        C      0.307700000000     0.364400000000     0.635600000000     0          
C        C      0.326600000000     0.354800000000     0.645200000000     0          
C        C      0.364100000000     0.336000000000     0.664000000000     0          
H        H      0.376700000000     0.329600000000     0.670400000000     0          
C        C      0.633000000000     0.940240000000     0.559760000000     0          
H        H      0.620000000000     0.946200000000     0.553800000000     0          
C        C      0.672700000000     0.925210000000     0.574790000000     0          
C        C      0.693700000000     0.915890000000     0.584110000000     0          
C        C      0.710400000000     0.908480000000     0.591520000000     0          
C        C      0.731600000000     0.899100000000     0.600900000000     0          
C        C      0.770900000000     0.882880000000     0.617120000000     0          
C        C      0.790400000000     0.873000000000     0.627000000000     0          
C        C      0.807700000000     0.864400000000     0.635600000000     0          
C        C      0.826600000000     0.854800000000     0.645200000000     0          
C        C      0.864100000000     0.836000000000     0.664000000000     0          
H        H      0.876700000000     0.829600000000     0.670400000000     0          
C        C      0.633000000000     0.440240000000     0.059760000000     0          
H        H      0.620000000000     0.446200000000     0.053800000000     0          
C        C      0.672700000000     0.425210000000     0.074790000000     0          
C        C      0.693700000000     0.415890000000     0.084110000000     0          
C        C      0.710400000000     0.408480000000     0.091520000000     0          
C        C      0.731600000000     0.399100000000     0.100900000000     0          
C        C      0.770900000000     0.382880000000     0.117120000000     0          
C        C      0.790400000000     0.373000000000     0.127000000000     0          
C        C      0.807700000000     0.364400000000     0.135600000000     0          
C        C      0.826600000000     0.354800000000     0.145200000000     0          
C        C      0.864100000000     0.336000000000     0.164000000000     0          
H        H      0.876700000000     0.329600000000     0.170400000000     0          
C        C      0.867000000000     0.059760000000     0.059760000000     0          
H        H      0.880000000000     0.053800000000     0.053800000000     0          
C        C      0.827300000000     0.074790000000     0.074790000000     0          
C        C      0.806300000000     0.084110000000     0.084110000000     0          
C        C      0.789600000000     0.091520000000     0.091520000000     0          
C        C      0.768400000000     0.100900000000     0.100900000000     0          
C        C      0.729100000000     0.117120000000     0.117120000000     0          
C        C      0.709600000000     0.127000000000     0.127000000000     0          
C        C      0.692300000000     0.135600000000     0.135600000000     0          
C        C      0.673400000000     0.145200000000     0.145200000000     0          
C        C      0.635900000000     0.164000000000     0.164000000000     0          
H        H      0.623300000000     0.170400000000     0.170400000000     0          
C        C      0.867000000000     0.559760000000     0.559760000000     0          
H        H      0.880000000000     0.553800000000     0.553800000000     0          
C        C      0.827300000000     0.574790000000     0.574790000000     0          
C        C      0.806300000000     0.584110000000     0.584110000000     0          
C        C      0.789600000000     0.591520000000     0.591520000000     0          
C        C      0.768400000000     0.600900000000     0.600900000000     0          
C        C      0.729100000000     0.617120000000     0.617120000000     0          
C        C      0.709600000000     0.627000000000     0.627000000000     0          
C        C      0.692300000000     0.635600000000     0.635600000000     0          
C        C      0.673400000000     0.645200000000     0.645200000000     0          
C        C      0.635900000000     0.664000000000     0.664000000000     0          
H        H      0.623300000000     0.670400000000     0.670400000000     0          
C        C      0.367000000000     0.059760000000     0.559760000000     0          
H        H      0.380000000000     0.053800000000     0.553800000000     0          
C        C      0.327300000000     0.074790000000     0.574790000000     0          
C        C      0.306300000000     0.084110000000     0.584110000000     0          
C        C      0.289600000000     0.091520000000     0.591520000000     0          
C        C      0.268400000000     0.100900000000     0.600900000000     0          
C        C      0.229100000000     0.117120000000     0.617120000000     0          
C        C      0.209600000000     0.127000000000     0.627000000000     0          
C        C      0.192300000000     0.135600000000     0.635600000000     0          
C        C      0.173400000000     0.145200000000     0.645200000000     0          
C        C      0.135900000000     0.164000000000     0.664000000000     0          
H        H      0.123300000000     0.170400000000     0.670400000000     0          
C        C      0.367000000000     0.559760000000     0.059760000000     0          
H        H      0.380000000000     0.553800000000     0.053800000000     0          
C        C      0.327300000000     0.574790000000     0.074790000000     0          
C        C      0.306300000000     0.584110000000     0.084110000000     0          
C        C      0.289600000000     0.591520000000     0.091520000000     0          
C        C      0.268400000000     0.600900000000     0.100900000000     0          
C        C      0.229100000000     0.617120000000     0.117120000000     0          
C        C      0.209600000000     0.627000000000     0.127000000000     0          
C        C      0.192300000000     0.635600000000     0.135600000000     0          
C        C      0.173400000000     0.645200000000     0.145200000000     0          
C        C      0.135900000000     0.664000000000     0.164000000000     0          
H        H      0.123300000000     0.670400000000     0.170400000000     0          
C        C      0.867000000000     0.940240000000     0.940240000000     0          
H        H      0.880000000000     0.946200000000     0.946200000000     0          
C        C      0.827300000000     0.925210000000     0.925210000000     0          
C        C      0.806300000000     0.915890000000     0.915890000000     0          
C        C      0.789600000000     0.908480000000     0.908480000000     0          
C        C      0.768400000000     0.899100000000     0.899100000000     0          
C        C      0.729100000000     0.882880000000     0.882880000000     0          
C        C      0.709600000000     0.873000000000     0.873000000000     0          
C        C      0.692300000000     0.864400000000     0.864400000000     0          
C        C      0.673400000000     0.854800000000     0.854800000000     0          
C        C      0.635900000000     0.836000000000     0.836000000000     0          
H        H      0.623300000000     0.829600000000     0.829600000000     0          
C        C      0.867000000000     0.440240000000     0.440240000000     0          
H        H      0.880000000000     0.446200000000     0.446200000000     0          
C        C      0.827300000000     0.425210000000     0.425210000000     0          
C        C      0.806300000000     0.415890000000     0.415890000000     0          
C        C      0.789600000000     0.408480000000     0.408480000000     0          
C        C      0.768400000000     0.399100000000     0.399100000000     0          
C        C      0.729100000000     0.382880000000     0.382880000000     0          
C        C      0.709600000000     0.373000000000     0.373000000000     0          
C        C      0.692300000000     0.364400000000     0.364400000000     0          
C        C      0.673400000000     0.354800000000     0.354800000000     0          
C        C      0.635900000000     0.336000000000     0.336000000000     0          
H        H      0.623300000000     0.329600000000     0.329600000000     0          
C        C      0.367000000000     0.940240000000     0.440240000000     0          
H        H      0.380000000000     0.946200000000     0.446200000000     0          
C        C      0.327300000000     0.925210000000     0.425210000000     0          
C        C      0.306300000000     0.915890000000     0.415890000000     0          
C        C      0.289600000000     0.908480000000     0.408480000000     0          
C        C      0.268400000000     0.899100000000     0.399100000000     0          
C        C      0.229100000000     0.882880000000     0.382880000000     0          
C        C      0.209600000000     0.873000000000     0.373000000000     0          
C        C      0.192300000000     0.864400000000     0.364400000000     0          
C        C      0.173400000000     0.854800000000     0.354800000000     0          
C        C      0.135900000000     0.836000000000     0.336000000000     0          
H        H      0.123300000000     0.829600000000     0.329600000000     0          
C        C      0.367000000000     0.440240000000     0.940240000000     0          
H        H      0.380000000000     0.446200000000     0.946200000000     0          
C        C      0.327300000000     0.425210000000     0.925210000000     0          
C        C      0.306300000000     0.415890000000     0.915890000000     0          
C        C      0.289600000000     0.408480000000     0.908480000000     0          
C        C      0.268400000000     0.399100000000     0.899100000000     0          
C        C      0.229100000000     0.382880000000     0.882880000000     0          
C        C      0.209600000000     0.373000000000     0.873000000000     0          
C        C      0.192300000000     0.364400000000     0.864400000000     0          
C        C      0.173400000000     0.354800000000     0.854800000000     0          
C        C      0.135900000000     0.336000000000     0.836000000000     0          
H        H      0.123300000000     0.329600000000     0.829600000000     0          


