# generated using pymatgen
data_MnH22C25(NO)4
_symmetry_space_group_name_H-M   'P 1'
_cell_length_a   12.49721226
_cell_length_b   12.49716902
_cell_length_c   27.93766301
_cell_angle_alpha   97.09933404
_cell_angle_beta   97.09917637
_cell_angle_gamma   95.56488191
_symmetry_Int_Tables_number   1
_chemical_formula_structural   MnH22C25(NO)4
_chemical_formula_sum   'Mn6 H132 C150 N24 O24'
_cell_volume   4268.64720890
_cell_formula_units_Z   6
loop_
 _symmetry_equiv_pos_site_id
 _symmetry_equiv_pos_as_xyz
  1  'x, y, z'
loop_
 _atom_site_type_symbol
 _atom_site_label
 _atom_site_symmetry_multiplicity
 _atom_site_fract_x
 _atom_site_fract_y
 _atom_site_fract_z
 _atom_site_occupancy
 _atom_site_pbe_bader_charge
 _atom_site_pbe_bader_spin_density
 _atom_site_pbe_cm5_charge
 _atom_site_pbe_ddec_charge
 _atom_site_pbe_ddec_spin_density
 _atom_site_pbe_ddec_sum_bond_order
 _atom_site_pbe_magmom
Mn  Mn0  1  0.83547726  0.59729620  0.08945526  1  1.478933  4.52451  0.612777  0.875021  4.648812  2.431664  4.436
Mn  Mn1  1  0.40267686  0.16455403  0.41055758  1  1.478959  4.52443  0.612795  0.874931  4.648697  2.431644  4.436
Mn  Mn2  1  0.16456540  0.40261949  0.91054977  1  1.478166  4.524554  0.612713  0.874797  4.648557  2.431956  4.436
Mn  Mn3  1  0.59735007  0.83545912  0.58944766  1  1.478479  4.524504  0.612747  0.87484  4.648588  2.431943  4.436
Mn  Mn4  1  0.99996392  0.49991764  0.00000415  1  1.571675  4.516862  0.619277  1.091566  4.663753  2.343952  4.462
Mn  Mn5  1  0.49998320  0.00001619  0.49999387  1  1.57157  4.516902  0.619333  1.091661  4.663835  2.343621  4.462
H  H6  1  0.03877865  0.88602172  0.05986803  1  0.063866  0.001207  0.098388  0.138458  0.000688  0.984134  0.001
H  H7  1  0.90812672  0.88089946  0.02633537  1  0.058074  0.000721  0.098336  0.141927  0.000351  0.981011  0.0
H  H8  1  0.96035382  0.75915069  0.04162587  1  0.09826  0.00068  0.107259  0.15362  -0.000106  1.030147  0.0
H  H9  1  0.54647404  0.58106744  0.03192044  1  0.080047  0.000782  0.099584  0.142691  0.000253  1.009594  0.001
H  H10  1  0.46701155  0.48833598  0.06040448  1  0.077536  0.000326  0.093085  0.135492  0.000138  1.031553  0.0
H  H11  1  0.60532908  0.47048334  0.05380347  1  0.089934  0.000808  0.10304  0.152695  0.000216  1.002406  0.0
H  H12  1  0.18562388  0.75422100  0.77368159  1  0.093007  1.6e-05  0.133574  0.096868  3e-06  0.977254  0.0
H  H13  1  0.00681041  0.23825906  0.05092848  1  0.11864  0.000108  0.106766  0.112745  -0.000455  1.02488  0.0
H  H14  1  0.69850612  0.25540763  0.10195256  1  0.090647  0.000311  0.100245  0.097615  1.5e-05  1.047963  0.0
H  H15  1  0.18522728  0.65301783  0.05342546  1  0.138788  0.000711  0.1087  0.118119  -4.2e-05  1.052411  0.0
H  H16  1  0.79768654  0.76936575  0.23077926  1  0.098918  0.000312  0.138829  0.107526  2e-06  0.968206  0.0
H  H17  1  0.85829619  0.66703784  0.19550945  1  0.165816  0.001853  0.149953  0.12876  0.001715  0.959981  0.0
H  H18  1  0.38810223  0.58752164  0.20953436  1  0.039279  3.3e-05  0.092901  0.088888  -2e-06  1.033588  0.0
H  H19  1  0.02326124  0.06255471  0.08346147  1  0.078321  7.9e-05  0.100683  0.10156  2e-06  1.015124  0.0
H  H20  1  0.82190546  0.63317966  0.88811864  1  0.126552  0.000229  0.105828  0.110075  -0.00016  1.009171  0.0
H  H21  1  0.38558429  0.67674833  0.06532884  1  0.067868  6.7e-05  0.102182  0.106566  -2.6e-05  0.99314  0.0
H  H22  1  0.18517979  0.56978677  0.19793767  1  0.092686  0.000387  0.098665  0.099242  0.000123  1.024617  0.0
H  H23  1  0.61078588  0.72636653  0.99186252  1  0.064679  0.000345  0.104744  0.106105  -9.3e-05  1.007583  0.0
H  H24  1  0.69599912  0.69182391  0.82209439  1  0.044851  0.000129  0.089902  0.083113  6e-05  1.045148  0.0
H  H25  1  0.26170059  0.61062994  0.82634545  1  0.097908  0.00017  0.101599  0.146665  2e-06  1.00208  0.0
H  H26  1  0.38863202  0.58835890  0.85687300  1  0.068195  8.3e-05  0.098582  0.144039  -0.000184  1.019611  0.0
H  H27  1  0.35339728  0.54189261  0.79366247  1  0.04146  3.2e-05  0.093114  0.132229  -1.8e-05  0.995114  0.0
H  H28  1  0.70806778  0.07610107  0.13085160  1  0.058211  7.1e-05  0.099745  0.104907  8e-06  1.009597  0.0
H  H29  1  0.48370858  0.78424630  0.92609729  1  0.07108  0.000134  0.099902  0.102655  6.3e-05  1.010424  0.0
H  H30  1  0.59018904  0.00127391  0.78156733  1  0.061696  7.5e-05  0.099388  0.144853  -3e-06  0.987803  0.0
H  H31  1  0.68140733  0.91537513  0.80705568  1  0.036051  1.4e-05  0.087924  0.119183  -2.4e-05  1.009647  0.0
H  H32  1  0.61323970  0.99898034  0.84580518  1  0.06739  1.2e-05  0.095751  0.135717  1e-05  0.982304  0.0
H  H33  1  0.82869572  0.06552894  0.21105790  1  0.050996  0.000119  0.09816  0.135273  5.9e-05  1.027771  0.0
H  H34  1  0.81653031  0.95226174  0.24332480  1  0.062104  0.000486  0.098944  0.136788  0.000232  0.989429  0.0
H  H35  1  0.70439110  0.98188970  0.20328343  1  0.055108  0.001099  0.097594  0.139029  0.000653  1.019731  0.001
H  H36  1  0.59191214  0.72312192  0.26047995  1  0.044877  0.000589  0.096398  0.13514  0.000326  1.019918  0.0
H  H37  1  0.48906096  0.77732733  0.22466974  1  0.08424  0.000335  0.105953  0.153107  0.000198  0.994267  0.0
H  H38  1  0.62309458  0.84389237  0.23497705  1  0.049209  0.000403  0.099455  0.139673  0.000209  1.01215  0.0
H  H39  1  0.11398338  0.96122820  0.44013254  1  0.064016  0.001208  0.09835  0.138383  0.000688  0.984015  0.001
H  H40  1  0.11909638  0.09187205  0.47366559  1  0.057874  0.000721  0.09839  0.141985  0.000351  0.980987  0.0
H  H41  1  0.24084501  0.03965789  0.45837821  1  0.098334  0.000682  0.107247  0.153528  -0.000103  1.030251  0.0
H  H42  1  0.41893162  0.45355552  0.46808637  1  0.079294  0.000782  0.099602  0.142743  0.000253  1.009525  0.001
H  H43  1  0.51165494  0.53301846  0.43959688  1  0.07667  0.000326  0.093075  0.135452  0.000138  1.031714  0.0
H  H44  1  0.52951793  0.39470616  0.44620117  1  0.089386  0.000808  0.103045  0.152665  0.000216  1.002451  0.0
H  H45  1  0.24578124  0.81438314  0.72632724  1  0.093089  1.6e-05  0.133574  0.096885  3e-06  0.977276  0.0
H  H46  1  0.76172082  0.99320833  0.44907069  1  0.118899  0.000108  0.106736  0.112661  -0.000455  1.024926  0.0
H  H47  1  0.74459999  0.30151734  0.39803910  1  0.090715  0.000312  0.100232  0.097583  1.5e-05  1.048031  0.0
H  H48  1  0.34693023  0.81480220  0.44654582  1  0.13967  0.000714  0.108826  0.118151  -4e-05  1.052577  0.0
H  H49  1  0.23064730  0.20232534  0.26922730  1  0.098373  0.000313  0.138962  0.107658  2e-06  0.968273  0.0
H  H50  1  0.33297442  0.14171334  0.30449435  1  0.165834  0.001853  0.149929  0.128693  0.001714  0.960105  0.0
H  H51  1  0.41249887  0.61188582  0.29045567  1  0.034193  3.3e-05  0.092957  0.089022  -2e-06  1.033481  0.0
H  H52  1  0.93743559  0.97674966  0.41654669  1  0.07858  7.9e-05  0.100653  0.101385  2e-06  1.015017  0.0
H  H53  1  0.36681785  0.17807019  0.61191107  1  0.126195  0.000229  0.105739  0.1099  -0.00016  1.009146  0.0
H  H54  1  0.32323513  0.61444055  0.43465800  1  0.068226  6.7e-05  0.102148  0.106562  -2.6e-05  0.993181  0.0
H  H55  1  0.43020240  0.81480855  0.30203571  1  0.091843  0.000385  0.098677  0.099206  0.000122  1.025136  0.0
H  H56  1  0.27366229  0.38917604  0.50815758  1  0.065359  0.000345  0.104795  0.106107  -9.3e-05  1.007469  0.0
H  H57  1  0.30816648  0.30398836  0.67792708  1  0.044487  0.000129  0.089935  0.083236  6e-05  1.045258  0.0
H  H58  1  0.38935139  0.73830465  0.67365665  1  0.097944  0.00017  0.101635  0.146749  3e-06  1.001873  0.0
H  H59  1  0.41163105  0.61137778  0.64313010  1  0.068398  8.3e-05  0.09859  0.144078  -0.000184  1.019677  0.0
H  H60  1  0.45810490  0.64661707  0.70633807  1  0.041573  3.2e-05  0.093112  0.132225  -1.9e-05  0.99521  0.0
H  H61  1  0.92390516  0.29193969  0.36914616  1  0.058009  7.1e-05  0.099776  0.104928  8e-06  1.009627  0.0
H  H62  1  0.21576949  0.51628063  0.57391904  1  0.071031  0.000134  0.09985  0.10258  6.3e-05  1.010257  0.0
H  H63  1  0.99872289  0.40981063  0.71843733  1  0.061419  7.5e-05  0.09941  0.144875  -3e-06  0.988001  0.0
H  H64  1  0.08461715  0.31859292  0.69294883  1  0.036171  1.4e-05  0.087927  0.119229  -2.4e-05  1.009603  0.0
H  H65  1  0.00101610  0.38677109  0.65420165  1  0.067439  1.2e-05  0.095776  0.135741  1e-05  0.98227  0.0
H  H66  1  0.93448718  0.17130072  0.28894259  1  0.051267  0.000119  0.098101  0.135174  5.9e-05  1.027794  0.0
H  H67  1  0.04775286  0.18346788  0.25667474  1  0.062162  0.000486  0.09895  0.136801  0.000232  0.989333  0.0
H  H68  1  0.01812344  0.29560709  0.29671754  1  0.055235  0.001101  0.097598  0.139079  0.000654  1.019661  0.001
H  H69  1  0.27690149  0.40810279  0.23952207  1  0.044797  0.00059  0.096371  0.135091  0.000326  1.020068  0.0
H  H70  1  0.22269809  0.51094599  0.27533311  1  0.084535  0.000336  0.106004  0.153179  0.000198  0.99414  0.0
H  H71  1  0.15612702  0.37691719  0.26501854  1  0.049853  0.000403  0.099356  0.139487  0.00021  1.012153  0.0
H  H72  1  0.96122066  0.11398439  0.94013208  1  0.063913  0.00121  0.098417  0.138493  0.000689  0.984103  0.001
H  H73  1  0.09185463  0.11908131  0.97367202  1  0.057636  0.000722  0.098447  0.142056  0.000352  0.981146  0.0
H  H74  1  0.03964949  0.24084215  0.95838841  1  0.098729  0.000684  0.107255  0.153555  -0.000102  1.030302  0.0
H  H75  1  0.45355850  0.41893181  0.96808650  1  0.079264  0.000783  0.099584  0.142693  0.000253  1.009476  0.001
H  H76  1  0.53303231  0.51165643  0.93960092  1  0.076914  0.000326  0.093045  0.135469  0.000138  1.031736  0.0
H  H77  1  0.39471729  0.52952467  0.94619791  1  0.089352  0.000808  0.103041  0.152667  0.000216  1.002324  0.0
H  H78  1  0.81437626  0.24578843  0.22632341  1  0.093082  1.6e-05  0.133603  0.096902  3e-06  0.97728  0.0
H  H79  1  0.99318949  0.76170196  0.94907312  1  0.118595  0.000108  0.106802  0.112783  -0.000454  1.024578  0.0
H  H80  1  0.30150533  0.74459334  0.89803756  1  0.090902  0.000311  0.100176  0.097451  1.5e-05  1.047969  0.0
H  H81  1  0.81484837  0.34685303  0.94650554  1  0.141364  0.000716  0.108746  0.117944  -3.8e-05  1.052967  0.0
H  H82  1  0.20232818  0.23063801  0.76923374  1  0.098447  0.000314  0.138951  0.10766  3e-06  0.968301  0.0
H  H83  1  0.14171531  0.33297202  0.80450085  1  0.166258  0.001853  0.149985  0.128807  0.001715  0.960132  0.0
H  H84  1  0.61187035  0.41249525  0.79044160  1  0.033789  3.3e-05  0.092929  0.089033  -2e-06  1.033843  0.0
H  H85  1  0.97673307  0.93742345  0.91655508  1  0.078315  7.9e-05  0.100651  0.101578  2e-06  1.015173  0.0
H  H86  1  0.17803464  0.36682163  0.11192948  1  0.127075  0.000229  0.105965  0.110274  -0.00016  1.009479  0.0
H  H87  1  0.61449188  0.32322017  0.93464194  1  0.068302  6.7e-05  0.102183  0.106479  -2.6e-05  0.993247  0.0
H  H88  1  0.81478996  0.43015480  0.80199962  1  0.091735  0.000384  0.098696  0.099455  0.000121  1.025154  0.0
H  H89  1  0.38912440  0.27367505  0.00816828  1  0.06553  0.000345  0.104934  0.106079  -9.4e-05  1.007434  0.0
H  H90  1  0.30397913  0.30818395  0.17793830  1  0.044771  0.000129  0.089782  0.082959  6e-05  1.045519  0.0
H  H91  1  0.73828815  0.38937098  0.17365344  1  0.098085  0.000171  0.101647  0.146722  3e-06  1.002014  0.0
H  H92  1  0.61135997  0.41164319  0.14312685  1  0.068272  8.3e-05  0.09858  0.14404  -0.000184  1.019663  0.0
H  H93  1  0.64660046  0.45812300  0.20633593  1  0.041609  3.3e-05  0.093126  0.13226  -1.8e-05  0.995183  0.0
H  H94  1  0.29192258  0.92389842  0.86915409  1  0.058461  7.1e-05  0.099754  0.104859  9e-06  1.009708  0.0
H  H95  1  0.51624463  0.21578462  0.07392134  1  0.070727  0.000134  0.099877  0.102652  6.3e-05  1.010519  0.0
H  H96  1  0.40980786  0.99873517  0.21844391  1  0.061602  7.5e-05  0.099453  0.144914  -3e-06  0.987945  0.0
H  H97  1  0.31859117  0.08463009  0.19295364  1  0.035904  1.4e-05  0.088019  0.119351  -2.4e-05  1.009538  0.0
H  H98  1  0.38676860  0.00103723  0.15420608  1  0.067821  1.2e-05  0.095732  0.135775  1e-05  0.98214  0.0
H  H99  1  0.17128091  0.93448277  0.78895487  1  0.051073  0.000119  0.098153  0.135308  5.9e-05  1.027764  0.0
H  H100  1  0.18345600  0.04774054  0.75668226  1  0.062361  0.000487  0.099003  0.136898  0.000232  0.989316  0.0
H  H101  1  0.29559520  0.01810854  0.79672412  1  0.055148  0.001103  0.097619  0.139117  0.000655  1.019687  0.001
H  H102  1  0.40809292  0.27689932  0.73951666  1  0.044769  0.000591  0.096373  0.135066  0.000327  1.020108  0.0
H  H103  1  0.51094169  0.22269849  0.77532699  1  0.084356  0.000336  0.105951  0.153063  0.000198  0.994214  0.0
H  H104  1  0.37691048  0.15612969  0.76501997  1  0.049608  0.000403  0.099361  0.139448  0.00021  1.012149  0.0
H  H105  1  0.88600294  0.03877569  0.55986601  1  0.064035  0.001209  0.098412  0.138416  0.000689  0.984055  0.001
H  H106  1  0.88090049  0.90813298  0.52632932  1  0.057915  0.000722  0.098413  0.142006  0.000352  0.981052  0.0
H  H107  1  0.75914050  0.96034752  0.54161573  1  0.098621  0.000683  0.107213  0.153534  -0.000103  1.030351  0.0
H  H108  1  0.58106701  0.54647552  0.53192403  1  0.079783  0.000782  0.099574  0.142744  0.000253  1.009597  0.001
H  H109  1  0.48833145  0.46699914  0.56040172  1  0.077347  0.000326  0.09306  0.135538  0.000138  1.031517  0.0
H  H110  1  0.47047500  0.60532103  0.55380906  1  0.089098  0.000808  0.103019  0.152691  0.000216  1.002454  0.0
H  H111  1  0.75421084  0.18563508  0.27367887  1  0.093193  1.6e-05  0.133567  0.09682  3e-06  0.97729  0.0
H  H112  1  0.23824937  0.00681475  0.55091623  1  0.118385  0.000108  0.106809  0.112855  -0.000455  1.024614  0.0
H  H113  1  0.25541080  0.69851581  0.60195097  1  0.090874  0.000311  0.100236  0.097594  1.5e-05  1.047958  0.0
H  H114  1  0.65309255  0.18519276  0.55345712  1  0.140146  0.000714  0.10884  0.118108  -4e-05  1.052655  0.0
H  H115  1  0.76937230  0.79768298  0.73077405  1  0.099063  0.000313  0.138868  0.107539  3e-06  0.968338  0.0
H  H116  1  0.66703952  0.85829759  0.69550683  1  0.163746  0.001857  0.149949  0.128727  0.001715  0.96005  0.0
H  H117  1  0.58750281  0.38810764  0.70954280  1  0.038999  3.3e-05  0.092947  0.088937  -2e-06  1.033547  0.0
H  H118  1  0.06254103  0.02326042  0.58344559  1  0.078268  7.9e-05  0.100626  0.101472  2e-06  1.015203  0.0
H  H119  1  0.63318149  0.82193836  0.38811423  1  0.126234  0.000229  0.10584  0.110002  -0.000161  1.009179  0.0
H  H120  1  0.67677707  0.38554680  0.56534322  1  0.068324  6.7e-05  0.102108  0.106499  -2.6e-05  0.993332  0.0
H  H121  1  0.56980819  0.18518185  0.69796057  1  0.092054  0.000385  0.098777  0.099322  0.000122  1.025  0.0
H  H122  1  0.72635152  0.61080827  0.49185538  1  0.064917  0.000345  0.104772  0.106139  -9.3e-05  1.00747  0.0
H  H123  1  0.69181992  0.69602844  0.32209044  1  0.044663  0.000129  0.089811  0.08293  6e-05  1.045297  0.0
H  H124  1  0.61062044  0.26172185  0.32634486  1  0.097823  0.000171  0.101618  0.146695  3e-06  1.001964  0.0
H  H125  1  0.58835706  0.38865775  0.35687137  1  0.069136  8.3e-05  0.098559  0.14398  -0.000184  1.019722  0.0
H  H126  1  0.54188077  0.35341900  0.29366115  1  0.041454  3.3e-05  0.093167  0.132228  -1.8e-05  0.995077  0.0
H  H127  1  0.07610719  0.70807993  0.63084791  1  0.058445  7.1e-05  0.099778  0.104872  8e-06  1.009701  0.0
H  H128  1  0.78424690  0.48373299  0.42609531  1  0.071075  0.000134  0.099866  0.102729  6.3e-05  1.010326  0.0
H  H129  1  0.00127405  0.59020813  0.28157159  1  0.06188  7.5e-05  0.099352  0.14484  -3e-06  0.987872  0.0
H  H130  1  0.91536919  0.68141339  0.30705738  1  0.035879  1.4e-05  0.087949  0.119229  -2.4e-05  1.009713  0.0
H  H131  1  0.99897031  0.61324974  0.34580644  1  0.067597  1.2e-05  0.095794  0.1358  1e-05  0.982256  0.0
H  H132  1  0.06552678  0.82871665  0.71105036  1  0.050778  0.000119  0.098144  0.135291  5.9e-05  1.027931  0.0
H  H133  1  0.95226923  0.81655199  0.74331880  1  0.062254  0.000487  0.098953  0.136856  0.000232  0.989455  0.0
H  H134  1  0.98190106  0.70440821  0.70328447  1  0.05513  0.001101  0.097598  0.139084  0.000654  1.019704  0.001
H  H135  1  0.72311818  0.59191844  0.76048286  1  0.044947  0.00059  0.096405  0.135164  0.000326  1.019891  0.0
H  H136  1  0.77732640  0.48906609  0.72467624  1  0.083983  0.000336  0.105962  0.153189  0.000198  0.994285  0.0
H  H137  1  0.84388614  0.62310011  0.73497938  1  0.049246  0.000403  0.099471  0.139707  0.000209  1.012103  0.0
C  C138  1  0.90664828  0.85601437  0.10079423  1  0.500968  0.01832  0.116315  0.245597  0.014631  3.967381  0.013
C  C139  1  0.95559658  0.84458156  0.05464238  1  -0.096336  0.000863  -0.231729  -0.433921  0.000629  3.94103  0.0
C  C140  1  0.54859446  0.53018081  0.06132015  1  -0.095034  0.000968  -0.235304  -0.443643  0.000882  3.953324  0.0
C  C141  1  0.79474243  0.63282227  0.98258121  1  1.575674  0.018592  0.226623  0.589702  0.018469  4.187614  0.017
C  C142  1  0.05113430  0.59087349  0.11754756  1  1.540935  0.017215  0.211812  0.577706  0.017027  4.158109  0.014
C  C143  1  0.40181363  0.63378483  0.13832010  1  -0.036826  0.003569  -0.00608  0.108797  0.002755  4.031406  0.002
C  C144  1  0.52088919  0.64307599  0.14367257  1  0.051129  5e-05  -0.028739  -0.172642  -0.000413  4.025085  -0.001
C  C145  1  0.94254729  0.20159295  0.06877763  1  -0.013884  0.005843  -0.083146  -0.085966  0.004332  3.972573  0.004
C  C146  1  0.87138930  0.94985469  0.12583186  1  0.006195  -0.000697  -0.033893  -0.173667  -0.001098  4.039886  -0.002
C  C147  1  0.40092625  0.71325633  0.81217928  1  0.362853  0.000285  0.094279  0.147489  0.00026  3.980586  0.0
C  C148  1  0.84389267  0.36315522  0.05630749  1  1.567357  0.030283  0.227628  0.600148  0.029157  4.170011  0.025
C  C149  1  0.76884589  0.21183214  0.09791823  1  -0.055613  0.006631  -0.092336  -0.10298  0.004931  4.015431  0.004
C  C150  1  0.59503127  0.69761463  0.18274886  1  0.366322  0.009065  0.100996  0.153733  0.007024  3.971759  0.006
C  C151  1  0.22949612  0.63969737  0.08786897  1  0.004605  0.003598  -0.079629  -0.080641  0.002505  3.952668  0.002
C  C152  1  0.80318156  0.73038247  0.19400749  1  0.609146  0.002881  0.076333  -0.019248  0.002749  3.888519  0.001
C  C153  1  0.50260559  0.76952106  0.83038352  1  0.039257  1.6e-05  -0.041933  -0.189775  1.8e-05  4.049177  0.0
C  C154  1  0.86726657  0.05658274  0.10971837  1  -0.04368  0.006843  -0.011773  0.101231  0.005282  4.046907  0.004
C  C155  1  0.34366840  0.60458123  0.17570795  1  0.018986  -0.000526  -0.098816  -0.151823  -0.00059  4.004086  0.0
C  C156  1  0.58499802  0.59728250  0.10939894  1  0.450883  0.012326  0.11703  0.239719  0.00952  3.981665  0.009
C  C157  1  0.95096803  0.10355988  0.08690473  1  -0.091073  -0.001047  -0.095714  -0.145481  -0.001208  3.990937  -0.001
C  C158  1  0.74804701  0.66729267  0.89603295  1  -0.022008  0.003465  -0.081724  -0.080089  0.002498  3.982742  0.002
C  C159  1  0.58054348  0.74047819  0.86939531  1  -0.029154  0.002999  -0.004104  0.120723  0.002356  4.015079  0.002
C  C160  1  0.85145438  0.25656588  0.07438393  1  -0.024994  0.001854  -0.017925  -0.034504  0.000334  3.987073  0.0
C  C161  1  0.72299070  0.67480389  0.94376572  1  -0.048344  0.003352  -0.022242  -0.052322  0.002102  3.983112  0.002
C  C162  1  0.51178080  0.86072254  0.80453548  1  0.476842  0.000215  0.087104  0.200645  0.000152  4.066072  0.0
C  C163  1  0.34235438  0.65212901  0.09451921  1  -0.091519  -0.000342  -0.090409  -0.134326  -0.000527  3.961977  0.0
C  C164  1  0.23067575  0.59314704  0.16928287  1  -0.143081  0.004066  -0.086808  -0.094384  0.003039  4.000836  0.003
C  C165  1  0.17230349  0.60880332  0.12502675  1  -0.000536  -0.000177  -0.017529  -0.03551  -0.001436  3.969089  -0.001
C  C166  1  0.83352308  0.91659674  0.16725593  1  0.371146  0.013143  0.098014  0.15649  0.010293  3.965553  0.008
C  C167  1  0.62835491  0.71891329  0.95441718  1  -0.030079  0.003455  -0.084063  -0.088696  0.002482  4.00429  0.002
C  C168  1  0.67765057  0.70009690  0.85945855  1  -0.075816  -0.000515  -0.096378  -0.144528  -0.000558  3.991369  0.0
C  C169  1  0.34797994  0.60854617  0.82270159  1  -0.06561  0.000219  -0.237172  -0.428718  -2.8e-05  3.980264  0.0
C  C170  1  0.77564851  0.11236257  0.11477037  1  -0.051393  -0.001651  -0.099002  -0.149134  -0.001765  3.987657  -0.001
C  C171  1  0.55783132  0.75096819  0.91769133  1  -0.075281  -0.00058  -0.093987  -0.144032  -0.000645  3.975477  -0.001
C  C172  1  0.60386402  0.94883240  0.80994768  1  -0.073968  3.3e-05  -0.232202  -0.411451  -1.5e-05  3.977522  0.0
C  C173  1  0.79305397  0.98096282  0.20830666  1  -0.045677  0.000447  -0.232978  -0.432468  0.000536  3.997396  0.0
C  C174  1  0.57492152  0.76387887  0.22810393  1  -0.057581  0.000654  -0.229911  -0.428483  0.00068  3.976665  0.0
C  C175  1  0.14399171  0.09336443  0.39920984  1  0.501934  0.018328  0.116317  0.245618  0.014641  3.967341  0.013
C  C176  1  0.15542027  0.04441040  0.44535932  1  -0.096412  0.000864  -0.23174  -0.433832  0.000631  3.940961  0.0
C  C177  1  0.46981510  0.45143314  0.43868563  1  -0.092813  0.000966  -0.235323  -0.443549  0.000882  3.9533  0.0
C  C178  1  0.36718334  0.20527239  0.51743072  1  1.577019  0.018621  0.226631  0.589516  0.018505  4.18763  0.017
C  C179  1  0.40909490  0.94887952  0.38240039  1  1.54088  0.017158  0.211594  0.577593  0.016986  4.158587  0.014
C  C180  1  0.36620591  0.59820092  0.36166941  1  -0.037722  0.003556  -0.006088  0.108665  0.002745  4.031385  0.002
C  C181  1  0.35693092  0.47912411  0.35632773  1  0.051562  4.9e-05  -0.028834  -0.172768  -0.000413  4.025279  -0.001
C  C182  1  0.79839640  0.05747323  0.43122129  1  -0.01416  0.005826  -0.083188  -0.085906  0.004318  3.973039  0.004
C  C183  1  0.05015047  0.12861540  0.37417071  1  0.006469  -0.000698  -0.033863  -0.173677  -0.001099  4.039821  -0.002
C  C184  1  0.28674614  0.59907127  0.68783320  1  0.363292  0.000285  0.094109  0.1473  0.00026  3.980763  0.0
C  C185  1  0.63682954  0.15611092  0.44367714  1  1.567343  0.030186  0.227828  0.600303  0.029062  4.169592  0.025
C  C186  1  0.78817210  0.23117188  0.40207752  1  -0.055469  0.006611  -0.092371  -0.103145  0.004916  4.015737  0.004
C  C187  1  0.30239928  0.40497585  0.31725291  1  0.366953  0.009072  0.100992  0.15365  0.00703  3.971707  0.006
C  C188  1  0.36027892  0.77053315  0.41210633  1  0.003105  0.003587  -0.079723  -0.080681  0.002498  3.953445  0.002
C  C189  1  0.26962741  0.19682554  0.30599826  1  0.609523  0.002884  0.076196  -0.019413  0.00275  3.888813  0.001
C  C190  1  0.23048305  0.49738502  0.66963330  1  0.040497  1.6e-05  -0.041759  -0.189806  1.8e-05  4.04967  0.0
C  C191  1  0.94341977  0.13273941  0.39028331  1  -0.042763  0.006826  -0.011709  0.101133  0.005269  4.046794  0.004
C  C192  1  0.39543309  0.65632364  0.32427878  1  0.019037  -0.000522  -0.09879  -0.15175  -0.000586  4.004008  0.0
C  C193  1  0.40271292  0.41501518  0.39060639  1  0.449801  0.012332  0.117177  0.239904  0.009523  3.981212  0.009
C  C194  1  0.89642657  0.04904309  0.41309776  1  -0.091043  -0.001043  -0.095705  -0.14523  -0.001203  3.990891  -0.001
C  C195  1  0.33270880  0.25193073  0.60399357  1  -0.021454  0.00347  -0.0817  -0.079925  0.002501  3.982557  0.002
C  C196  1  0.25952395  0.41944404  0.63062511  1  -0.02936  0.003005  -0.004136  0.120733  0.00236  4.015364  0.002
C  C197  1  0.74342361  0.14856478  0.42560856  1  -0.025748  0.001858  -0.017824  -0.034255  0.000338  3.986872  0.0
C  C198  1  0.32520539  0.27698727  0.55626055  1  -0.049263  0.003351  -0.022343  -0.05228  0.002099  3.982524  0.002
C  C199  1  0.13927447  0.48822047  0.69547657  1  0.475709  0.000215  0.087099  0.200797  0.000152  4.06602  0.0
C  C200  1  0.34785869  0.65767340  0.40546768  1  -0.090143  -0.000339  -0.090493  -0.13444  -0.000524  3.962246  0.0
C  C201  1  0.40685045  0.76931751  0.33069231  1  -0.141905  0.004052  -0.08669  -0.094356  0.003028  4.001138  0.003
C  C202  1  0.39117000  0.82769953  0.37494302  1  -0.000856  -0.000171  -0.01758  -0.035401  -0.001429  3.969037  -0.001
C  C203  1  0.08341048  0.16647643  0.33274540  1  0.370981  0.01316  0.098092  0.156712  0.010306  3.965304  0.008
C  C204  1  0.28110901  0.37162957  0.54560665  1  -0.029309  0.00346  -0.08412  -0.088913  0.002486  4.003805  0.002
C  C205  1  0.29990943  0.32233760  0.64056457  1  -0.076315  -0.000516  -0.096419  -0.144708  -0.00056  3.991842  0.0
C  C206  1  0.39144208  0.65202348  0.67730181  1  -0.066266  0.000219  -0.237219  -0.428783  -2.7e-05  3.980393  0.0
C  C207  1  0.88763554  0.22435968  0.38522661  1  -0.051313  -0.001646  -0.099087  -0.149126  -0.001759  3.987869  -0.001
C  C208  1  0.24905093  0.44215680  0.58232793  1  -0.075732  -0.000581  -0.093779  -0.143693  -0.000647  3.974943  -0.001
C  C209  1  0.05116550  0.39614099  0.69005818  1  -0.073484  3.3e-05  -0.232239  -0.411551  -1.5e-05  3.977668  0.0
C  C210  1  0.01905013  0.20694483  0.29169249  1  -0.045892  0.000448  -0.232902  -0.432413  0.000537  3.997253  0.0
C  C211  1  0.23614149  0.42508697  0.27189616  1  -0.058325  0.000654  -0.229855  -0.428301  0.00068  3.976533  0.0
C  C212  1  0.09337052  0.14399387  0.89922175  1  0.503243  0.018357  0.116438  0.245869  0.014666  3.96696  0.013
C  C213  1  0.04440189  0.15541721  0.94536730  1  -0.096711  0.000864  -0.231918  -0.434142  0.000632  3.941623  0.0
C  C214  1  0.45144537  0.46981842  0.93868647  1  -0.092995  0.000966  -0.235233  -0.443435  0.000881  3.952932  0.0
C  C215  1  0.20526248  0.36716510  0.01743321  1  1.575716  0.018636  0.226501  0.589246  0.018514  4.18837  0.017
C  C216  1  0.94889028  0.40900952  0.88233726  1  1.535783  0.017094  0.211683  0.577619  0.016918  4.159808  0.014
C  C217  1  0.59821318  0.36620894  0.86165759  1  -0.038255  0.00354  -0.00627  0.108834  0.002732  4.031655  0.002
C  C218  1  0.47913370  0.35694155  0.85632482  1  0.051528  4.9e-05  -0.028769  -0.172824  -0.000414  4.025356  -0.001
C  C219  1  0.05745428  0.79837873  0.93122357  1  -0.013782  0.005803  -0.083014  -0.085635  0.0043  3.9723  0.004
C  C220  1  0.12860268  0.05014337  0.87418065  1  0.005439  -0.000695  -0.033752  -0.173381  -0.001098  4.039278  -0.002
C  C221  1  0.59905772  0.28676424  0.18783439  1  0.362982  0.000285  0.094314  0.147587  0.00026  3.980666  0.0
C  C222  1  0.15607387  0.63679166  0.94365748  1  1.566538  0.03009  0.227793  0.600346  0.028971  4.169974  0.025
C  C223  1  0.23115740  0.78815827  0.90207909  1  -0.054866  0.006589  -0.092204  -0.102598  0.004899  4.015386  0.004
C  C224  1  0.40498270  0.30240356  0.81725237  1  0.366984  0.009088  0.10095  0.153757  0.007043  3.97163  0.006
C  C225  1  0.77056283  0.36023780  0.91207612  1  0.00037  0.003578  -0.07941  -0.080013  0.002489  3.953153  0.002
C  C226  1  0.19683400  0.26962622  0.80600512  1  0.609405  0.002887  0.076018  -0.019629  0.002755  3.889006  0.001
C  C227  1  0.49737111  0.23050195  0.16963883  1  0.040751  1.6e-05  -0.041851  -0.190102  1.8e-05  4.049506  0.0
C  C228  1  0.13272376  0.94340949  0.89029229  1  -0.043199  0.006801  -0.011828  0.100914  0.005249  4.047212  0.004
C  C229  1  0.65631383  0.39541897  0.82425832  1  0.018469  -0.000518  -0.098609  -0.151536  -0.000582  4.0044  0.0
C  C230  1  0.41502883  0.40271532  0.89060653  1  0.449691  0.012348  0.117203  0.239945  0.009536  3.98107  0.009
C  C231  1  0.04902546  0.89641738  0.91310815  1  -0.090776  -0.001039  -0.095797  -0.145697  -0.001199  3.991308  -0.001
C  C232  1  0.25189398  0.33272485  0.10400645  1  -0.02197  0.003473  -0.081968  -0.080591  0.002504  3.983146  0.002
C  C233  1  0.41941942  0.25954170  0.13063327  1  -0.029663  0.003006  -0.004513  0.120377  0.002361  4.015287  0.002
C  C234  1  0.14854150  0.74340518  0.92560225  1  -0.02612  0.00186  -0.018026  -0.034734  0.000344  3.987106  0.0
C  C235  1  0.27695025  0.32520555  0.05627539  1  -0.049435  0.003344  -0.02217  -0.051792  0.002094  3.983247  0.002
C  C236  1  0.48821287  0.13928941  0.19547968  1  0.476439  0.000215  0.087076  0.201064  0.000152  4.065973  0.0
C  C237  1  0.65770149  0.34783809  0.90544644  1  -0.088619  -0.000335  -0.090758  -0.134944  -0.00052  3.962397  0.0
C  C238  1  0.76930947  0.40680751  0.83065993  1  -0.142202  0.004035  -0.086814  -0.094852  0.003015  4.001452  0.003
C  C239  1  0.82770498  0.39109812  0.87490259  1  0.000271  -0.000166  -0.017382  -0.035117  -0.001422  3.96905  -0.001
C  C240  1  0.16647296  0.08340176  0.83275468  1  0.370474  0.013183  0.098087  0.156613  0.010324  3.96534  0.008
C  C241  1  0.37159344  0.28111712  0.04561689  1  -0.02836  0.003464  -0.084426  -0.089184  0.002489  4.004132  0.002
C  C242  1  0.32231799  0.29992039  0.14057735  1  -0.078254  -0.000516  -0.096221  -0.144225  -0.000561  3.991466  0.0
C  C243  1  0.65201046  0.39146220  0.17729994  1  -0.066113  0.000219  -0.237265  -0.428868  -2.7e-05  3.980323  0.0
C  C244  1  0.22434022  0.88763433  0.88523545  1  -0.051503  -0.001638  -0.09901  -0.149071  -0.00175  3.988017  -0.001
C  C245  1  0.44213326  0.24906398  0.08233909  1  -0.074801  -0.000583  -0.093509  -0.143447  -0.000648  3.975212  -0.001
C  C246  1  0.39613613  0.05117864  0.19006421  1  -0.074203  3.3e-05  -0.232357  -0.411886  -1.5e-05  3.977631  0.0
C  C247  1  0.20693316  0.01904035  0.79170085  1  -0.045591  0.000449  -0.23302  -0.43268  0.000538  3.997383  0.0
C  C248  1  0.42508275  0.23614552  0.77189317  1  -0.057812  0.000654  -0.229811  -0.428149  0.00068  3.976549  0.0
C  C249  1  0.85600105  0.90663128  0.60078397  1  0.50284  0.018343  0.116404  0.24562  0.014654  3.967307  0.013
C  C250  1  0.84457008  0.95558989  0.55463533  1  -0.096947  0.000865  -0.231804  -0.433873  0.000632  3.941339  0.0
C  C251  1  0.53017374  0.54858715  0.56132149  1  -0.09393  0.000967  -0.235308  -0.443826  0.000881  3.953323  0.0
C  C252  1  0.63282490  0.79473389  0.48258028  1  1.575981  0.018621  0.226527  0.589522  0.018497  4.18832  0.017
C  C253  1  0.59093600  0.05111552  0.61760909  1  1.540454  0.01714  0.211473  0.577124  0.016967  4.159191  0.014
C  C254  1  0.63379500  0.40180133  0.63833165  1  -0.037318  0.003552  -0.006062  0.108828  0.002741  4.031413  0.002
C  C255  1  0.64307161  0.52087671  0.64367585  1  0.050852  4.8e-05  -0.028806  -0.172696  -0.000414  4.025102  -0.001
C  C256  1  0.20158514  0.94254948  0.56876408  1  -0.01385  0.00582  -0.083182  -0.086006  0.004313  3.972254  0.004
C  C257  1  0.94984800  0.87138497  0.62582116  1  0.005862  -0.000696  -0.033931  -0.173726  -0.001098  4.039618  -0.002
C  C258  1  0.71324349  0.40094507  0.31217231  1  0.362969  0.000285  0.094138  0.147209  0.000261  3.980733  0.0
C  C259  1  0.36317718  0.84391616  0.55632239  1  1.567197  0.030168  0.22782  0.60026  0.029046  4.169817  0.025
C  C260  1  0.21183381  0.76885752  0.59791171  1  -0.055317  0.006603  -0.092259  -0.102871  0.004909  4.015818  0.004
C  C261  1  0.69760651  0.59502613  0.68275127  1  0.366672  0.009077  0.100983  0.1536  0.007034  3.971827  0.006
C  C262  1  0.63974634  0.22947095  0.58789546  1  0.002155  0.003585  -0.079656  -0.080409  0.002495  3.953571  0.002
C  C263  1  0.73038080  0.80317428  0.69400414  1  0.610948  0.002881  0.076265  -0.019203  0.002751  3.888726  0.001
C  C264  1  0.76951062  0.50262612  0.33037609  1  0.040294  1.6e-05  -0.041809  -0.189927  1.8e-05  4.049803  0.0
C  C265  1  0.05657466  0.86726697  0.60970367  1  -0.043045  0.006814  -0.011856  0.10096  0.00526  4.047166  0.004
C  C266  1  0.60457265  0.34366945  0.67571918  1  0.018949  -0.000521  -0.09879  -0.151709  -0.000585  4.004224  0.0
C  C267  1  0.59727502  0.58498808  0.60940189  1  0.451054  0.012334  0.117136  0.23987  0.009526  3.981295  0.009
C  C268  1  0.10354678  0.95096341  0.58688805  1  -0.091494  -0.001042  -0.095712  -0.145426  -0.001203  3.991112  -0.001
C  C269  1  0.66728403  0.74807387  0.39602615  1  -0.021533  0.003472  -0.082025  -0.080347  0.002503  3.982839  0.002
C  C270  1  0.74047378  0.58056996  0.36938823  1  -0.029472  0.003007  -0.00426  0.1206  0.002362  4.015162  0.002
C  C271  1  0.25656850  0.85146151  0.57438332  1  -0.025333  0.00186  -0.017994  -0.034528  0.000341  3.987089  0.0
C  C272  1  0.67479955  0.72300655  0.44375853  1  -0.049549  0.003348  -0.022135  -0.052153  0.002096  3.982928  0.002
C  C273  1  0.86071920  0.51179228  0.30453398  1  0.475458  0.000215  0.087195  0.201073  0.000152  4.066317  0.0
C  C274  1  0.65215682  0.34232641  0.59453476  1  -0.09062  -0.000338  -0.090543  -0.134609  -0.000523  3.962393  0.0
C  C275  1  0.59316748  0.23068095  0.66930662  1  -0.14196  0.004047  -0.086751  -0.094355  0.003024  4.001164  0.003
C  C276  1  0.60886253  0.17229890  0.62505528  1  -0.000625  -0.000171  -0.017798  -0.035703  -0.001429  3.969353  -0.001
C  C277  1  0.91659690  0.83352168  0.66724827  1  0.370471  0.013168  0.098177  0.156835  0.010312  3.965222  0.008
C  C278  1  0.71890162  0.62836811  0.45440794  1  -0.030106  0.003462  -0.083971  -0.088549  0.002487  4.003916  0.002
C  C279  1  0.70008749  0.67767471  0.35945293  1  -0.075991  -0.000517  -0.096211  -0.144202  -0.00056  3.991601  0.0
C  C280  1  0.60853703  0.34799897  0.32269809  1  -0.066632  0.000219  -0.237218  -0.428681  -2.8e-05  3.98006  0.0
C  C281  1  0.11236217  0.77565270  0.61476195  1  -0.051583  -0.001644  -0.098998  -0.148995  -0.001756  3.987817  -0.001
C  C282  1  0.75095892  0.55784643  0.41768478  1  -0.074854  -0.000582  -0.093829  -0.144072  -0.000648  3.975214  -0.001
C  C283  1  0.94882655  0.60387320  0.30994914  1  -0.074105  3.3e-05  -0.23225  -0.411677  -1.5e-05  3.97781  0.0
C  C284  1  0.98096706  0.79306887  0.70830115  1  -0.045444  0.000448  -0.232976  -0.432672  0.000537  3.997664  0.0
C  C285  1  0.76387407  0.57492414  0.72810691  1  -0.057317  0.000653  -0.229946  -0.428626  0.00068  3.976727  0.0
C  C286  1  0.24950565  0.75049576  0.75000315  1  0.699932  2.3e-05  0.066891  -0.008774  2.2e-05  3.900073  0.0
C  C287  1  0.75049128  0.24952057  0.25000134  1  0.699914  2.3e-05  0.066864  -0.008865  2.2e-05  3.900203  0.0
N  N288  1  0.69597033  0.68083023  0.17129751  1  -0.786922  0.004728  -0.1493  0.068088  0.002077  3.758054  0.003
N  N289  1  0.35615783  0.77160480  0.77816378  1  -0.838203  8.5e-05  -0.158792  0.069824  5.8e-05  3.803067  0.0
N  N290  1  0.84722458  0.80907437  0.16566275  1  -0.795196  0.005458  -0.154031  0.06396  0.002631  3.766149  0.004
N  N291  1  0.88904732  0.77081470  0.12475247  1  -0.742093  0.04237  -0.234098  -0.28889  0.028256  3.32703  0.011
N  N292  1  0.69064480  0.62036806  0.12687211  1  -0.759625  0.046674  -0.234964  -0.278344  0.030981  3.340403  0.01
N  N293  1  0.42202634  0.86170688  0.77298840  1  -0.698711  0.000158  -0.251996  -0.332989  8.1e-05  3.147379  0.0
N  N294  1  0.31917117  0.30403845  0.32870789  1  -0.787539  0.004731  -0.149267  0.068476  0.002078  3.757745  0.003
N  N295  1  0.22838809  0.64384791  0.72184152  1  -0.838299  8.5e-05  -0.158753  0.07007  5.8e-05  3.802956  0.0
N  N296  1  0.19093339  0.15278373  0.33434189  1  -0.794787  0.005462  -0.154178  0.063621  0.002634  3.766405  0.004
N  N297  1  0.22919163  0.11096442  0.37525188  1  -0.743791  0.042406  -0.234123  -0.288812  0.028264  3.327192  0.011
N  N298  1  0.37962412  0.30936847  0.37313480  1  -0.759196  0.046662  -0.235103  -0.278713  0.03098  3.340241  0.01
N  N299  1  0.13828520  0.57798242  0.72701775  1  -0.699142  0.000158  -0.251916  -0.333009  8.1e-05  3.147172  0.0
N  N300  1  0.30404685  0.31917944  0.82870951  1  -0.787591  0.004735  -0.149204  0.068351  0.00208  3.757719  0.003
N  N301  1  0.64383988  0.22840355  0.22184138  1  -0.838056  8.5e-05  -0.158817  0.069907  5.8e-05  3.803218  0.0
N  N302  1  0.15280312  0.19093081  0.83435284  1  -0.794541  0.005475  -0.154104  0.063785  0.002642  3.766447  0.004
N  N303  1  0.11098364  0.22919164  0.87526265  1  -0.743841  0.042407  -0.234434  -0.289181  0.028289  3.327567  0.011
N  N304  1  0.30937798  0.37962529  0.87313898  1  -0.758845  0.04667  -0.235136  -0.278662  0.030974  3.340246  0.01
N  N305  1  0.57797380  0.13830336  0.22702130  1  -0.699275  0.000158  -0.251914  -0.333054  8.1e-05  3.147182  0.0
N  N306  1  0.68082245  0.69596381  0.67129849  1  -0.787244  0.004731  -0.149258  0.068372  0.002078  3.758133  0.003
N  N307  1  0.77159993  0.35617148  0.27816085  1  -0.838034  8.5e-05  -0.158764  0.070342  5.8e-05  3.802871  0.0
N  N308  1  0.80907231  0.84720292  0.66565356  1  -0.794682  0.005468  -0.154157  0.063522  0.002639  3.766381  0.004
N  N309  1  0.77080676  0.88902062  0.62474415  1  -0.743722  0.042409  -0.23422  -0.288733  0.028278  3.327335  0.011
N  N310  1  0.62035977  0.69063516  0.62687256  1  -0.759211  0.046634  -0.235106  -0.278515  0.030967  3.340358  0.01
N  N311  1  0.86170768  0.42203589  0.27298876  1  -0.698595  0.000158  -0.252007  -0.333264  8.1e-05  3.147524  0.0
O  O312  1  0.00161964  0.59189381  0.07356210  1  -1.22049  0.104455  -0.313045  -0.589555  0.077898  2.408613  0.047
O  O313  1  0.99824828  0.57738057  0.15224832  1  -1.178666  0.048495  -0.316551  -0.558061  0.035272  2.107813  0.03
O  O314  1  0.79160805  0.43070056  0.07958745  1  -1.198115  0.081449  -0.318285  -0.558776  0.056308  2.336697  0.04
O  O315  1  0.89001394  0.37968907  0.01947269  1  -1.206645  0.063024  -0.304902  -0.56797  0.045133  2.380392  0.026
O  O316  1  0.76437266  0.63932675  0.02484673  1  -1.203629  0.081327  -0.317211  -0.552382  0.055664  2.35152  0.04
O  O317  1  0.87955068  0.59442616  0.97097789  1  -1.19524  0.060756  -0.298431  -0.566208  0.044785  2.360096  0.029
O  O318  1  0.40808359  0.99840871  0.42639183  1  -1.220516  0.104472  -0.312765  -0.589381  0.077901  2.408094  0.047
O  O319  1  0.42257607  0.00171418  0.34769386  1  -1.178376  0.04835  -0.316645  -0.558154  0.035167  2.108265  0.03
O  O320  1  0.56929673  0.20840996  0.42040016  1  -1.198249  0.081411  -0.318481  -0.558932  0.056269  2.336636  0.04
O  O321  1  0.62027736  0.10994672  0.48050031  1  -1.206621  0.062949  -0.304773  -0.568015  0.045089  2.379345  0.026
O  O322  1  0.36067673  0.23564540  0.47516389  1  -1.203762  0.08138  -0.317216  -0.552227  0.055674  2.351214  0.04
O  O323  1  0.40557683  0.12045948  0.52902319  1  -1.19594  0.060864  -0.298379  -0.566058  0.044828  2.360613  0.029
O  O324  1  0.99843023  0.40801615  0.92632847  1  -1.220419  0.104328  -0.312693  -0.589576  0.07783  2.407662  0.047
O  O325  1  0.00168219  0.42250024  0.84761794  1  -1.173273  0.048237  -0.316827  -0.558233  0.03508  2.108421  0.03
O  O326  1  0.20840329  0.56928184  0.92037694  1  -1.198039  0.081288  -0.318473  -0.559155  0.056222  2.336408  0.04
O  O327  1  0.10988582  0.62020617  0.98046462  1  -1.206337  0.06291  -0.304824  -0.567902  0.045061  2.380076  0.026
O  O328  1  0.23566960  0.36066953  0.97517561  1  -1.203075  0.08128  -0.316931  -0.551833  0.055644  2.351306  0.04
O  O329  1  0.12041669  0.40552163  0.02901438  1  -1.195587  0.060875  -0.298451  -0.566117  0.044819  2.360767  0.029
O  O330  1  0.59195696  0.00156964  0.57362049  1  -1.220552  0.104411  -0.312541  -0.589142  0.077864  2.408167  0.047
O  O331  1  0.57742903  0.99831272  0.65231954  1  -1.177778  0.048302  -0.316676  -0.557938  0.035138  2.108331  0.03
O  O332  1  0.43069851  0.79159167  0.57960162  1  -1.197875  0.081356  -0.318451  -0.559057  0.056251  2.336068  0.04
O  O333  1  0.37974967  0.89008580  0.51950995  1  -1.206384  0.062944  -0.304814  -0.567854  0.045099  2.380265  0.026
O  O334  1  0.63931509  0.76432280  0.52484016  1  -1.2032  0.081328  -0.317168  -0.552275  0.055675  2.351694  0.04
O  O335  1  0.59446720  0.87956522  0.47099366  1  -1.195104  0.060785  -0.298377  -0.566091  0.044789  2.360613  0.029
