# generated using pymatgen
data_Zn4H36C60N3O13
_symmetry_space_group_name_H-M   'P 1'
_cell_length_a   25.84066530
_cell_length_b   25.84069457
_cell_length_c   41.28640622
_cell_angle_alpha   71.74908784
_cell_angle_beta   71.74905937
_cell_angle_gamma   59.98324360
_symmetry_Int_Tables_number   1
_chemical_formula_structural   Zn4H36C60N3O13
_chemical_formula_sum   'Zn16 H144 C240 N12 O52'
_cell_volume   22255.83392820
_cell_formula_units_Z   4
loop_
 _symmetry_equiv_pos_site_id
 _symmetry_equiv_pos_as_xyz
  1  'x, y, z'
loop_
 _atom_site_type_symbol
 _atom_site_label
 _atom_site_symmetry_multiplicity
 _atom_site_fract_x
 _atom_site_fract_y
 _atom_site_fract_z
 _atom_site_occupancy
 _atom_site_pbe_bader_charge
 _atom_site_pbe_bader_spin_density
 _atom_site_pbe_cm5_charge
 _atom_site_pbe_ddec_charge
 _atom_site_pbe_ddec_spin_density
 _atom_site_pbe_ddec_sum_bond_order
 _atom_site_pbe_magmom
Zn  Zn0  1  0.35424435  0.35417901  0.93743740  1  1.317533  0  0.667  0.964494  0  2.359075  0
Zn  Zn1  1  0.14582098  0.14575591  0.56256281  1  1.317499  0  0.667024  0.964505  0  2.359051  0
Zn  Zn2  1  0.64575617  0.64582103  0.06256258  1  1.317483  0  0.666978  0.964384  0  2.359157  0
Zn  Zn3  1  0.85417909  0.85424312  0.43743746  1  1.317468  0  0.666988  0.964408  0  2.359132  0
Zn  Zn4  1  0.40970996  0.31355459  0.00615757  1  1.31835  0  0.67002  0.965419  0  2.38785  0
Zn  Zn5  1  0.31355083  0.27060588  0.00617205  1  1.317758  0  0.669249  0.963664  0  2.388904  0
Zn  Zn6  1  0.27064492  0.40967999  0.00619188  1  1.316409  0  0.669322  0.964468  0  2.387596  0
Zn  Zn7  1  0.22939335  0.18644996  0.49382824  1  1.317774  0  0.669288  0.963697  0  2.388911  0
Zn  Zn8  1  0.09032021  0.22935495  0.49380816  1  1.316414  0  0.669326  0.964487  0  2.38757  0
Zn  Zn9  1  0.18644548  0.09029012  0.49384317  1  1.318365  0  0.670039  0.96547  0  2.387729  0
Zn  Zn10  1  0.59028965  0.68644709  0.99384179  1  1.318408  0  0.670034  0.965475  0  2.387727  0
Zn  Zn11  1  0.68645015  0.72939233  0.99382797  1  1.317704  0  0.669278  0.963703  0  2.388941  0
Zn  Zn12  1  0.72935606  0.59032108  0.99380661  1  1.316414  0  0.669299  0.964427  0  2.387707  0
Zn  Zn13  1  0.77060626  0.81354968  0.50617201  1  1.31777  0  0.669273  0.963678  0  2.388951  0
Zn  Zn14  1  0.90967940  0.77064509  0.50619297  1  1.316417  0  0.66933  0.964477  0  2.387702  0
Zn  Zn15  1  0.81355459  0.90970932  0.50615775  1  1.318357  0  0.670017  0.965467  0  2.387761  0
H  H16  1  0.40947791  0.23452253  0.86850799  1  0.061618  0  0.108016  0.112965  0  0.990484  0
H  H17  1  0.23451939  0.48751880  0.86856798  1  0.108852  0  0.108189  0.113649  0  0.989036  0
H  H18  1  0.48754086  0.40953634  0.86851085  1  0.076849  0  0.108546  0.113698  0  0.989337  0
H  H19  1  0.01248060  0.26548179  0.63143121  1  0.108917  0  0.108164  0.113612  0  0.989112  0
H  H20  1  0.09046340  0.01246010  0.63148878  1  0.076835  0  0.108546  0.113728  0  0.989362  0
H  H21  1  0.26547755  0.09052216  0.63149247  1  0.061603  0  0.108025  0.112946  0  0.99057  0
H  H22  1  0.59052216  0.76547853  0.13149237  1  0.061618  0  0.108004  0.112927  0  0.990606  0
H  H23  1  0.76548159  0.51248145  0.13143139  1  0.108875  0  0.108155  0.113618  0  0.989107  0
H  H24  1  0.51245921  0.59046431  0.13148886  1  0.076821  0  0.108559  0.113707  0  0.989359  0
H  H25  1  0.98751901  0.73451785  0.36856928  1  0.108928  0  0.108179  0.113648  0  0.989079  0
H  H26  1  0.90953667  0.98753933  0.36851093  1  0.076804  0  0.108516  0.113685  0  0.989392  0
H  H27  1  0.73452161  0.90947809  0.36850774  1  0.061599  0  0.10802  0.112928  0  0.990589  0
H  H28  1  0.45343651  0.14557214  0.83994998  1  0.057508  0  0.105268  0.115607  0  0.997211  0
H  H29  1  0.14552699  0.56106235  0.84002721  1  0.082402  0  0.106086  0.116714  0  0.996074  0
H  H30  1  0.56104590  0.45356317  0.83999125  1  0.076348  0  0.105594  0.115865  0  0.996352  0
H  H31  1  0.93893740  0.35447353  0.65997258  1  0.082419  0  0.10612  0.11678  0  0.996041  0
H  H32  1  0.04643745  0.93895448  0.66000840  1  0.076372  0  0.105592  0.115887  0  0.996392  0
H  H33  1  0.35442828  0.04656348  0.66005043  1  0.057479  0  0.105265  0.115589  0  0.997231  0
H  H34  1  0.54656356  0.85442770  0.16005014  1  0.057632  0  0.105272  0.11561  0  0.997231  0
H  H35  1  0.85447308  0.43893749  0.15997266  1  0.082414  0  0.106117  0.116792  0  0.996022  0
H  H36  1  0.43895417  0.54643708  0.16000854  1  0.076356  0  0.105568  0.115819  0  0.996432  0
H  H37  1  0.06106221  0.64552692  0.34002775  1  0.082443  0  0.10606  0.116712  0  0.996086  0
H  H38  1  0.95356307  0.06104515  0.33999118  1  0.07635  0  0.105633  0.11599  0  0.996272  0
H  H39  1  0.64557224  0.95343657  0.33994955  1  0.057613  0  0.105254  0.115582  0  0.997249  0
H  H40  1  0.35482291  0.13220692  0.96486084  1  0.10004  0  0.107728  0.113447  0  0.991344  0
H  H41  1  0.13222912  0.54809208  0.96493129  1  0.09239  0  0.107888  0.112989  0  0.991169  0
H  H42  1  0.54811023  0.35479802  0.96487384  1  0.072732  0  0.107564  0.112991  0  0.992497  0
H  H43  1  0.95190702  0.36777229  0.53506820  1  0.092248  0  0.107869  0.112996  0  0.991167  0
H  H44  1  0.14520178  0.95189068  0.53512563  1  0.072903  0  0.107517  0.112899  0  0.992498  0
H  H45  1  0.36779233  0.14517796  0.53513940  1  0.099881  0  0.107741  0.113498  0  0.991279  0
H  H46  1  0.64517853  0.86779109  0.03513986  1  0.099888  0  0.10775  0.113502  0  0.991311  0
H  H47  1  0.86777231  0.45190796  0.03506827  1  0.092249  0  0.107872  0.113012  0  0.991164  0
H  H48  1  0.45188939  0.64520244  0.03512600  1  0.072732  0  0.107566  0.113001  0  0.992502  0
H  H49  1  0.04809259  0.63222734  0.46493228  1  0.09222  0  0.107867  0.113015  0  0.991177  0
H  H50  1  0.85479783  0.04810977  0.46487397  1  0.072704  0  0.107556  0.113001  0  0.992518  0
H  H51  1  0.63220819  0.85482250  0.46486002  1  0.099904  0  0.10776  0.113518  0  0.991292  0
H  H52  1  0.54066969  0.00876691  0.90759966  1  0.07013  0  0.109366  0.12018  0  0.985242  0
H  H53  1  0.00879123  0.54290521  0.90757534  1  0.092927  0  0.108969  0.119247  0  0.986902  0
H  H54  1  0.54298598  0.54068998  0.90760051  1  0.076269  0  0.109677  0.120726  0  0.985312  0
H  H55  1  0.95709463  0.49120823  0.59242416  1  0.092922  0  0.108971  0.11932  0  0.986913  0
H  H56  1  0.95930957  0.95701497  0.59239954  1  0.076243  0  0.109664  0.120678  0  0.98531  0
H  H57  1  0.49123356  0.95933044  0.59240031  1  0.070105  0  0.109356  0.120163  0  0.985269  0
H  H58  1  0.45933129  0.99123212  0.09240019  1  0.070159  0  0.109384  0.120173  0  0.985359  0
H  H59  1  0.99120884  0.45709463  0.09242405  1  0.092941  0  0.108985  0.119312  0  0.986877  0
H  H60  1  0.45701409  0.45931027  0.09239977  1  0.076272  0  0.109682  0.120725  0  0.985319  0
H  H61  1  0.04290543  0.50879080  0.40757563  1  0.092942  0  0.108973  0.119283  0  0.986908  0
H  H62  1  0.04068913  0.04298670  0.40760096  1  0.076285  0  0.109676  0.120719  0  0.985321  0
H  H63  1  0.50876651  0.04066941  0.40759981  1  0.070133  0  0.109326  0.120095  0  0.985271  0
H  H64  1  0.44656027  0.93450736  0.88055981  1  0.084914  0  0.1087  0.119481  0  0.986342  0
H  H65  1  0.93450494  0.73834505  0.88058239  1  0.096502  0  0.108935  0.119655  0  0.986496  0
H  H66  1  0.73843057  0.44653198  0.88060080  1  0.049775  0  0.10891  0.119559  0  0.986359  0
H  H67  1  0.76165523  0.56549524  0.61941717  1  0.096713  0  0.108921  0.119642  0  0.986543  0
H  H68  1  0.05346795  0.76156959  0.61939855  1  0.049793  0  0.108888  0.119503  0  0.986348  0
H  H69  1  0.56549301  0.05343967  0.61944022  1  0.085667  0  0.108713  0.119511  0  0.98632  0
H  H70  1  0.55343980  0.06549330  0.11943991  1  0.085654  0  0.108714  0.119529  0  0.986317  0
H  H71  1  0.06549513  0.26165479  0.11941748  1  0.096705  0  0.108919  0.119626  0  0.986544  0
H  H72  1  0.26156904  0.55346847  0.11939880  1  0.04976  0  0.108911  0.119542  0  0.986363  0
H  H73  1  0.23834483  0.43450541  0.38058254  1  0.096492  0  0.10892  0.119622  0  0.986535  0
H  H74  1  0.94653121  0.23843107  0.38060086  1  0.049768  0  0.108907  0.119539  0  0.986355  0
H  H75  1  0.43450706  0.94656058  0.38055982  1  0.084893  0  0.108691  0.119452  0  0.986413  0
H  H76  1  0.50002390  0.83460697  0.91826692  1  0.091726  0  0.109436  0.114589  0  0.988536  0
H  H77  1  0.83460352  0.74706382  0.91826735  1  0.11385  0  0.109352  0.114702  0  0.989585  0
H  H78  1  0.74710488  0.50002173  0.91829128  1  0.069061  0  0.108519  0.113643  0  0.989418  0
H  H79  1  0.75293657  0.66539655  0.58173246  1  0.113855  0  0.109358  0.114683  0  0.989551  0
H  H80  1  0.99997749  0.75289613  0.58170809  1  0.069073  0  0.108544  0.113699  0  0.989418  0
H  H81  1  0.66539356  0.99997564  0.58173347  1  0.091707  0  0.109433  0.114545  0  0.988548  0
H  H82  1  0.49997572  0.16539307  0.08173276  1  0.091741  0  0.109425  0.114552  0  0.988567  0
H  H83  1  0.16539655  0.25293561  0.08173284  1  0.113963  0  0.109343  0.114666  0  0.989591  0
H  H84  1  0.25289474  0.49997872  0.08170832  1  0.069053  0  0.108536  0.113668  0  0.989398  0
H  H85  1  0.24706441  0.33460370  0.41826740  1  0.113964  0  0.109336  0.114663  0  0.989614  0
H  H86  1  0.00002076  0.24710534  0.41829134  1  0.06895  0  0.108526  0.113638  0  0.98941  0
H  H87  1  0.33460651  0.00002380  0.41826673  1  0.09179  0  0.109396  0.114516  0  0.988634  0
H  H88  1  0.59697753  0.90751265  0.94325351  1  0.090893  0  0.108668  0.114363  0  0.991132  0
H  H89  1  0.90755204  0.55214917  0.94320585  1  0.073131  0  0.108806  0.113952  0  0.99089  0
H  H90  1  0.55220119  0.59706456  0.94322279  1  0.109282  0  0.108848  0.11432  0  0.991083  0
H  H91  1  0.94785084  0.59244802  0.55679451  1  0.073124  0  0.10876  0.113907  0  0.990957  0
H  H92  1  0.90293492  0.94779881  0.55677697  1  0.109265  0  0.108864  0.11433  0  0.991137  0
H  H93  1  0.59248743  0.90302282  0.55674681  1  0.090908  0  0.108636  0.114363  0  0.991156  0
H  H94  1  0.40302300  0.09248577  0.05674680  1  0.0909  0  0.108606  0.11427  0  0.991163  0
H  H95  1  0.09244848  0.44785046  0.05679421  1  0.073238  0  0.108749  0.113848  0  0.990993  0
H  H96  1  0.44779797  0.40293610  0.05677710  1  0.109311  0  0.108855  0.114339  0  0.991055  0
H  H97  1  0.05214969  0.40755121  0.44320564  1  0.073128  0  0.108778  0.11388  0  0.990967  0
H  H98  1  0.09706378  0.05220164  0.44322329  1  0.10928  0  0.108846  0.114328  0  0.991062  0
H  H99  1  0.40751263  0.09697661  0.44325339  1  0.090943  0  0.108614  0.114315  0  0.991177  0
H  H100  1  0.36531294  0.11002053  0.83784165  1  0.08958  0  0.106021  0.11635  0  0.992545  0
H  H101  1  0.11004611  0.68677234  0.83784249  1  0.054467  0  0.106583  0.116692  0  0.993766  0
H  H102  1  0.68680812  0.36532150  0.83786545  1  0.065708  0  0.105981  0.11586  0  0.992354  0
H  H103  1  0.81322705  0.38995444  0.66215737  1  0.054474  0  0.106641  0.116797  0  0.993635  0
H  H104  1  0.13467801  0.81319115  0.66213488  1  0.065716  0  0.105988  0.115864  0  0.992349  0
H  H105  1  0.38997933  0.13468733  0.66215907  1  0.089635  0  0.106027  0.116326  0  0.99255  0
H  H106  1  0.63468759  0.88997992  0.16215875  1  0.089617  0  0.106009  0.116323  0  0.992592  0
H  H107  1  0.88995396  0.31322750  0.16215738  1  0.054472  0  0.106615  0.116735  0  0.993705  0
H  H108  1  0.31319149  0.63467854  0.16213496  1  0.065683  0  0.105995  0.115894  0  0.992326  0
H  H109  1  0.18677211  0.61004622  0.33784301  1  0.054448  0  0.106613  0.116742  0  0.993672  0
H  H110  1  0.86532115  0.18680829  0.33786501  1  0.065671  0  0.105995  0.115852  0  0.99236  0
H  H111  1  0.61002074  0.86531291  0.33784121  1  0.089619  0  0.106024  0.116354  0  0.992586  0
H  H112  1  0.40097214  0.04196531  0.93715663  1  0.080099  0  0.106212  0.116701  0  0.99665  0
H  H113  1  0.04193242  0.61990655  0.93723697  1  0.076314  0  0.106589  0.116869  0  0.996162  0
H  H114  1  0.61986702  0.40101478  0.93721167  1  0.072735  0  0.107189  0.118411  0  0.995275  0
H  H115  1  0.88009194  0.45806933  0.56276307  1  0.076281  0  0.106566  0.116832  0  0.996181  0
H  H116  1  0.09898484  0.88013459  0.56278818  1  0.072773  0  0.107178  0.118364  0  0.995283  0
H  H117  1  0.45803428  0.09902821  0.56284340  1  0.080108  0  0.106212  0.116719  0  0.996668  0
H  H118  1  0.59902929  0.95803270  0.06284382  1  0.080117  0  0.106195  0.116679  0  0.996607  0
H  H119  1  0.95806902  0.38009186  0.06276315  1  0.07628  0  0.106561  0.116817  0  0.996195  0
H  H120  1  0.38013305  0.59898547  0.06278836  1  0.072743  0  0.107217  0.118456  0  0.995246  0
H  H121  1  0.11990812  0.54193051  0.43723705  1  0.076248  0  0.106561  0.116806  0  0.996193  0
H  H122  1  0.90101386  0.11986667  0.43721144  1  0.07006  0  0.107193  0.118389  0  0.995254  0
H  H123  1  0.54196670  0.90097164  0.43715630  1  0.080059  0  0.106193  0.116671  0  0.996591  0
H  H124  1  0.55022434  0.96917424  0.82804594  1  0.07008  0  0.104749  0.113776  0  0.997739  0
H  H125  1  0.96913870  0.65261739  0.82810294  1  0.07997  0  0.104847  0.113774  0  0.99748  0
H  H126  1  0.65265831  0.55016994  0.82806515  1  0.061439  0  0.104988  0.113983  0  0.996687  0
H  H127  1  0.84738235  0.53086168  0.67189693  1  0.079964  0  0.104851  0.113775  0  0.997463  0
H  H128  1  0.94982947  0.84734159  0.67193464  1  0.061424  0  0.104996  0.113984  0  0.996675  0
H  H129  1  0.53082586  0.94977607  0.67195412  1  0.070103  0  0.104742  0.113756  0  0.997743  0
H  H130  1  0.44977573  0.03082560  0.17195393  1  0.070083  0  0.104753  0.113772  0  0.997741  0
H  H131  1  0.03086182  0.34738224  0.17189689  1  0.079976  0  0.104805  0.113687  0  0.997359  0
H  H132  1  0.34734131  0.44983010  0.17193526  1  0.061177  0  0.104976  0.113934  0  0.996689  0
H  H133  1  0.15261726  0.46913878  0.32810340  1  0.079768  0  0.104851  0.113782  0  0.997471  0
H  H134  1  0.05016969  0.15265866  0.32806509  1  0.06146  0  0.104999  0.113964  0  0.996668  0
H  H135  1  0.46917466  0.05022438  0.32804578  1  0.070095  0  0.104759  0.113783  0  0.997733  0
H  H136  1  0.55065483  0.97279938  0.76782249  1  0.0602  0  0.101005  0.099563  0  1.007582  0
H  H137  1  0.97277791  0.70876009  0.76788208  1  0.049248  0  0.100828  0.09871  0  1.007322  0
H  H138  1  0.70884592  0.55057523  0.76785168  1  0.082768  0  0.100729  0.098497  0  1.009305  0
H  H139  1  0.79124027  0.52722186  0.73211802  1  0.049242  0  0.100809  0.098674  0  1.007341  0
H  H140  1  0.94942399  0.79115350  0.73214824  1  0.082735  0  0.100767  0.098557  0  1.009247  0
H  H141  1  0.52720078  0.94934541  0.73217759  1  0.059905  0  0.101008  0.09954  0  1.007591  0
H  H142  1  0.44934569  0.02719985  0.23217693  1  0.060267  0  0.101024  0.09953  0  1.007627  0
H  H143  1  0.02722216  0.29124016  0.23211795  1  0.049247  0  0.100813  0.098681  0  1.007336  0
H  H144  1  0.29115415  0.44942501  0.23214860  1  0.082772  0  0.100728  0.09849  0  1.009301  0
H  H145  1  0.20875934  0.47277859  0.26788230  1  0.049258  0  0.100817  0.098688  0  1.007348  0
H  H146  1  0.05057517  0.20884634  0.26785205  1  0.082767  0  0.100749  0.098542  0  1.009273  0
H  H147  1  0.47280019  0.05065403  0.26782267  1  0.059968  0  0.101005  0.099501  0  1.007636  0
H  H148  1  0.36468468  0.11223240  0.77796916  1  0.039011  0  0.100895  0.099524  0  1.005728  0
H  H149  1  0.11226097  0.74504360  0.77796989  1  0.038485  0  0.10101  0.099504  0  1.005414  0
H  H150  1  0.74510329  0.36467671  0.77799066  1  0.067806  0  0.101151  0.099274  0  1.005622  0
H  H151  1  0.75495688  0.38773975  0.72202996  1  0.038541  0  0.10101  0.099502  0  1.005446  0
H  H152  1  0.13532223  0.75489692  0.72200935  1  0.067709  0  0.101163  0.099308  0  1.005634  0
H  H153  1  0.38776765  0.13531500  0.72203163  1  0.036202  0  0.100898  0.099483  0  1.005734  0
H  H154  1  0.63531539  0.88776826  0.22203128  1  0.036195  0  0.100885  0.09949  0  1.005749  0
H  H155  1  0.88773909  0.25495705  0.22203006  1  0.038522  0  0.101003  0.099508  0  1.005395  0
H  H156  1  0.25489632  0.63532375  0.22200942  1  0.067783  0  0.101203  0.09935  0  1.005547  0
H  H157  1  0.24504273  0.61226111  0.27797029  1  0.038516  0  0.10102  0.099527  0  1.005393  0
H  H158  1  0.86467647  0.24510353  0.27799043  1  0.067792  0  0.101187  0.099339  0  1.005554  0
H  H159  1  0.61223242  0.86468443  0.27796881  1  0.039017  0  0.100878  0.099492  0  1.005727  0
C  C160  1  0.35550245  0.24064776  0.93626458  1  1.540631  0  0.22178  0.603141  0  4.177146  0
C  C161  1  0.24067659  0.46763136  0.93628625  1  1.543818  0  0.222164  0.605279  0  4.174009  0
C  C162  1  0.46768671  0.35547790  0.93626058  1  1.543371  0  0.219896  0.599898  0  4.177824  0
C  C163  1  0.03236860  0.25932547  0.56371314  1  1.544037  0  0.222193  0.605374  0  4.174041  0
C  C164  1  0.14452244  0.03231356  0.56374004  1  1.543433  0  0.219835  0.599823  0  4.177974  0
C  C165  1  0.25935042  0.14449924  0.56373595  1  1.540456  0  0.22164  0.603037  0  4.17731  0
C  C166  1  0.64449989  0.75934903  0.06373617  1  1.540437  0  0.221679  0.603075  0  4.177281  0
C  C167  1  0.75932712  0.53236931  0.06371251  1  1.543935  0  0.22225  0.605334  0  4.173867  0
C  C168  1  0.53231108  0.64452418  0.06374027  1  1.543423  0  0.219754  0.599755  0  4.177873  0
C  C169  1  0.96763055  0.74067315  0.43628787  1  1.54395  0  0.222161  0.605242  0  4.174162  0
C  C170  1  0.85547763  0.96768628  0.43626007  1  1.543404  0  0.219839  0.599824  0  4.177964  0
C  C171  1  0.74065010  0.85549959  0.43626379  1  1.54066  0  0.221668  0.602999  0  4.177393  0
C  C172  1  0.37935288  0.18898412  0.91849064  1  -0.032094  0  -0.029498  -0.06732  0  4.001982  0
C  C173  1  0.18898959  0.51322542  0.91854810  1  0.017399  0  -0.030973  -0.067993  0  4.002677  0
C  C174  1  0.51322029  0.37937770  0.91849566  1  0.018711  0  -0.030902  -0.066771  0  4.004514  0
C  C175  1  0.98677436  0.31101173  0.58145152  1  0.017256  0  -0.030965  -0.067932  0  4.00272  0
C  C176  1  0.12062194  0.98678030  0.58150415  1  0.018392  0  -0.030889  -0.066758  0  4.004504  0
C  C177  1  0.31101510  0.12064776  0.58150989  1  -0.031889  0  -0.029551  -0.067387  0  4.002049  0
C  C178  1  0.62064856  0.81101429  0.08150973  1  -0.031897  0  -0.029482  -0.067314  0  4.001855  0
C  C179  1  0.81101230  0.48677564  0.08145093  1  0.017283  0  -0.03091  -0.067768  0  4.002605  0
C  C180  1  0.48677796  0.62062418  0.08150441  1  0.018664  0  -0.030851  -0.066686  0  4.004461  0
C  C181  1  0.01322434  0.68898790  0.41854939  1  0.017263  0  -0.030983  -0.067924  0  4.002787  0
C  C182  1  0.87937631  0.01321994  0.41849552  1  0.018716  0  -0.030857  -0.06662  0  4.004456  0
C  C183  1  0.68898497  0.87935127  0.41849039  1  -0.032068  0  -0.029505  -0.067308  0  4.002011  0
C  C184  1  0.40687362  0.19246283  0.88316665  1  0.075503  0  -0.082264  -0.071697  0  3.994313  0
C  C185  1  0.19246396  0.51753181  0.88322685  1  -0.046293  0  -0.08139  -0.071552  0  3.993389  0
C  C186  1  0.51750650  0.40696554  0.88317945  1  -0.011992  0  -0.081602  -0.071813  0  3.992574  0
C  C187  1  0.98246777  0.30753809  0.61677242  1  -0.046325  0  -0.081371  -0.071539  0  3.993302  0
C  C188  1  0.09303395  0.98249351  0.61682099  1  -0.011972  0  -0.081576  -0.071845  0  3.992605  0
C  C189  1  0.30753639  0.09312679  0.61683368  1  0.075474  0  -0.08225  -0.071645  0  3.994346  0
C  C190  1  0.59312736  0.80753579  0.11683450  1  0.07547  0  -0.082248  -0.07162  0  3.994343  0
C  C191  1  0.80753793  0.48246885  0.11677226  1  -0.046279  0  -0.081382  -0.071612  0  3.993286  0
C  C192  1  0.48249265  0.59303552  0.11682085  1  -0.011942  0  -0.081601  -0.071783  0  3.992368  0
C  C193  1  0.01753093  0.69246195  0.38322840  1  -0.046189  0  -0.081363  -0.071551  0  3.993303  0
C  C194  1  0.90696521  0.01750592  0.38317914  1  -0.01197  0  -0.081574  -0.071835  0  3.992521  0
C  C195  1  0.69246413  0.90687325  0.38316558  1  0.07545  0  -0.082249  -0.071606  0  3.994375  0
C  C196  1  0.43166463  0.14275249  0.86728656  1  -0.005315  0  -0.099008  -0.187414  0  3.999489  0
C  C197  1  0.14273182  0.55832681  0.86735780  1  -0.04489  0  -0.100257  -0.189273  0  4.001406  0
C  C198  1  0.55828038  0.43178870  0.86732792  1  -0.061263  0  -0.098744  -0.18731  0  3.998883  0
C  C199  1  0.94167293  0.35726989  0.63264176  1  -0.04487  0  -0.100228  -0.189331  0  4.001285  0
C  C200  1  0.06820980  0.94172015  0.63267213  1  -0.061305  0  -0.098787  -0.187379  0  3.99894  0
C  C201  1  0.35724660  0.06833559  0.63271383  1  -0.005123  0  -0.09899  -0.187361  0  3.99942  0
C  C202  1  0.56833543  0.85724694  0.13271388  1  -0.005427  0  -0.098965  -0.187391  0  3.999406  0
C  C203  1  0.85726962  0.44167324  0.13264177  1  -0.044871  0  -0.100253  -0.189358  0  4.001307  0
C  C204  1  0.44171924  0.56821175  0.13267217  1  -0.061288  0  -0.098771  -0.187374  0  3.998962  0
C  C205  1  0.05832577  0.64273015  0.36735883  1  -0.044983  0  -0.100189  -0.189286  0  4.001357  0
C  C206  1  0.93178891  0.05827989  0.36732749  1  -0.061265  0  -0.098777  -0.187455  0  3.998966  0
C  C207  1  0.64275392  0.93166446  0.36728592  1  -0.005274  0  -0.098978  -0.1874  0  3.999416  0
C  C208  1  0.37688161  0.13448060  0.93758734  1  -0.030492  0  -0.083219  -0.071022  0  3.995272  0
C  C209  1  0.13448800  0.55107692  0.93765883  1  0.006062  0  -0.082374  -0.069903  0  3.993553  0
C  C210  1  0.55105683  0.37690237  0.93760888  1  0.045885  0  -0.081843  -0.069225  0  3.998309  0
C  C211  1  0.94892290  0.36551300  0.56234085  1  0.006359  0  -0.082357  -0.06999  0  3.993603  0
C  C212  1  0.12309630  0.94894402  0.56239059  1  0.046057  0  -0.081796  -0.069121  0  3.99819  0
C  C213  1  0.36551849  0.12311908  0.56241320  1  -0.030292  0  -0.083182  -0.070992  0  3.995215  0
C  C214  1  0.62311983  0.86551823  0.06241319  1  -0.030299  0  -0.083208  -0.071052  0  3.995265  0
C  C215  1  0.86551388  0.44892333  0.06234061  1  0.006125  0  -0.082396  -0.070106  0  3.993721  0
C  C216  1  0.44894187  0.62309889  0.06239147  1  0.045863  0  -0.081831  -0.069248  0  3.998376  0
C  C217  1  0.05107625  0.63448643  0.43765977  1  0.006296  0  -0.082383  -0.070086  0  3.993638  0
C  C218  1  0.87690150  0.05105643  0.43760913  1  0.045842  0  -0.081882  -0.069385  0  3.998395  0
C  C219  1  0.63448112  0.87688137  0.43758664  1  -0.030313  0  -0.083203  -0.071068  0  3.995259  0
C  C220  1  0.43053881  0.08769310  0.88678359  1  0.284055  0  0.099437  0.194039  0  4.035653  0
C  C221  1  0.08768034  0.59499318  0.88686316  1  0.356227  0  0.099818  0.19285  0  4.037164  0
C  C222  1  0.59496807  0.43062153  0.88683260  1  0.306877  0  0.098774  0.19301  0  4.036725  0
C  C223  1  0.90500692  0.41232044  0.61313651  1  0.356189  0  0.09986  0.192969  0  4.037092  0
C  C224  1  0.06937822  0.90503203  0.61316728  1  0.306876  0  0.098787  0.193044  0  4.036668  0
C  C225  1  0.41230710  0.06946155  0.61321703  1  0.283807  0  0.099397  0.193938  0  4.035656  0
C  C226  1  0.56946171  0.91230695  0.11321639  1  0.284022  0  0.099366  0.193881  0  4.035665  0
C  C227  1  0.91232064  0.40500748  0.11313662  1  0.356178  0  0.099869  0.192972  0  4.037183  0
C  C228  1  0.40503109  0.56937953  0.11316745  1  0.306904  0  0.09875  0.193017  0  4.036823  0
C  C229  1  0.09499178  0.58767960  0.38686383  1  0.356189  0  0.099882  0.193015  0  4.037146  0
C  C230  1  0.93062049  0.09496802  0.38683258  1  0.306821  0  0.098721  0.192985  0  4.036905  0
C  C231  1  0.58769297  0.93053911  0.38678316  1  0.28382  0  0.099426  0.193977  0  4.035484  0
C  C232  1  0.53218323  0.97034766  0.90992524  1  -0.043774  0  -0.093934  -0.17922  0  3.998617  0
C  C233  1  0.97036220  0.58749051  0.90990817  1  -0.098304  0  -0.093931  -0.176837  0  3.997372  0
C  C234  1  0.58756400  0.53220486  0.90992941  1  -0.02298  0  -0.094734  -0.180025  0  3.99621  0
C  C235  1  0.91250949  0.52963685  0.59009142  1  -0.098429  0  -0.094001  -0.177087  0  3.997431  0
C  C236  1  0.96779439  0.91243621  0.59007060  1  -0.023054  0  -0.094728  -0.180018  0  3.996197  0
C  C237  1  0.52965210  0.96781710  0.59007539  1  -0.043703  0  -0.093919  -0.178805  0  3.998937  0
C  C238  1  0.46781820  0.02965076  0.09007440  1  -0.043901  0  -0.093882  -0.179066  0  3.998735  0
C  C239  1  0.02963741  0.41250872  0.09009191  1  -0.098432  0  -0.093983  -0.177029  0  3.997338  0
C  C240  1  0.41243516  0.46779580  0.09007072  1  -0.022985  0  -0.094738  -0.180044  0  3.996252  0
C  C241  1  0.08749058  0.47036177  0.40990821  1  -0.098426  0  -0.093984  -0.17698  0  3.997388  0
C  C242  1  0.03220295  0.08756444  0.40992989  1  -0.022972  0  -0.094704  -0.179952  0  3.996136  0
C  C243  1  0.47034842  0.03218213  0.40992548  1  -0.043804  0  -0.093871  -0.178682  0  3.99899  0
C  C244  1  0.48980969  0.97794009  0.89216723  1  0.318795  0  0.09721  0.186409  0  4.03955  0
C  C245  1  0.97795178  0.64005039  0.89217878  1  0.385728  0  0.097757  0.185116  0  4.0407  0
C  C246  1  0.64013326  0.48980588  0.89218917  1  0.309192  0  0.099073  0.188298  0  4.036858  0
C  C247  1  0.85994939  0.52204838  0.60782040  1  0.386183  0  0.097825  0.185184  0  4.040823  0
C  C248  1  0.01019408  0.85986696  0.60781065  1  0.309213  0  0.099073  0.188316  0  4.036859  0
C  C249  1  0.52205921  0.01019101  0.60783262  1  0.318641  0  0.097178  0.185225  0  4.041028  0
C  C250  1  0.51019129  0.02205934  0.10783231  1  0.318773  0  0.097205  0.186326  0  4.039554  0
C  C251  1  0.02204875  0.35994884  0.10782064  1  0.386161  0  0.097761  0.185226  0  4.04075  0
C  C252  1  0.35986635  0.51019498  0.10781083  1  0.309311  0  0.099082  0.188356  0  4.036828  0
C  C253  1  0.14005068  0.47795105  0.39217907  1  0.386169  0  0.09776  0.185181  0  4.040741  0
C  C254  1  0.98980371  0.14013389  0.39218972  1  0.30932  0  0.098997  0.18819  0  4.036919  0
C  C255  1  0.47794132  0.98980944  0.39216681  1  0.318864  0  0.097273  0.185358  0  4.040951  0
C  C256  1  0.47917416  0.92847770  0.89459385  1  -0.077818  0  -0.092419  -0.17743  0  3.991542  0
C  C257  1  0.92847220  0.69771690  0.89460136  1  -0.066074  0  -0.09316  -0.177523  0  3.992672  0
C  C258  1  0.69779392  0.47916728  0.89462261  1  0.036159  0  -0.094085  -0.178169  0  3.994256  0
C  C259  1  0.80228257  0.57152827  0.60539782  1  -0.066283  0  -0.093143  -0.177531  0  3.992723  0
C  C260  1  0.02083168  0.80220685  0.60537705  1  0.036194  0  -0.094062  -0.178072  0  3.994173  0
C  C261  1  0.57152193  0.02082767  0.60540522  1  -0.078376  0  -0.092426  -0.17709  0  3.991756  0
C  C262  1  0.52082682  0.07152133  0.10540552  1  -0.07832  0  -0.092444  -0.177523  0  3.991526  0
C  C263  1  0.07152786  0.30228294  0.10539803  1  -0.066297  0  -0.093109  -0.177499  0  3.992711  0
C  C264  1  0.30220569  0.52083317  0.10537674  1  0.036097  0  -0.094038  -0.178073  0  3.994187  0
C  C265  1  0.19771750  0.42847198  0.39460149  1  -0.066108  0  -0.093118  -0.177455  0  3.992687  0
C  C266  1  0.97916657  0.19779380  0.39462326  1  0.036072  0  -0.09405  -0.178082  0  3.994231  0
C  C267  1  0.42847813  0.97917258  0.39459409  1  -0.077833  0  -0.092399  -0.177052  0  3.99186  0
C  C268  1  0.50921562  0.87280647  0.91534548  1  -0.004238  0  -0.081273  -0.074549  0  3.985783  0
C  C269  1  0.87280344  0.70258161  0.91535104  1  -0.024712  0  -0.08123  -0.07489  0  3.986496  0
C  C270  1  0.70263629  0.50921955  0.91536932  1  -0.050527  0  -0.079957  -0.073322  0  3.986893  0
C  C271  1  0.79741898  0.62719668  0.58464823  1  -0.024574  0  -0.081197  -0.07476  0  3.986431  0
C  C272  1  0.99078001  0.79736447  0.58463003  1  -0.050536  0  -0.08  -0.073446  0  3.98694  0
C  C273  1  0.62719287  0.99078474  0.58465425  1  -0.004279  0  -0.081251  -0.074439  0  3.985778  0
C  C274  1  0.49078445  0.12719256  0.08465382  1  -0.004357  0  -0.081321  -0.074566  0  3.985969  0
C  C275  1  0.12719663  0.29741823  0.08464859  1  -0.024697  0  -0.081189  -0.074776  0  3.986454  0
C  C276  1  0.29736424  0.49078090  0.08462986  1  -0.050537  0  -0.079995  -0.073403  0  3.986968  0
C  C277  1  0.20258200  0.37280398  0.41535130  1  -0.024848  0  -0.081206  -0.074821  0  3.986501  0
C  C278  1  0.00921961  0.20263598  0.41536933  1  -0.050684  0  -0.07994  -0.073274  0  3.986892  0
C  C279  1  0.37280720  0.00921469  0.41534570  1  -0.004273  0  -0.081272  -0.074525  0  3.985926  0
C  C280  1  0.56317331  0.91423846  0.92990793  1  -0.021093  0  -0.082146  -0.074676  0  3.988555  0
C  C281  1  0.91426681  0.59259328  0.92987731  1  -0.019684  0  -0.081108  -0.073765  0  3.987441  0
C  C282  1  0.59264695  0.56322804  0.92989882  1  -0.045249  0  -0.080847  -0.073882  0  3.987639  0
C  C283  1  0.90740693  0.58573313  0.57012207  1  -0.019679  0  -0.081071  -0.073626  0  3.987427  0
C  C284  1  0.93677140  0.90735326  0.57010115  1  -0.04517  0  -0.080861  -0.07385  0  3.987805  0
C  C285  1  0.58576177  0.93682687  0.57009215  1  -0.021081  0  -0.082145  -0.074704  0  3.9885  0
C  C286  1  0.43682767  0.08576016  0.07009152  1  -0.021101  0  -0.082158  -0.074675  0  3.98853  0
C  C287  1  0.08573281  0.40740636  0.07012221  1  -0.019886  0  -0.081086  -0.073617  0  3.987485  0
C  C288  1  0.40735221  0.43677261  0.07010107  1  -0.045226  0  -0.080848  -0.073897  0  3.987686  0
C  C289  1  0.09259360  0.41426691  0.42987767  1  -0.019682  0  -0.081169  -0.073743  0  3.987597  0
C  C290  1  0.06322684  0.09264780  0.42989957  1  -0.04523  0  -0.080833  -0.073878  0  3.987675  0
C  C291  1  0.41423875  0.06317236  0.42990848  1  -0.021088  0  -0.082159  -0.074746  0  3.988629  0
C  C292  1  0.55146076  0.86512210  0.93320888  1  0.032905  0  -0.025416  -0.056586  0  3.991295  0
C  C293  1  0.86513594  0.65013625  0.93320019  1  -0.003926  0  -0.025415  -0.057584  0  3.992992  0
C  C294  1  0.65017988  0.55148868  0.93321001  1  -0.004938  0  -0.026154  -0.057815  0  3.99427  0
C  C295  1  0.84986442  0.63486366  0.56679917  1  -0.0041  0  -0.025488  -0.057742  0  3.993226  0
C  C296  1  0.94851099  0.84982164  0.56679014  1  -0.004988  0  -0.026158  -0.057827  0  3.994341  0
C  C297  1  0.63487882  0.94853950  0.56679080  1  0.03289  0  -0.025336  -0.056618  0  3.991324  0
C  C298  1  0.44854022  0.13487815  0.06679001  1  0.032916  0  -0.025301  -0.056505  0  3.991286  0
C  C299  1  0.13486412  0.34986359  0.06679920  1  -0.003945  0  -0.025423  -0.057671  0  3.993261  0
C  C300  1  0.34982019  0.44851238  0.06678938  1  -0.004575  0  -0.026179  -0.057874  0  3.994374  0
C  C301  1  0.15013656  0.36513618  0.43320029  1  -0.003847  0  -0.025354  -0.057589  0  3.993157  0
C  C302  1  0.05148680  0.15017963  0.43321136  1  -0.004292  0  -0.026181  -0.057914  0  3.994414  0
C  C303  1  0.36512125  0.05145953  0.43320971  1  0.032879  0  -0.025325  -0.056516  0  3.991317  0
C  C304  1  0.45766496  0.03902036  0.83724351  1  0.299444  0  0.089716  0.176803  0  4.052501  0
C  C305  1  0.03905505  0.66602110  0.83727958  1  0.379212  0  0.090351  0.17857  0  4.051595  0
C  C306  1  0.66610206  0.45764872  0.83727368  1  0.416716  0  0.08873  0.17581  0  4.051513  0
C  C307  1  0.83397790  0.46094630  0.66272020  1  0.379259  0  0.090382  0.178616  0  4.051689  0
C  C308  1  0.04235067  0.83389708  0.66272622  1  0.416681  0  0.088736  0.17583  0  4.051425  0
C  C309  1  0.46097923  0.04233563  0.66275694  1  0.299672  0  0.089696  0.176812  0  4.052359  0
C  C310  1  0.54233556  0.96097968  0.16275647  1  0.299526  0  0.089724  0.176787  0  4.052451  0
C  C311  1  0.96094502  0.33397956  0.16272037  1  0.379134  0  0.090461  0.178838  0  4.051609  0
C  C312  1  0.33389710  0.54235194  0.16272621  1  0.416726  0  0.088725  0.175881  0  4.051434  0
C  C313  1  0.16602126  0.53905476  0.33728010  1  0.379336  0  0.090363  0.17862  0  4.051626  0
C  C314  1  0.95764758  0.16610316  0.33727393  1  0.416733  0  0.088732  0.175837  0  4.05149  0
C  C315  1  0.53902221  0.95766564  0.33724287  1  0.299887  0  0.089729  0.176779  0  4.052425  0
C  C316  1  0.40598588  0.08000451  0.82237351  1  -0.008137  0  -0.098284  -0.176062  0  4.013818  0
C  C317  1  0.08003318  0.69158079  0.82238445  1  -0.0505  0  -0.099502  -0.177738  0  4.015979  0
C  C318  1  0.69165168  0.40597618  0.82239872  1  -0.076643  0  -0.097902  -0.175314  0  4.012396  0
C  C319  1  0.80841819  0.41996790  0.67761538  1  -0.050603  0  -0.099589  -0.177911  0  4.015978  0
C  C320  1  0.09402293  0.80834734  0.67760126  1  -0.076585  0  -0.097868  -0.175291  0  4.012324  0
C  C321  1  0.41999524  0.09401363  0.67762713  1  -0.008352  0  -0.098253  -0.17599  0  4.013824  0
C  C322  1  0.59401510  0.91999533  0.17762667  1  -0.008348  0  -0.098271  -0.176052  0  4.013894  0
C  C323  1  0.91996689  0.30841986  0.17761551  1  -0.050494  0  -0.09954  -0.177829  0  4.01605  0
C  C324  1  0.30834793  0.59402387  0.17760145  1  -0.076616  0  -0.097927  -0.175432  0  4.01242  0
C  C325  1  0.19158051  0.58003296  0.32238480  1  -0.050648  0  -0.099543  -0.177801  0  4.015893  0
C  C326  1  0.90597577  0.19165230  0.32239868  1  -0.076619  0  -0.097891  -0.175256  0  4.012468  0
C  C327  1  0.58000620  0.90598601  0.32237276  1  -0.00855  0  -0.098288  -0.17609  0  4.013931  0
C  C328  1  0.40238715  0.08435600  0.92210504  1  -0.058556  0  -0.09815  -0.186783  0  4.003963  0
C  C329  1  0.08433608  0.59116657  0.92218273  1  -0.096842  0  -0.099555  -0.186888  0  4.00305  0
C  C330  1  0.59111848  0.40245599  0.92215100  1  -0.07768  0  -0.100655  -0.190812  0  4.005735  0
C  C331  1  0.90883285  0.41566497  0.57781702  1  -0.096843  0  -0.099557  -0.18685  0  4.003014  0
C  C332  1  0.09754255  0.90888254  0.57784894  1  -0.077751  0  -0.10066  -0.190766  0  4.0057  0
C  C333  1  0.41564369  0.09761303  0.57789524  1  -0.058476  0  -0.098158  -0.186809  0  4.004048  0
C  C334  1  0.59761292  0.91564343  0.07789516  1  -0.058552  0  -0.098147  -0.186742  0  4.00398  0
C  C335  1  0.91566535  0.40883306  0.07781692  1  -0.096657  0  -0.099551  -0.186793  0  4.003112  0
C  C336  1  0.40888068  0.59754507  0.07784929  1  -0.0777  0  -0.100635  -0.190788  0  4.005773  0
C  C337  1  0.09116631  0.58433446  0.42218335  1  -0.096818  0  -0.099516  -0.186736  0  4.003031  0
C  C338  1  0.90245524  0.09111832  0.42215094  1  -0.074911  0  -0.100606  -0.190659  0  4.005648  0
C  C339  1  0.58435638  0.90238763  0.42210447  1  -0.058426  0  -0.098162  -0.186758  0  4.003964  0
C  C340  1  0.50946789  0.00035959  0.81700609  1  -0.019418  0  -0.09955  -0.174933  0  4.019294  0
C  C341  1  0.00036214  0.67317259  0.81705527  1  -0.043949  0  -0.099973  -0.176045  0  4.018928  0
C  C342  1  0.67325326  0.50941174  0.81703289  1  -0.036462  0  -0.098833  -0.175337  0  4.017867  0
C  C343  1  0.82682708  0.49963842  0.68294477  1  -0.043857  0  -0.100008  -0.176094  0  4.01897  0
C  C344  1  0.99058817  0.82674492  0.68296690  1  -0.036411  0  -0.098857  -0.175329  0  4.017875  0
C  C345  1  0.49964029  0.99053294  0.68299386  1  -0.019188  0  -0.099564  -0.17497  0  4.019256  0
C  C346  1  0.49053218  0.99963984  0.18299386  1  -0.019221  0  -0.099508  -0.174906  0  4.019259  0
C  C347  1  0.99963747  0.32682746  0.18294514  1  -0.043876  0  -0.099977  -0.176022  0  4.018814  0
C  C348  1  0.32674590  0.49058851  0.18296757  1  -0.036172  0  -0.09888  -0.175413  0  4.017874  0
C  C349  1  0.17317253  0.50036244  0.31705547  1  -0.043729  0  -0.099967  -0.176041  0  4.018915  0
C  C350  1  0.00941099  0.17325492  0.31703267  1  -0.036604  0  -0.09884  -0.175331  0  4.017784  0
C  C351  1  0.50036115  0.00946792  0.31700579  1  -0.019093  0  -0.099491  -0.174861  0  4.019312  0
C  C352  1  0.50913374  0.00223324  0.78311229  1  -0.045268  0  -0.094008  -0.120288  0  4.009409  0
C  C353  1  0.00222849  0.70553923  0.78315706  1  -0.027305  0  -0.094105  -0.118467  0  4.008423  0
C  C354  1  0.70562673  0.50906146  0.78313130  1  -0.082325  0  -0.094135  -0.118225  0  4.011084  0
C  C355  1  0.79446123  0.49777134  0.71684298  1  -0.027311  0  -0.094109  -0.118464  0  4.008453  0
C  C356  1  0.99093817  0.79437263  0.71686880  1  -0.08232  0  -0.094142  -0.118263  0  4.011039  0
C  C357  1  0.49776686  0.99086685  0.71688790  1  -0.045462  0  -0.093981  -0.120195  0  4.009357  0
C  C358  1  0.49086542  0.99776579  0.21688792  1  -0.045533  0  -0.09404  -0.120201  0  4.009424  0
C  C359  1  0.99777067  0.29446143  0.21684308  1  -0.02732  0  -0.094118  -0.118488  0  4.008487  0
C  C360  1  0.29437289  0.49093899  0.21686879  1  -0.082405  0  -0.094115  -0.118145  0  4.01096  0
C  C361  1  0.20553884  0.50222891  0.28315706  1  -0.027314  0  -0.0941  -0.11846  0  4.00846  0
C  C362  1  0.00906053  0.20562823  0.28313211  1  -0.082122  0  -0.094126  -0.118195  0  4.010973  0
C  C363  1  0.50223457  0.00913442  0.28311191  1  -0.045651  0  -0.094112  -0.120322  0  4.009452  0
C  C364  1  0.45746134  0.04229672  0.76788738  1  0.001993  0  -0.017764  0.052183  0  4.022797  0
C  C365  1  0.04232991  0.73232333  0.76790005  1  -0.021966  0  -0.017721  0.049187  0  4.023076  0
C  C366  1  0.73240737  0.45741509  0.76789880  1  -0.048643  0  -0.017614  0.050728  0  4.02353  0
C  C367  1  0.76767673  0.45767011  0.73209978  1  -0.022109  0  -0.017663  0.049272  0  4.022982  0
C  C368  1  0.04258401  0.76759207  0.73210133  1  -0.048823  0  -0.017627  0.050682  0  4.023469  0
C  C369  1  0.45770281  0.04253872  0.73211319  1  -0.034692  0  -0.01774  0.052222  0  4.022748  0
C  C370  1  0.54253827  0.95770251  0.23211319  1  -0.034661  0  -0.01777  0.052115  0  4.02282  0
C  C371  1  0.95766970  0.26767753  0.23210068  1  -0.022177  0  -0.017686  0.049236  0  4.023066  0
C  C372  1  0.26759178  0.54258557  0.23210182  1  -0.04852  0  -0.017623  0.050683  0  4.023411  0
C  C373  1  0.23232288  0.54232993  0.26789990  1  -0.022155  0  -0.017692  0.049215  0  4.023072  0
C  C374  1  0.95741424  0.23240899  0.26789866  1  -0.048656  0  -0.017681  0.050598  0  4.023399  0
C  C375  1  0.54229771  0.95746133  0.26788704  1  0.001985  0  -0.01773  0.052226  0  4.022735  0
C  C376  1  0.40616849  0.08134831  0.78840210  1  -0.030006  0  -0.09356  -0.121063  0  4.006457  0
C  C377  1  0.08137699  0.72402079  0.78840971  1  -0.032949  0  -0.092541  -0.117766  0  4.004468  0
C  C378  1  0.72410567  0.40614781  0.78842472  1  -0.012765  0  -0.09425  -0.119586  0  4.005916  0
C  C379  1  0.77597939  0.41862302  0.71158986  1  -0.03298  0  -0.092558  -0.117769  0  4.004389  0
C  C380  1  0.09385171  0.77589412  0.71157502  1  -0.01263  0  -0.094276  -0.119603  0  4.005851  0
C  C381  1  0.41865215  0.09383107  0.71159839  1  -0.029754  0  -0.093526  -0.120993  0  4.006484  0
C  C382  1  0.59383158  0.91865235  0.21159834  1  -0.029755  0  -0.093533  -0.120975  0  4.0065  0
C  C383  1  0.91862216  0.27598068  0.21159027  1  -0.032924  0  -0.092597  -0.117844  0  4.004416  0
C  C384  1  0.27589394  0.59385264  0.21157561  1  -0.012758  0  -0.094243  -0.119534  0  4.005727  0
C  C385  1  0.22401977  0.58137763  0.28841003  1  -0.032927  0  -0.092535  -0.117774  0  4.004347  0
C  C386  1  0.90614745  0.22410612  0.28842471  1  -0.012742  0  -0.094239  -0.1196  0  4.005744  0
C  C387  1  0.58134837  0.90616898  0.28840160  1  -0.029869  0  -0.093524  -0.120976  0  4.006507  0
C  C388  1  0.58346511  0.80591495  0.95577792  1  1.529906  0  0.224687  0.603832  0  4.177827  0
C  C389  1  0.80589894  0.65481656  0.95574418  1  1.535958  0  0.222733  0.602527  0  4.17784  0
C  C390  1  0.65483763  0.58345298  0.95577641  1  1.552643  0  0.223994  0.603683  0  4.179716  0
C  C391  1  0.84518326  0.69410051  0.54425562  1  1.535909  0  0.22276  0.602567  0  4.177907  0
C  C392  1  0.91654833  0.84516406  0.54422218  1  1.552708  0  0.223979  0.603658  0  4.179858  0
C  C393  1  0.69408615  0.91653559  0.54422164  1  1.529738  0  0.224687  0.603985  0  4.177535  0
C  C394  1  0.41653678  0.19408285  0.04422079  1  1.529767  0  0.224673  0.603916  0  4.177796  0
C  C395  1  0.19410112  0.34518247  0.04425561  1  1.53615  0  0.22279  0.602628  0  4.177968  0
C  C396  1  0.34516289  0.41654951  0.04422213  1  1.552335  0  0.22408  0.603836  0  4.17979  0
C  C397  1  0.15481772  0.30589893  0.45574488  1  1.5361  0  0.222779  0.602648  0  4.177834  0
C  C398  1  0.08344901  0.15483659  0.45577880  1  1.552213  0  0.224001  0.603704  0  4.180032  0
C  C399  1  0.30591574  0.08346262  0.45577868  1  1.529703  0  0.224612  0.603872  0  4.177744  0
N  N400  1  0.45808315  0.03552660  0.87196531  1  -1.235699  0  -0.253728  -0.158272  0  3.686391  0
N  N401  1  0.03553991  0.63441073  0.87201303  1  -1.255157  0  -0.253835  -0.157787  0  3.687139  0
N  N402  1  0.63446468  0.45808614  0.87200403  1  -1.214796  0  -0.254254  -0.158279  0  3.68555  0
N  N403  1  0.86558829  0.46446156  0.62798648  1  -1.255496  0  -0.253875  -0.157802  0  3.687185  0
N  N404  1  0.04191332  0.86553520  0.62799571  1  -1.214817  0  -0.254272  -0.158335  0  3.685526  0
N  N405  1  0.46447357  0.04191669  0.62803493  1  -1.235929  0  -0.253754  -0.157916  0  3.686689  0
N  N406  1  0.54191691  0.96447406  0.12803464  1  -1.235731  0  -0.253731  -0.158149  0  3.686338  0
N  N407  1  0.96446062  0.36558972  0.12798663  1  -1.255493  0  -0.253866  -0.157983  0  3.687341  0
N  N408  1  0.36553448  0.54191411  0.12799619  1  -1.214826  0  -0.254279  -0.158353  0  3.685576  0
N  N409  1  0.13441086  0.53553869  0.37201350  1  -1.255481  0  -0.253891  -0.157978  0  3.687327  0
N  N410  1  0.95808538  0.13446484  0.37200439  1  -1.214812  0  -0.254284  -0.158376  0  3.68563  0
N  N411  1  0.53552650  0.95808478  0.37196486  1  -1.23592  0  -0.253781  -0.157877  0  3.686596  0
O  O412  1  0.33710673  0.33707448  0.98874775  1  -1.237512  0  -0.572442  -1.027324  0  2.532888  0
O  O413  1  0.16292537  0.16289319  0.51125256  1  -1.237524  0  -0.572457  -1.027312  0  2.532852  0
O  O414  1  0.66289379  0.66292475  0.01125167  1  -1.237448  0  -0.572429  -1.027261  0  2.53287  0
O  O415  1  0.83707516  0.83710604  0.48874782  1  -1.237523  0  -0.572453  -1.027334  0  2.532952  0
O  O416  1  0.36903209  0.28457757  0.91979157  1  -1.167297  0  -0.320244  -0.55166  0  2.323729  0
O  O417  1  0.28461175  0.42665312  0.91980554  1  -1.171187  0  -0.31953  -0.551637  0  2.321668  0
O  O418  1  0.42669410  0.36899731  0.91980068  1  -1.16597  0  -0.318742  -0.549297  0  2.3214  0
O  O419  1  0.07334883  0.21539007  0.58019326  1  -1.171354  0  -0.319568  -0.551694  0  2.321681  0
O  O420  1  0.13100174  0.07330586  0.58020002  1  -1.166016  0  -0.318645  -0.549174  0  2.3215  0
O  O421  1  0.21542143  0.13096849  0.58020925  1  -1.16734  0  -0.320124  -0.551556  0  2.323845  0
O  O422  1  0.63096980  0.71542023  0.08020980  1  -1.167346  0  -0.32017  -0.551575  0  2.323917  0
O  O423  1  0.71538968  0.57334775  0.08019362  1  -1.171176  0  -0.319558  -0.551616  0  2.32154  0
O  O424  1  0.57330415  0.63100456  0.08020012  1  -1.165954  0  -0.318658  -0.549186  0  2.321431  0
O  O425  1  0.92665215  0.78460977  0.41980716  1  -1.171155  0  -0.319566  -0.551639  0  2.321703  0
O  O426  1  0.86899787  0.92669378  0.41980047  1  -1.166  0  -0.31863  -0.549148  0  2.321516  0
O  O427  1  0.78457954  0.86902931  0.41979036  1  -1.16737  0  -0.320144  -0.551523  0  2.323813  0
O  O428  1  0.32377937  0.23678999  0.96696838  1  -1.184405  0  -0.325886  -0.56165  0  2.341394  0
O  O429  1  0.23682987  0.47247483  0.96699258  1  -1.184761  0  -0.326951  -0.563749  0  2.340081  0
O  O430  1  0.47257150  0.32373309  0.96696643  1  -1.184736  0  -0.326136  -0.561994  0  2.341606  0
O  O431  1  0.02752433  0.26317104  0.53300695  1  -1.184792  0  -0.326961  -0.563811  0  2.340096  0
O  O432  1  0.17626820  0.02742798  0.53303465  1  -1.184712  0  -0.326168  -0.562043  0  2.341613  0
O  O433  1  0.26320724  0.17622287  0.53303223  1  -1.184423  0  -0.325919  -0.561709  0  2.341364  0
O  O434  1  0.67622206  0.76320680  0.03303207  1  -1.184401  0  -0.325886  -0.56169  0  2.341362  0
O  O435  1  0.76317384  0.52752746  0.03300586  1  -1.184771  0  -0.327035  -0.563834  0  2.340054  0
O  O436  1  0.52742720  0.67627062  0.03303417  1  -1.184733  0  -0.326121  -0.562014  0  2.341546  0
O  O437  1  0.97247392  0.73682595  0.46699456  1  -1.184814  0  -0.326976  -0.563748  0  2.340099  0
O  O438  1  0.82373278  0.97257064  0.46696601  1  -1.184707  0  -0.32615  -0.562049  0  2.341552  0
O  O439  1  0.73679237  0.82377636  0.46696737  1  -1.184423  0  -0.325899  -0.561661  0  2.341394  0
O  O440  1  0.56248781  0.76700245  0.96369007  1  -1.167438  0  -0.31946  -0.550625  0  2.327539  0
O  O441  1  0.76705180  0.70677697  0.96371758  1  -1.171454  0  -0.31921  -0.549953  0  2.327626  0
O  O442  1  0.70680396  0.56235894  0.96373562  1  -1.169109  0  -0.319454  -0.551277  0  2.327692  0
O  O443  1  0.79322298  0.73294719  0.53628204  1  -1.171434  0  -0.3192  -0.549935  0  2.327602  0
O  O444  1  0.93764186  0.79319828  0.53626271  1  -1.169132  0  -0.319521  -0.551332  0  2.327919  0
O  O445  1  0.73299904  0.93751225  0.53631099  1  -1.167334  0  -0.31949  -0.550691  0  2.327333  0
O  O446  1  0.43751362  0.23299719  0.03630788  1  -1.167265  0  -0.319438  -0.550632  0  2.327328  0
O  O447  1  0.23294690  0.29322185  0.03628227  1  -1.171469  0  -0.319219  -0.549965  0  2.327636  0
O  O448  1  0.29319793  0.43764335  0.03626196  1  -1.169196  0  -0.319528  -0.551355  0  2.327841  0
O  O449  1  0.20677800  0.26705347  0.46371822  1  -1.171488  0  -0.319223  -0.549973  0  2.327639  0
O  O450  1  0.06235593  0.20680135  0.46373862  1  -1.169085  0  -0.319527  -0.551313  0  2.327946  0
O  O451  1  0.26700103  0.06248718  0.46369017  1  -1.167304  0  -0.31943  -0.550645  0  2.327331  0
O  O452  1  0.62912536  0.79895790  0.96555679  1  -1.171894  0  -0.319846  -0.555116  0  2.346437  0
O  O453  1  0.79884756  0.60638634  0.96544096  1  -1.175147  0  -0.319096  -0.554121  0  2.345856  0
O  O454  1  0.60638542  0.62920864  0.96550588  1  -1.180895  0  -0.318855  -0.553767  0  2.346446  0
O  O455  1  0.89361359  0.70115287  0.53455862  1  -1.175109  0  -0.319079  -0.554103  0  2.345806  0
O  O456  1  0.87079412  0.89361764  0.53449119  1  -1.180889  0  -0.318762  -0.553658  0  2.34645  0
O  O457  1  0.70104396  0.87087524  0.53444312  1  -1.171809  0  -0.319827  -0.555157  0  2.346436  0
O  O458  1  0.37087471  0.20104113  0.03444275  1  -1.171923  0  -0.319859  -0.555159  0  2.346442  0
O  O459  1  0.20115342  0.39361187  0.03455857  1  -1.175302  0  -0.319096  -0.554138  0  2.345791  0
O  O460  1  0.39361647  0.37079365  0.03449195  1  -1.180842  0  -0.318831  -0.55375  0  2.346462  0
O  O461  1  0.10638784  0.29884718  0.46544191  1  -1.175292  0  -0.319106  -0.554171  0  2.345773  0
O  O462  1  0.12920413  0.10638301  0.46550961  1  -1.180825  0  -0.318782  -0.553712  0  2.346481  0
O  O463  1  0.29895702  0.12912419  0.46555811  1  -1.171818  0  -0.319802  -0.555107  0  2.346491  0
