# generated using pymatgen
data_Co3H40C53(NO3)4
_symmetry_space_group_name_H-M   'P 1'
_cell_length_a   13.92248700
_cell_length_b   19.04033689
_cell_length_c   26.18196813
_cell_angle_alpha   89.96725227
_cell_angle_beta   89.93041640
_cell_angle_gamma   89.97017765
_symmetry_Int_Tables_number   1
_chemical_formula_structural   Co3H40C53(NO3)4
_chemical_formula_sum   'Co12 H160 C212 N16 O48'
_cell_volume   6940.54044374
_cell_formula_units_Z   4
loop_
 _symmetry_equiv_pos_site_id
 _symmetry_equiv_pos_as_xyz
  1  'x, y, z'
loop_
 _atom_site_type_symbol
 _atom_site_label
 _atom_site_symmetry_multiplicity
 _atom_site_fract_x
 _atom_site_fract_y
 _atom_site_fract_z
 _atom_site_occupancy
 _atom_site_pbe_bader_charge
 _atom_site_pbe_bader_spin_density
 _atom_site_pbe_cm5_charge
 _atom_site_pbe_ddec_charge
 _atom_site_pbe_ddec_spin_density
 _atom_site_pbe_ddec_sum_bond_order
 _atom_site_pbe_magmom
Co  Co0  1  0.97775285  0.93593093  0.85855549  1  1.241851  -2.565684  0.664485  0.902138  -2.835695  2.473626  -2.52
Co  Co1  1  0.52192044  0.43583074  0.64097982  1  1.241011  2.573758  0.665184  0.900801  2.749234  2.49595  2.529
Co  Co2  1  0.01995455  0.56400469  0.85927286  1  1.243946  -2.564296  0.665237  0.901428  -2.83388  2.480672  -2.519
Co  Co3  1  0.47894543  0.06394816  0.64152087  1  1.247267  2.573593  0.666056  0.901841  2.750605  2.498176  2.529
Co  Co4  1  0.02223702  0.06335280  0.14115197  1  1.24429  -2.563647  0.666424  0.903671  -2.831627  2.485282  -2.518
Co  Co5  1  0.46735936  0.57016178  0.36422891  1  1.130649  0.982713  0.633862  0.734745  1.023717  2.858416  0.943
Co  Co6  1  0.97836632  0.43539975  0.14144459  1  1.24111  2.572158  0.665347  0.899443  2.748733  2.500271  2.527
Co  Co7  1  0.52230475  0.93611866  0.35751686  1  1.244126  2.570873  0.660195  0.900752  2.745402  2.474887  2.526
Co  Co8  1  0.99788687  0.74970243  0.85859853  1  1.416238  2.648416  0.693414  1.139554  2.873313  2.412878  2.638
Co  Co9  1  0.50028521  0.24976483  0.64171429  1  1.419143  2.670682  0.69643  1.141432  2.899041  2.430094  2.661
Co  Co10  1  0.00052646  0.25042441  0.14143544  1  1.41932  2.660893  0.696584  1.142988  2.887697  2.425409  2.651
Co  Co11  1  0.50275444  0.74915093  0.35870611  1  1.391841  2.634002  0.680627  1.109512  2.851264  2.401483  2.623
H  H12  1  0.38087460  0.96594839  0.22083286  1  0.053566  0.000325  0.102603  0.107152  6.7e-05  1.005406  0.0
H  H13  1  0.11065946  0.46836677  0.28200920  1  0.066274  0.000365  0.102241  0.105915  9.6e-05  1.009276  0.0
H  H14  1  0.60982215  0.52838018  0.21943464  1  0.073026  0.00045  0.10246  0.105925  0.000242  1.006653  0.0
H  H15  1  0.88475214  0.03045824  0.28107297  1  0.093268  -0.000293  0.102808  0.10713  -6.6e-05  1.005075  0.0
H  H16  1  0.61649234  0.03052417  0.78087398  1  0.091137  0.000345  0.102566  0.106883  8.8e-05  1.006041  0.0
H  H17  1  0.88051863  0.52923593  0.72023336  1  0.072205  -0.000295  0.102428  0.10649  -6.5e-05  1.00596  0.0
H  H18  1  0.38357570  0.46956280  0.78052196  1  0.083833  0.000344  0.102472  0.106565  9.2e-05  1.005822  0.0
H  H19  1  0.11552085  0.96876454  0.71854007  1  0.058018  -0.000306  0.1025  0.106563  -6.9e-05  1.006012  0.0
H  H20  1  0.30476151  0.96926396  0.13557058  1  0.08536  -6.1e-05  0.100054  0.103495  1.1e-05  1.039997  0.0
H  H21  1  0.18589674  0.47056268  0.36764567  1  0.073495  9.6e-05  0.099691  0.098942  -6.2e-05  1.032139  0.0
H  H22  1  0.68933401  0.52680428  0.13471316  1  0.061326  0.000394  0.099243  0.100397  0.000142  1.042505  0.0
H  H23  1  0.80638171  0.02896404  0.36603573  1  0.076822  0.000376  0.099535  0.100936  0.000141  1.045235  0.0
H  H24  1  0.69358555  0.02835549  0.86603906  1  0.070371  -5.8e-05  0.1  0.103938  1e-05  1.040665  0.0
H  H25  1  0.80531100  0.52616132  0.63469598  1  0.052319  0.000383  0.099444  0.101348  0.000143  1.046234  0.0
H  H26  1  0.30627758  0.47138389  0.86575716  1  0.072424  -5.4e-05  0.09983  0.101105  9e-06  1.042503  0.0
H  H27  1  0.19399869  0.97073029  0.63372423  1  0.081242  0.000374  0.099556  0.10083  0.000143  1.04306  0.0
H  H28  1  0.30002737  0.74246920  0.13361844  1  0.022599  0.000147  0.099775  0.097399  5.8e-05  1.016414  0.0
H  H29  1  0.20464283  0.24412990  0.36475545  1  0.045691  0.000173  0.099842  0.096383  7.6e-05  1.016933  0.0
H  H30  1  0.69858941  0.75341399  0.13626742  1  0.075719  0.000211  0.09901  0.095882  9e-05  1.01856  0.0
H  H31  1  0.80103428  0.25567397  0.36552456  1  0.042278  -0.000132  0.099606  0.096144  -5e-05  1.017711  0.0
H  H32  1  0.69935963  0.25510139  0.86621255  1  0.016813  0.000146  0.099352  0.096399  6e-05  1.017485  0.0
H  H33  1  0.80059227  0.75288746  0.63272292  1  0.049816  -0.000139  0.099431  0.09667  -5.4e-05  1.018772  0.0
H  H34  1  0.30080500  0.24463315  0.86574017  1  0.028304  0.000163  0.099777  0.096691  7e-05  1.01736  0.0
H  H35  1  0.19926917  0.74394128  0.63371485  1  0.048411  -0.000133  0.099393  0.096302  -5.1e-05  1.017945  0.0
H  H36  1  0.62414389  0.67164700  0.86798061  1  0.037886  -5.7e-05  0.10382  0.104969  -2.4e-05  1.001612  0.0
H  H37  1  0.87456981  0.17120269  0.63222684  1  0.081282  4.3e-05  0.103833  0.105117  2.7e-05  1.001476  0.0
H  H38  1  0.37261663  0.82899699  0.86807801  1  0.081485  -5.6e-05  0.10364  0.104436  -2.3e-05  1.002001  0.0
H  H39  1  0.12612665  0.32825542  0.63265268  1  0.04279  4.4e-05  0.10373  0.104732  2.6e-05  1.00257  0.0
H  H40  1  0.37409565  0.32858130  0.13325499  1  0.042586  -5.3e-05  0.103951  0.104897  -2.1e-05  1.002067  0.0
H  H41  1  0.12799177  0.82605800  0.37286255  1  0.068303  -1e-05  0.105241  0.106867  5e-06  0.998347  0.0
H  H42  1  0.62490456  0.17168626  0.13182971  1  0.041189  4.1e-05  0.103878  0.105003  2.3e-05  1.001714  0.0
H  H43  1  0.87598975  0.67115270  0.36219232  1  0.02719  4e-05  0.103827  0.105056  2.6e-05  1.000562  0.0
H  H44  1  0.49406040  0.87119783  0.83097694  1  0.048006  9e-06  0.098454  0.093485  4e-06  1.03133  0.0
H  H45  1  0.00516822  0.37038404  0.66933267  1  0.053056  6.3e-05  0.098669  0.093977  3.5e-05  1.031103  0.0
H  H46  1  0.50298765  0.62949760  0.83114632  1  0.055812  7e-06  0.098338  0.093362  3e-06  1.031041  0.0
H  H47  1  0.99519178  0.12880853  0.66898956  1  0.045867  6.4e-05  0.098629  0.094142  3.5e-05  1.031282  0.0
H  H48  1  0.50458079  0.12915335  0.17009656  1  0.050074  3e-06  0.098569  0.093863  3e-06  1.032396  0.0
H  H49  1  0.99781543  0.63284579  0.32151843  1  0.05426  -8e-06  0.098543  0.092657  1e-06  1.039889  0.0
H  H50  1  0.49520549  0.37025680  0.17187420  1  0.054944  5.3e-05  0.098976  0.094441  2.4e-05  1.029071  0.0
H  H51  1  0.00803332  0.87276149  0.33426271  1  0.030905  4.7e-05  0.099289  0.095444  3e-05  1.025909  0.0
H  H52  1  0.37428856  0.74075781  0.21920678  1  0.098537  0.000174  0.107169  0.11543  2.1e-05  0.992316  0.0
H  H53  1  0.12930054  0.24372645  0.27931075  1  0.085971  0.000206  0.108544  0.118067  6.4e-05  0.989756  0.0
H  H54  1  0.62184027  0.75329707  0.22128055  1  0.076315  0.000252  0.107077  0.116639  5.7e-05  0.991302  0.0
H  H55  1  0.87713026  0.25558580  0.28017634  1  0.099624  0.000139  0.107699  0.116788  2.3e-05  0.990043  0.0
H  H56  1  0.62397742  0.25566061  0.78082458  1  0.123466  0.000186  0.107773  0.11702  2.7e-05  0.98947  0.0
H  H57  1  0.87339748  0.75439467  0.71860515  1  0.106226  0.000146  0.107713  0.117212  5.4e-05  0.989504  0.0
H  H58  1  0.37639690  0.24442483  0.78029894  1  0.10329  0.000188  0.107841  0.117075  2.8e-05  0.989729  0.0
H  H59  1  0.12272320  0.74368246  0.71885054  1  0.127054  0.000148  0.107966  0.117452  5.6e-05  0.989166  0.0
H  H60  1  0.65433002  0.92691255  0.83297558  1  0.094837  -0.000474  0.103871  0.1063  -0.000225  1.028872  0.0
H  H61  1  0.84508265  0.42650471  0.66717551  1  0.101686  0.000462  0.10383  0.106025  0.000221  1.030212  0.0
H  H62  1  0.34275772  0.57368141  0.83343346  1  0.102121  -0.000481  0.103846  0.106622  -0.000229  1.027438  0.0
H  H63  1  0.15535565  0.07264231  0.66674444  1  0.087723  0.00048  0.103921  0.106695  0.000226  1.027971  0.0
H  H64  1  0.34454417  0.07296408  0.16737110  1  0.093773  -0.000482  0.103909  0.106853  -0.000223  1.024604  0.0
H  H65  1  0.15766810  0.57632212  0.32019053  1  0.086153  1.3e-05  0.105895  0.109053  -7.2e-05  1.018864  0.0
H  H66  1  0.65553397  0.42619226  0.16942698  1  0.101566  0.000464  0.103753  0.105634  0.000213  1.030495  0.0
H  H67  1  0.84776387  0.92861416  0.33659693  1  0.058376  0.000472  0.103582  0.106137  0.000217  1.030969  0.0
H  H68  1  0.11416222  0.96854773  0.00194492  1  0.086279  -0.000249  0.103566  0.105734  -3.3e-05  1.005902  0.0
H  H69  1  0.38252435  0.46828367  0.49974492  1  0.103082  0.000655  0.102708  0.103536  0.000312  1.008735  0.0
H  H70  1  0.88431200  0.53017682  0.00210280  1  0.092613  -0.000293  0.103188  0.105174  -6.2e-05  1.006912  0.0
H  H71  1  0.61234379  0.03188556  0.49805475  1  0.09494  0.00024  0.103756  0.105944  3.3e-05  1.005798  0.0
H  H72  1  0.88719038  0.03071769  0.99823992  1  0.081957  -0.000239  0.103668  0.105838  -2.7e-05  1.005749  0.0
H  H73  1  0.62460393  0.52725515  0.49707774  1  0.085867  2.3e-05  0.102767  0.103176  -7.4e-05  1.011619  0.0
H  H74  1  0.11354015  0.46850400  0.99857370  1  0.076527  0.000283  0.103833  0.106141  6.1e-05  1.005751  0.0
H  H75  1  0.38601762  0.96799193  0.50034267  1  0.066825  0.000226  0.103601  0.106027  3e-05  1.005863  0.0
H  H76  1  0.20393449  0.96778383  0.08264643  1  0.108091  -7.3e-05  0.101923  0.107692  -7e-06  1.030477  0.0
H  H77  1  0.29324995  0.46829348  0.41855184  1  0.052036  0.00148  0.101019  0.099874  0.000995  1.02789  0.0
H  H78  1  0.79367691  0.52923808  0.08276301  1  0.083707  0.00027  0.101558  0.108284  8.5e-05  1.029974  0.0
H  H79  1  0.70222389  0.03180354  0.41716087  1  0.102935  0.000291  0.102124  0.108543  9.5e-05  1.029843  0.0
H  H80  1  0.79693922  0.03080678  0.91758262  1  0.095016  -7.8e-05  0.102032  0.107736  -1.3e-05  1.029296  0.0
H  H81  1  0.70809688  0.52765454  0.57953797  1  0.102622  0.000284  0.10189  0.108312  9.4e-05  1.027917  0.0
H  H82  1  0.20314730  0.46878288  0.91758664  1  0.101891  -4.4e-05  0.10212  0.108473  1e-05  1.02893  0.0
H  H83  1  0.29591343  0.96839494  0.58112618  1  0.069689  0.00028  0.102358  0.108468  8.5e-05  1.028052  0.0
H  H84  1  0.17734308  0.75020248  0.97927304  1  0.111314  0.00017  0.10633  0.115677  6.8e-05  0.995164  0.0
H  H85  1  0.32164815  0.24929415  0.52035956  1  0.102918  0.000226  0.107137  0.116561  5e-05  0.993474  0.0
H  H86  1  0.82180464  0.74907312  0.98178389  1  0.121817  0.000172  0.106159  0.115716  7.1e-05  0.994679  0.0
H  H87  1  0.67875654  0.24972171  0.52048919  1  0.063505  0.000229  0.106408  0.115245  4.5e-05  0.996019  0.0
H  H88  1  0.82138094  0.24871107  0.02079203  1  0.077621  0.000179  0.106639  0.115723  4.7e-05  0.995396  0.0
H  H89  1  0.68752131  0.74608876  0.47662326  1  0.114794  0.000171  0.10652  0.11559  2.8e-05  0.997776  0.0
H  H90  1  0.17911462  0.25033076  0.02044406  1  0.067578  0.000226  0.106668  0.115977  7.3e-05  0.995246  0.0
H  H91  1  0.32449594  0.74904333  0.47977955  1  0.098334  0.000248  0.105688  0.114767  5.2e-05  0.996335  0.0
H  H92  1  0.78411305  0.72781942  0.86813600  1  0.148957  -0.000449  0.109826  0.122812  -0.000423  1.029909  0.0
H  H93  1  0.71461560  0.22779926  0.63212315  1  0.146241  6.1e-05  0.109894  0.12269  -9.6e-05  1.029325  0.0
H  H94  1  0.21263630  0.77269154  0.86830497  1  0.148858  -0.00043  0.109744  0.122486  -0.00041  1.031225  0.0
H  H95  1  0.28606096  0.27162635  0.63257763  1  0.154418  6e-05  0.109705  0.122332  -9.7e-05  1.030426  0.0
H  H96  1  0.21422510  0.27194221  0.13243012  1  0.14662  -0.000328  0.109566  0.121793  -0.000327  1.02946  0.0
H  H97  1  0.28742989  0.76892688  0.37157701  1  0.141455  -0.000255  0.110418  0.121708  -0.000353  1.031053  0.0
H  H98  1  0.78501078  0.22801591  0.13142319  1  0.151589  -5.5e-05  0.109859  0.123333  -0.000194  1.028383  0.0
H  H99  1  0.71605467  0.72757900  0.36237817  1  0.148876  -6.1e-05  0.110574  0.123756  -0.000199  1.029231  0.0
H  H100  1  0.27212903  0.74847051  0.05892211  1  0.053549  -0.000151  0.099393  0.098667  -5.6e-05  1.015867  0.0
H  H101  1  0.22683886  0.24860067  0.44061025  1  0.055117  0.00018  0.100172  0.099583  8.2e-05  1.013994  0.0
H  H102  1  0.72644721  0.74908146  0.06139594  1  0.054284  -0.000135  0.098924  0.098071  -4.6e-05  1.015831  0.0
H  H103  1  0.77384682  0.25043605  0.44069726  1  0.063018  0.000153  0.099216  0.098188  6.7e-05  1.016043  0.0
H  H104  1  0.72610464  0.24962223  0.94120859  1  0.048958  -0.000154  0.099337  0.098635  -5.5e-05  1.015105  0.0
H  H105  1  0.77746191  0.74706148  0.55781133  1  0.06503  -8e-06  0.099238  0.098316  5e-06  1.01517  0.0
H  H106  1  0.27409749  0.24981364  0.94066075  1  0.059688  0.000168  0.099555  0.098705  7.8e-05  1.015652  0.0
H  H107  1  0.22900221  0.74860385  0.55930074  1  0.043105  0.000155  0.099026  0.098024  6.8e-05  1.016218  0.0
H  H108  1  0.06491601  0.05428931  0.93172939  1  0.135659  -0.000842  0.123074  0.120557  -0.000168  1.002624  -0.001
H  H109  1  0.44217007  0.55467923  0.56613616  1  0.097363  0.000841  0.122042  0.119155  0.00016  1.005229  0.001
H  H110  1  0.93376461  0.44494410  0.93275180  1  0.107539  -0.000845  0.123178  0.120489  -0.000177  1.002033  -0.001
H  H111  1  0.56407278  0.94535496  0.56791843  1  0.09088  0.000827  0.123019  0.120452  0.000155  1.001929  0.001
H  H112  1  0.93554395  0.94518354  0.06761503  1  0.130582  -0.000845  0.123022  0.120435  -0.00017  1.002765  -0.001
H  H113  1  0.56332405  0.45873987  0.43463372  1  0.136351  4.9e-05  0.122074  0.1207  -7.6e-05  1.019754  0.0
H  H114  1  0.06477942  0.55422543  0.06823070  1  0.136612  0.000812  0.123045  0.120448  0.000159  1.002554  0.001
H  H115  1  0.43195836  0.05341799  0.43039519  1  0.161248  0.000743  0.122361  0.119187  0.000131  1.004786  0.001
H  H116  1  0.91730242  0.01085894  0.76980034  1  0.114141  -0.001002  0.110138  0.16677  -0.000494  0.992962  0.0
H  H117  1  0.58240367  0.51071859  0.72986272  1  0.11374  0.000927  0.11001  0.166287  0.000452  0.992376  0.0
H  H118  1  0.08081825  0.48999655  0.77069314  1  0.104737  -0.001062  0.110065  0.166647  -0.000519  0.993433  0.0
H  H119  1  0.41526713  0.98921619  0.72960380  1  0.116136  0.000969  0.109931  0.165469  0.000481  0.992271  0.0
H  H120  1  0.08133476  0.98866764  0.23000911  1  0.067746  -0.001055  0.109943  0.16703  -0.000498  0.992834  0.0
H  H121  1  0.42291440  0.49740287  0.26947718  1  0.111257  -0.00012  0.110866  0.17605  -0.000149  1.001377  0.0
H  H122  1  0.91211897  0.50981692  0.22886983  1  0.097554  0.00095  0.11018  0.165718  0.000468  0.991318  0.0
H  H123  1  0.58935443  0.01425239  0.27039271  1  0.113486  0.00106  0.110556  0.165212  0.000556  0.986293  0.0
H  H124  1  0.93788007  0.09701154  0.74582104  1  0.020986  -0.000253  0.095942  0.134703  -5.9e-05  1.016633  0.0
H  H125  1  0.55963057  0.59655444  0.75388131  1  0.043155  0.000164  0.096018  0.134751  2.7e-05  1.016091  0.0
H  H126  1  0.06094619  0.40394563  0.74653293  1  0.041011  -0.000262  0.09572  0.134481  -6.2e-05  1.016241  0.0
H  H127  1  0.43766952  0.90358412  0.75411068  1  0.029642  0.000219  0.095803  0.134948  4.6e-05  1.016596  0.0
H  H128  1  0.05974643  0.90266911  0.25400703  1  0.031812  -0.000259  0.095823  0.135146  -6.1e-05  1.015284  0.0
H  H129  1  0.43528087  0.40843465  0.24935460  1  0.026119  -0.000198  0.094591  0.131836  -5.1e-05  1.016409  0.0
H  H130  1  0.93363538  0.59539095  0.25359946  1  0.042888  0.00021  0.094793  0.132892  4.7e-05  1.021894  0.0
H  H131  1  0.56312004  0.09947283  0.24607698  1  0.036748  0.00024  0.096142  0.135864  5.4e-05  1.01559  0.0
H  H132  1  0.82877758  0.07737595  0.77829039  1  0.102441  8e-05  0.099302  0.148214  7.2e-05  1.015383  0.0
H  H133  1  0.67042452  0.57782273  0.72276998  1  0.102652  -6.3e-05  0.099363  0.1478  -6.8e-05  1.015992  0.0
H  H134  1  0.16996754  0.42384160  0.77885129  1  0.059758  8.5e-05  0.099329  0.147933  7.6e-05  1.015535  0.0
H  H135  1  0.32801395  0.92180261  0.72180519  1  0.098091  -6.4e-05  0.099548  0.148045  -7e-05  1.015178  0.0
H  H136  1  0.16958685  0.92182537  0.22207761  1  0.063817  7.6e-05  0.09893  0.147619  7.2e-05  1.016902  0.0
H  H137  1  0.32857863  0.43616941  0.28099898  1  0.040693  -4.4e-05  0.097923  0.147768  -4e-05  1.011727  0.0
H  H138  1  0.82503379  0.57723415  0.22047088  1  0.058459  -5.9e-05  0.100177  0.149528  -7.9e-05  1.015108  0.0
H  H139  1  0.67296594  0.08376352  0.27885855  1  0.087204  -3.2e-05  0.099528  0.147985  -5.4e-05  1.018152  0.0
H  H140  1  0.96572177  0.28931378  0.76333056  1  0.061011  -7.9e-05  0.099638  0.102943  -2.4e-05  0.993515  0.0
H  H141  1  0.53316999  0.78832105  0.73706845  1  0.059241  7.4e-05  0.099774  0.103253  2.1e-05  0.993105  0.0
H  H142  1  0.03485601  0.21169319  0.76330980  1  0.068827  -7.9e-05  0.099851  0.10349  -2.5e-05  0.992013  0.0
H  H143  1  0.46519781  0.71024469  0.73643566  1  0.057124  7.4e-05  0.099758  0.103337  2.1e-05  0.992566  0.0
H  H144  1  0.03259294  0.71036626  0.23639798  1  0.06356  -3.7e-05  0.098093  0.101135  -2.9e-05  1.002374  0.0
H  H145  1  0.46805941  0.22077368  0.26539686  1  0.06429  4.3e-05  0.100221  0.104281  7e-06  0.988243  0.0
H  H146  1  0.96418669  0.78833432  0.23659643  1  0.068772  -7e-06  0.100104  0.10402  5e-06  0.989795  0.0
H  H147  1  0.54280417  0.29537206  0.26704950  1  0.06127  3e-05  0.100587  0.104755  9e-06  0.989505  0.0
H  H148  1  0.01824434  0.19438801  0.91589749  1  0.114849  -0.000923  0.120884  0.117688  -0.000377  1.026491  0.0
H  H149  1  0.48756064  0.69479927  0.58274110  1  0.095436  0.000935  0.120842  0.117874  0.000363  1.027084  0.0
H  H150  1  0.98133684  0.30513981  0.91648300  1  0.144092  -0.000904  0.120857  0.117602  -0.000375  1.025711  0.0
H  H151  1  0.51754037  0.80533479  0.58387021  1  0.107557  0.00093  0.12081  0.117454  0.000363  1.025963  0.0
H  H152  1  0.98183539  0.80505436  0.08369342  1  0.09841  -0.000796  0.12074  0.117499  -0.0003  1.025998  0.0
H  H153  1  0.52805212  0.31728649  0.41676881  1  0.122151  6.6e-05  0.121435  0.119623  1.6e-05  1.01734  0.0
H  H154  1  0.01805226  0.69424820  0.08408820  1  0.097702  0.000792  0.12079  0.117431  0.000291  1.027087  0.0
H  H155  1  0.47525771  0.19454523  0.41612476  1  0.110245  0.000802  0.121025  0.118299  0.000304  1.019704  0.0
H  H156  1  0.86228890  0.19826608  0.79580075  1  0.099737  -3e-05  0.117393  0.101295  2e-06  0.983824  0.0
H  H157  1  0.63835768  0.69858962  0.70446278  1  0.094258  2.6e-05  0.117232  0.100627  -4e-06  0.983902  0.0
H  H158  1  0.13759012  0.30276585  0.79626770  1  0.084302  -3.1e-05  0.117287  0.100468  1e-06  0.98512  0.0
H  H159  1  0.36149325  0.80110321  0.70387246  1  0.084169  2.5e-05  0.117647  0.101433  -6e-06  0.983487  0.0
H  H160  1  0.13656080  0.80110443  0.20413011  1  0.074079  -2.6e-05  0.117349  0.100773  2e-06  0.984737  0.0
H  H161  1  0.36838887  0.31188165  0.29805889  1  0.069382  -2e-06  0.117812  0.100897  2e-06  0.985125  0.0
H  H162  1  0.86032668  0.69796455  0.20375791  1  0.093701  1.4e-05  0.117015  0.100015  -9e-06  0.98564  0.0
H  H163  1  0.63893287  0.20135088  0.29901692  1  0.077995  2.9e-05  0.117036  0.100082  -3e-06  0.987157  0.0
H  H164  1  0.89246652  0.24979479  0.84912727  1  0.080026  -0.000411  0.110003  0.085701  -0.000176  1.000147  0.0
H  H165  1  0.60807669  0.75066037  0.65137783  1  0.071734  0.000403  0.110573  0.086293  0.000168  0.998765  0.0
H  H166  1  0.10725278  0.25049496  0.84925924  1  0.089209  -0.000406  0.110176  0.085526  -0.000175  1.001177  0.0
H  H167  1  0.39282611  0.74963634  0.65061350  1  0.071233  0.000415  0.110176  0.086034  0.000173  0.998388  0.0
H  H168  1  0.10640327  0.74949376  0.15085631  1  0.072517  -0.000392  0.110169  0.085494  -0.000173  1.002139  0.0
H  H169  1  0.39739648  0.26194827  0.35227015  1  0.046029  -6.7e-05  0.109368  0.084273  -2.9e-05  1.001802  0.0
H  H170  1  0.89127356  0.74966503  0.15054973  1  0.079822  0.000389  0.110301  0.085548  0.000169  1.000911  0.0
H  H171  1  0.60844340  0.25023571  0.35358774  1  0.072721  0.000385  0.109689  0.084704  0.000163  0.998113  0.0
C  C172  1  0.82420042  0.86553910  0.85422979  1  1.531745  0.002127  0.212151  0.579522  0.001405  4.151583  0.006
C  C173  1  0.67526253  0.36557099  0.64581695  1  1.528895  -0.003013  0.210524  0.578317  -0.000602  4.158573  -0.001
C  C174  1  0.17289017  0.63480879  0.85449202  1  1.495011  0.002095  0.211705  0.577908  0.001393  4.15425  0.006
C  C175  1  0.32529632  0.13378314  0.64593343  1  1.482778  -0.003206  0.210314  0.57856  -0.000742  4.157571  -0.001
C  C176  1  0.17486678  0.13402987  0.14575863  1  1.505152  0.002454  0.211032  0.578912  0.001633  4.152469  0.007
C  C177  1  0.32480678  0.63263832  0.34944490  1  1.439797  0.001476  0.205068  0.537833  0.001814  4.09842  0.003
C  C178  1  0.82480035  0.36539665  0.14635494  1  1.52438  -0.002957  0.210854  0.579134  -0.000564  4.158328  -0.001
C  C179  1  0.67663475  0.86645845  0.35307654  1  1.47888  -0.005072  0.208846  0.575743  -0.001743  4.161049  -0.002
C  C180  1  0.42380885  0.85124288  0.27811363  1  1.553361  -0.002383  0.218567  0.601774  0.000241  4.160873  -0.002
C  C181  1  0.07395828  0.35412265  0.22276669  1  1.565762  -0.004541  0.217957  0.598537  -0.000981  4.169953  -0.003
C  C182  1  0.56800042  0.64253060  0.27832368  1  1.558574  -0.003253  0.213713  0.587543  -0.000147  4.181275  -0.002
C  C183  1  0.92758697  0.14476715  0.22274437  1  1.537115  -0.001528  0.218143  0.600502  -0.001235  4.170314  0.0
C  C184  1  0.57414931  0.14514529  0.72290744  1  1.55482  -0.002865  0.216977  0.597526  -3.6e-05  4.1704  -0.002
C  C185  1  0.92417969  0.64450582  0.77733223  1  1.552665  -0.002408  0.217313  0.598282  -0.001748  4.170259  0.0
C  C186  1  0.42633606  0.35501323  0.72251423  1  1.553719  -0.003144  0.217705  0.598831  -0.000199  4.170531  -0.002
C  C187  1  0.07155166  0.85415189  0.77653452  1  1.538876  -0.002744  0.217737  0.599787  -0.001934  4.170699  -0.001
C  C188  1  0.72933766  0.83102958  0.85088290  1  -0.047222  -0.000158  -0.017243  -0.032421  -0.000204  3.981179  0.0
C  C189  1  0.76986472  0.33077815  0.64931970  1  -0.052334  0.002826  -0.017361  -0.033578  0.00137  3.984764  0.002
C  C190  1  0.26762829  0.66953995  0.85117210  1  -0.05615  -0.000106  -0.017455  -0.033261  -0.000174  3.983216  0.0
C  C191  1  0.23062385  0.16851082  0.64927932  1  -0.060318  0.002897  -0.017638  -0.033284  0.001405  3.985002  0.002
C  C192  1  0.26941367  0.16881398  0.14950050  1  -0.083541  -0.001078  -0.017416  -0.034416  -0.000675  3.984297  0.0
C  C193  1  0.23268779  0.66898318  0.34593415  1  -0.035974  -0.00178  -0.018969  -0.038367  -0.001313  4.009207  -0.001
C  C194  1  0.73014662  0.33074939  0.14997159  1  -0.05285  0.003665  -0.017599  -0.033697  0.0018  3.985582  0.003
C  C195  1  0.77163660  0.83185930  0.34995396  1  -0.06175  0.002281  -0.016849  -0.032113  0.001076  3.978297  0.002
C  C196  1  0.38161973  0.85318364  0.22567893  1  -0.057183  0.009297  -0.021822  -0.042439  0.004868  3.982662  0.007
C  C197  1  0.11614037  0.35596861  0.27515095  1  0.008792  0.009274  -0.021232  -0.039354  0.004857  3.984665  0.008
C  C198  1  0.61151772  0.64090946  0.22597162  1  -0.076867  0.011472  -0.020136  -0.03493  0.006205  3.980182  0.009
C  C199  1  0.88512446  0.14314601  0.27514260  1  0.01438  -0.002351  -0.021712  -0.040413  -0.001234  3.984236  -0.002
C  C200  1  0.61612727  0.14323451  0.77532731  1  0.005531  0.009565  -0.022257  -0.041542  0.004998  3.98678  0.008
C  C201  1  0.88170910  0.64203440  0.72494209  1  -0.007833  -0.002498  -0.022009  -0.040381  -0.001313  3.981482  -0.002
C  C202  1  0.38407632  0.35685208  0.77489869  1  -0.021198  0.009003  -0.022347  -0.042352  0.004716  3.989027  0.007
C  C203  1  0.11470204  0.85608326  0.72423608  1  -0.025223  -0.002405  -0.021737  -0.039749  -0.001249  3.9819  -0.002
C  C204  1  0.54634552  0.76691266  0.84924589  1  -0.063355  0.000631  -0.004704  0.068115  0.000315  4.006579  0.0
C  C205  1  0.95241785  0.26630179  0.65106390  1  -0.068787  -0.00295  -0.005254  0.068434  -0.001551  4.010922  -0.002
C  C206  1  0.45050872  0.73377066  0.84932390  1  -0.072833  0.000571  -0.004883  0.06853  0.000291  4.005965  0.0
C  C207  1  0.04807962  0.23301573  0.65106655  1  0.033308  -0.003024  -0.004772  0.068297  -0.001601  4.01108  -0.002
C  C208  1  0.45184806  0.23331932  0.15197750  1  -0.068504  0.000723  -0.005595  0.066861  0.000364  4.012132  0.001
C  C209  1  0.05027559  0.73401827  0.34703526  1  0.025071  -0.002259  -0.002972  0.071238  -0.001175  3.999226  -0.001
C  C210  1  0.54753673  0.26654797  0.15202479  1  -0.062058  -0.002896  -0.005347  0.067676  -0.001524  4.010059  -0.002
C  C211  1  0.95471474  0.76744734  0.34793164  1  0.023303  -0.004126  -0.006251  0.065422  -0.002176  4.010283  -0.002
C  C212  1  0.29594922  0.85618413  0.12747503  1  0.008843  -0.001304  -0.006775  0.067967  -0.000674  3.987665  -0.001
C  C213  1  0.20206517  0.35756681  0.37314947  1  -0.004937  -0.002372  -0.007339  0.065329  -0.001271  3.989237  -0.001
C  C214  1  0.70066155  0.63987666  0.12841059  1  0.012849  -0.00143  -0.008927  0.065302  -0.000776  3.988352  -0.001
C  C215  1  0.79730146  0.14207615  0.37278385  1  0.04614  -0.00011  -0.007272  0.068655  -8.2e-05  3.988695  0.0
C  C216  1  0.70290679  0.14145662  0.87314026  1  -0.009328  -0.001534  -0.006708  0.07087  -0.000791  3.987073  -0.001
C  C217  1  0.79753303  0.63916567  0.62628556  1  0.039379  -0.000437  -0.00732  0.069899  -0.000256  3.984778  0.0
C  C218  1  0.29705593  0.35825989  0.87274235  1  0.035571  -0.001562  -0.007204  0.069275  -0.000804  3.988838  -0.001
C  C219  1  0.20317063  0.85757999  0.62657314  1  -0.032374  -0.000626  -0.00743  0.068897  -0.000348  3.985786  0.0
C  C220  1  0.36293418  0.91725184  0.20114021  1  -0.058283  8e-06  -0.088157  -0.096821  -0.0  3.999603  0.0
C  C221  1  0.13144342  0.41956905  0.30080689  1  -0.001579  -0.000715  -0.087487  -0.096838  -0.00038  4.00191  0.0
C  C222  1  0.62960774  0.57743125  0.20062950  1  -0.036677  -0.000232  -0.089099  -0.100951  -6.1e-05  3.999644  0.0
C  C223  1  0.86631093  0.07952902  0.30019026  1  -0.070028  0.000134  -0.087642  -0.09705  0.000101  3.997488  0.0
C  C224  1  0.63475056  0.07944401  0.80020477  1  -0.058629  -0.000128  -0.088534  -0.098043  -8.3e-05  4.001137  0.0
C  C225  1  0.86305420  0.57801241  0.70043276  1  -0.08965  -9.8e-05  -0.088705  -0.098586  -1.5e-05  4.000699  0.0
C  C226  1  0.36529790  0.42056484  0.79980824  1  -0.056152  -7.6e-05  -0.08812  -0.097317  -5.6e-05  4.000185  0.0
C  C227  1  0.13396429  0.91975366  0.69934104  1  -0.07456  -0.000244  -0.088241  -0.098161  -9.2e-05  3.999764  0.0
C  C228  1  0.32065190  0.91868829  0.15308194  1  -0.01472  -1e-06  -0.091429  -0.135521  2.1e-05  3.97628  0.0
C  C229  1  0.17364660  0.42031272  0.34889643  1  -0.104667  0.000127  -0.091545  -0.132969  -2.2e-05  3.980225  0.0
C  C230  1  0.67375357  0.57695731  0.15291798  1  -0.067606  0.000489  -0.091645  -0.134212  0.000191  3.976732  0.0
C  C231  1  0.82284045  0.07909576  0.34802550  1  -0.103813  0.000113  -0.091647  -0.134983  4.7e-05  3.976201  0.0
C  C232  1  0.67759157  0.07864142  0.84814013  1  -0.085811  0.000168  -0.091568  -0.137386  0.000108  3.976168  0.0
C  C233  1  0.82139657  0.57667470  0.65218695  1  -0.002479  -1.5e-05  -0.091894  -0.134603  -1.8e-05  3.975829  0.0
C  C234  1  0.32229665  0.42117606  0.84775960  1  -0.109354  -0.00024  -0.091814  -0.13521  -0.000102  3.97576  0.0
C  C235  1  0.17763577  0.92043477  0.65153280  1  -0.047091  0.000101  -0.091644  -0.134345  4.2e-05  3.974838  0.0
C  C236  1  0.31774844  0.79214475  0.15199478  1  -0.069888  0.000394  -0.093597  -0.142055  0.000191  4.000874  0.0
C  C237  1  0.18377855  0.29391654  0.34743301  1  -0.040849  0.000448  -0.093536  -0.140763  0.00022  4.003476  0.0
C  C238  1  0.67925682  0.70337443  0.15369075  1  -0.05447  0.000518  -0.094735  -0.142784  0.000254  4.006323  0.0
C  C239  1  0.81952092  0.20567198  0.34780422  1  -0.053698  -0.001189  -0.0941  -0.143411  -0.000624  4.005868  -0.001
C  C240  1  0.68103907  0.20522409  0.84830204  1  -0.031916  0.000557  -0.093712  -0.142537  0.000274  4.003989  0.001
C  C241  1  0.81834028  0.70315564  0.65105773  1  -0.113811  -0.001357  -0.094266  -0.143892  -0.00071  4.005485  -0.001
C  C242  1  0.31905860  0.29457646  0.84785123  1  -0.079539  0.000203  -0.093739  -0.142101  0.000101  4.003454  0.0
C  C243  1  0.18084640  0.79392433  0.65148865  1  -0.044428  -0.001258  -0.093792  -0.142485  -0.000661  4.00345  -0.001
C  C244  1  0.62992539  0.72745563  0.85913315  1  -0.049735  0.000425  -0.088721  -0.132401  0.000246  3.964096  0.0
C  C245  1  0.86883099  0.22698923  0.64112356  1  -0.013994  0.000129  -0.089148  -0.134049  2.8e-05  3.965703  0.0
C  C246  1  0.36688186  0.77319947  0.85924420  1  0.038793  0.000416  -0.089107  -0.132686  0.00025  3.964705  0.0
C  C247  1  0.13175783  0.27239637  0.64133452  1  -0.083754  0.000163  -0.089559  -0.133796  5.3e-05  3.966428  0.0
C  C248  1  0.36830071  0.27272232  0.14193594  1  0.004116  -0.000959  -0.089124  -0.132989  -0.00047  3.966792  -0.001
C  C249  1  0.13379239  0.77159110  0.36038023  1  -0.07045  -0.000936  -0.087479  -0.131345  -0.000462  3.959381  0.0
C  C250  1  0.63091455  0.22728918  0.14124861  1  -0.059007  0.001497  -0.089475  -0.134042  0.000734  3.967501  0.001
C  C251  1  0.87060399  0.72754771  0.35543261  1  -0.099793  0.000233  -0.088599  -0.133183  0.000102  3.96409  0.0
C  C252  1  0.55709041  0.83926402  0.83945265  1  -0.074181  -0.00013  -0.095813  -0.147256  -4.4e-05  4.013148  0.0
C  C253  1  0.94202208  0.33865581  0.66082989  1  -0.069697  0.000333  -0.095016  -0.146668  0.000113  4.014312  0.0
C  C254  1  0.43991603  0.66140640  0.83964682  1  -0.101245  -8.7e-05  -0.095132  -0.1464  -2.4e-05  4.012548  0.0
C  C255  1  0.05839450  0.16058432  0.66060817  1  -0.051421  0.000364  -0.09518  -0.146902  0.000128  4.014815  0.0
C  C256  1  0.44144031  0.16090969  0.16154683  1  -0.065485  -0.0006  -0.095428  -0.146497  -0.000272  4.01326  0.0
C  C257  1  0.06089605  0.66310932  0.33251639  1  -0.072441  -0.000951  -0.094366  -0.146125  -0.000484  4.015369  0.0
C  C258  1  0.55816946  0.33866818  0.16256243  1  -0.098925  0.000809  -0.094818  -0.145332  0.000341  4.011593  0.001
C  C259  1  0.94456837  0.84048537  0.34095801  1  -0.027134  0.000488  -0.095062  -0.147006  0.000188  4.010603  0.001
C  C260  1  0.35917581  0.79052876  0.20026611  1  -0.009039  8.8e-05  -0.08603  -0.091743  4.6e-05  3.992232  0.0
C  C261  1  0.14195901  0.29303364  0.29930747  1  -0.0947  -0.000684  -0.084905  -0.090224  -0.000362  3.992164  0.0
C  C262  1  0.63625058  0.70395993  0.20162799  1  0.010138  7.9e-05  -0.087831  -0.095805  4.9e-05  3.995743  0.0
C  C263  1  0.86196303  0.20629827  0.29975347  1  -0.071758  -0.000718  -0.085636  -0.09172  -0.000431  3.992306  -0.001
C  C264  1  0.63901341  0.20620463  0.80020826  1  -0.085019  -0.000145  -0.085532  -0.091777  -8.7e-05  3.992421  0.0
C  C265  1  0.85900785  0.70466835  0.69949785  1  -0.030143  -0.000932  -0.086061  -0.093493  -0.000534  3.995243  -0.001
C  C266  1  0.36119745  0.29379214  0.79974091  1  -0.020827  -0.00011  -0.085559  -0.091532  -6.1e-05  3.992813  0.0
C  C267  1  0.13808554  0.79308910  0.69946697  1  -0.028629  -0.001006  -0.085674  -0.092494  -0.000597  3.991242  -0.001
C  C268  1  0.64690541  0.87090680  0.84038217  1  -0.02069  -0.001341  -0.08483  -0.092612  -0.000709  3.990779  -0.001
C  C269  1  0.85234896  0.37049090  0.65983972  1  -0.010354  -0.001395  -0.085167  -0.092271  -0.000661  3.990684  -0.001
C  C270  1  0.35015265  0.62970769  0.84071104  1  0.052778  -0.001395  -0.085054  -0.092991  -0.000745  3.990421  -0.001
C  C271  1  0.14806636  0.12872009  0.65956718  1  -0.02736  -0.001472  -0.085191  -0.093013  -0.000697  3.992592  -0.001
C  C272  1  0.35183202  0.12904435  0.16019601  1  -0.012346  -0.00109  -0.084711  -0.091622  -0.000586  3.989636  -0.001
C  C273  1  0.15033295  0.63108227  0.33159773  1  -0.066209  -0.001191  -0.082995  -0.090816  -0.000718  3.980778  -0.001
C  C274  1  0.64791138  0.37037481  0.16141992  1  0.015484  -0.001513  -0.084647  -0.091929  -0.000724  3.989486  -0.001
C  C275  1  0.85472057  0.87216476  0.34202698  1  -0.024798  -0.002101  -0.084621  -0.091987  -0.001021  3.989291  -0.001
C  C276  1  0.08130918  0.85779767  0.93738448  1  1.565082  -0.004841  0.218019  0.597404  -0.003076  4.165154  -0.002
C  C277  1  0.41623011  0.35686527  0.56314671  1  1.550446  -0.003259  0.218325  0.596231  -0.000376  4.164633  -0.002
C  C278  1  0.91701962  0.64206287  0.93851167  1  1.553089  -0.004828  0.217966  0.596519  -0.00308  4.165158  -0.002
C  C279  1  0.58274136  0.14257552  0.56287670  1  1.535571  -0.002917  0.218212  0.598188  -0.000166  4.164538  -0.002
C  C280  1  0.91843313  0.14170235  0.06266638  1  1.532724  -0.004143  0.218295  0.597008  -0.002685  4.166984  -0.001
C  C281  1  0.59460650  0.64022523  0.43261415  1  1.526456  -0.005115  0.217336  0.580032  -0.002351  4.150537  -0.003
C  C282  1  0.08291663  0.35728272  0.06284655  1  1.534532  -0.004332  0.218103  0.597595  -0.000966  4.163411  -0.003
C  C283  1  0.41913706  0.85667273  0.43663651  1  1.557248  -0.00463  0.219036  0.597296  -0.001198  4.160288  -0.003
C  C284  1  0.13934556  0.85929833  0.98539388  1  -0.066082  -0.000929  -0.022915  -0.044811  -0.000464  3.984738  0.0
C  C285  1  0.35836849  0.35869959  0.51516520  1  -0.030383  0.009619  -0.023289  -0.043283  0.004972  3.981573  0.008
C  C286  1  0.85934145  0.63978240  0.98669641  1  -0.02148  -0.000983  -0.024043  -0.045037  -0.000498  3.986473  0.0
C  C287  1  0.63947452  0.14088311  0.51447922  1  -0.006209  0.010374  -0.023243  -0.045519  0.005421  3.988221  0.008
C  C288  1  0.86052112  0.13983402  0.01467726  1  -0.010359  -0.000992  -0.022879  -0.043828  -0.000495  3.984787  0.0
C  C289  1  0.65031672  0.63680915  0.48127158  1  -0.065234  0.00482  -0.021938  -0.040277  0.002363  3.987285  0.004
C  C290  1  0.14016035  0.35929069  0.01465972  1  -0.085502  0.010047  -0.02263  -0.044604  0.005233  3.989069  0.008
C  C291  1  0.36151062  0.85843789  0.48479784  1  -0.034478  0.010133  -0.023771  -0.044448  0.005249  3.98475  0.008
C  C292  1  0.14951145  0.92050702  0.01454035  1  0.00797  -0.001561  -0.085181  -0.088974  -0.00073  3.997048  -0.001
C  C293  1  0.34774086  0.42038187  0.48656509  1  -0.062973  -0.000988  -0.085925  -0.090924  -0.000432  4.003806  -0.001
C  C294  1  0.84899315  0.57796744  0.01523466  1  -0.094212  -0.001433  -0.085445  -0.089102  -0.00067  3.996972  -0.001
C  C295  1  0.64836502  0.07957826  0.48531714  1  -0.040243  -0.001235  -0.085184  -0.088346  -0.000641  3.99722  -0.001
C  C296  1  0.85115749  0.07847283  0.98562720  1  -0.034427  -0.00127  -0.084607  -0.088557  -0.000578  3.994983  -0.001
C  C297  1  0.65867827  0.57535135  0.51039525  1  -0.06823  -0.001787  -0.085477  -0.091891  -0.000967  3.998056  -0.001
C  C298  1  0.14939162  0.42079720  0.98571053  1  0.061324  -0.00168  -0.085177  -0.088635  -0.00084  3.996707  -0.001
C  C299  1  0.35092765  0.92010723  0.51343293  1  0.014946  -0.001668  -0.084943  -0.089893  -0.000866  3.995938  -0.001
C  C300  1  0.20124665  0.91984816  0.05995351  1  -0.125335  0.00064  -0.089939  -0.128751  0.000317  3.958736  0.001
C  C301  1  0.29628543  0.42020142  0.44109893  1  -0.017663  0.00099  -0.091654  -0.130802  0.000705  3.974373  0.001
C  C302  1  0.79681867  0.57766075  0.06058816  1  -0.042124  0.000727  -0.090603  -0.131611  0.000399  3.959254  0.001
C  C303  1  0.70014316  0.07973853  0.43988322  1  0.00108  0.00109  -0.091198  -0.131599  0.000542  3.959482  0.001
C  C304  1  0.79919535  0.07872414  0.94031007  1  -0.074068  0.00051  -0.090912  -0.12973  0.000251  3.960676  0.0
C  C305  1  0.70689520  0.57573787  0.55692842  1  -0.058253  0.001089  -0.090288  -0.128502  0.000564  3.958233  0.001
C  C306  1  0.20098963  0.42073274  0.94021140  1  -0.091012  0.000674  -0.090166  -0.129401  0.000304  3.960036  0.001
C  C307  1  0.29903240  0.92010192  0.55884814  1  -0.048719  0.001074  -0.090381  -0.128698  0.000531  3.95956  0.001
C  C308  1  0.18422975  0.79754834  0.00235554  1  -0.05563  -0.002101  -0.08809  -0.092901  -0.001145  3.999244  -0.001
C  C309  1  0.31429695  0.29699686  0.49766232  1  -0.045611  -0.000744  -0.087273  -0.092385  -0.00043  3.995999  0.0
C  C310  1  0.81463575  0.70122709  0.00434463  1  -0.045716  -0.002026  -0.088416  -0.09451  -0.001116  4.002849  -0.001
C  C311  1  0.68495817  0.20231811  0.49740560  1  -0.019066  -0.000851  -0.088224  -0.093127  -0.000469  4.001367  0.0
C  C312  1  0.81492879  0.20129999  0.99775255  1  -0.020701  -0.001881  -0.08801  -0.093145  -0.001038  3.99962  -0.001
C  C313  1  0.69358732  0.69846343  0.49948475  1  -0.069262  -0.002409  -0.088389  -0.095186  -0.001272  4.001685  -0.002
C  C314  1  0.18550693  0.29785252  0.99747573  1  -0.008825  -0.001153  -0.088528  -0.09366  -0.000614  4.000787  -0.001
C  C315  1  0.31711032  0.79682024  0.50236882  1  -0.090556  -0.001141  -0.088965  -0.096208  -0.000596  4.000819  -0.001
C  C316  1  0.72016682  0.75867356  0.85975133  1  0.029743  -0.000933  -0.075426  -0.070268  -0.000561  3.935089  -0.001
C  C317  1  0.77872090  0.25842669  0.64048577  1  -0.071569  -0.001106  -0.075656  -0.069258  -0.000633  3.935167  -0.001
C  C318  1  0.27667345  0.74190171  0.85992538  1  -0.107908  -0.000926  -0.075444  -0.069826  -0.000562  3.936383  -0.001
C  C319  1  0.22185716  0.24094418  0.64070618  1  -0.009704  -0.001169  -0.075692  -0.069516  -0.00067  3.935123  -0.001
C  C320  1  0.27825879  0.24124926  0.14091174  1  0.003566  -0.000364  -0.075633  -0.069446  -0.000283  3.934998  0.0
C  C321  1  0.22368457  0.73984155  0.36009768  1  -0.015246  -0.001356  -0.073931  -0.066927  -0.000852  3.928599  -0.001
C  C322  1  0.72106923  0.25858804  0.14043949  1  0.003341  -0.001519  -0.07613  -0.070695  -0.00084  3.935709  -0.001
C  C323  1  0.78040538  0.75893158  0.35622026  1  0.038629  -0.001922  -0.075947  -0.070029  -0.001066  3.931203  -0.001
C  C324  1  0.24545031  0.85790900  0.07780106  1  0.012361  -0.002036  -0.007816  0.067232  -0.001057  3.989558  -0.001
C  C325  1  0.25265518  0.35844590  0.42274075  1  -0.007915  -0.002572  -0.007493  0.07019  -0.001418  3.990289  -0.002
C  C326  1  0.75243590  0.63920709  0.07900693  1  -0.050013  -0.001888  -0.007493  0.071341  -0.001002  3.984944  -0.001
C  C327  1  0.74561824  0.14120584  0.42212592  1  -0.102419  -0.002638  -0.007293  0.070222  -0.001396  3.987734  -0.002
C  C328  1  0.75404429  0.14032100  0.92257174  1  -0.002456  -0.001657  -0.00789  0.066613  -0.00086  3.993586  -0.001
C  C329  1  0.74977207  0.63753009  0.57584409  1  -0.038176  -0.003308  -0.008174  0.06622  -0.00174  3.987678  -0.002
C  C330  1  0.24602477  0.35919240  0.92225610  1  0.015857  -0.003086  -0.008167  0.066333  -0.001616  3.992465  -0.002
C  C331  1  0.25478141  0.85843617  0.57714439  1  -0.034043  -0.003121  -0.00808  0.066773  -0.001651  3.98869  -0.002
C  C332  1  0.23663250  0.79702287  0.04747398  1  -0.07879  -0.000633  -0.096962  -0.14583  -0.00034  4.006365  0.0
C  C333  1  0.26200501  0.29703178  0.45251989  1  -0.071653  0.000532  -0.096446  -0.145889  0.00024  4.004155  0.001
C  C334  1  0.76190859  0.70076778  0.04941340  1  -0.058151  -0.000627  -0.097887  -0.147526  -0.000343  4.00694  0.0
C  C335  1  0.73744137  0.20230271  0.45226749  1  -0.075054  0.00108  -0.097648  -0.14738  0.000528  4.009059  0.001
C  C336  1  0.76230846  0.20137327  0.95272595  1  -0.063045  -0.000731  -0.097451  -0.146379  -0.000389  4.007848  0.0
C  C337  1  0.74291464  0.69857578  0.54552339  1  -0.030483  0.000516  -0.09719  -0.143822  0.00023  4.004965  0.0
C  C338  1  0.23789025  0.29798736  0.95232120  1  -0.097604  0.000811  -0.09694  -0.145304  0.000399  4.006928  0.001
C  C339  1  0.26434917  0.79701271  0.54743862  1  -0.014881  0.001029  -0.096784  -0.144738  0.000498  4.004571  0.001
C  C340  1  0.02954747  0.07946143  0.89976891  1  0.467512  -0.001668  -0.000968  -0.022478  -0.001205  4.043938  -0.002
C  C341  1  0.47608434  0.57978311  0.59853730  1  0.442296  0.001541  -0.002178  -0.025469  0.00106  4.047752  0.002
C  C342  1  0.96920750  0.42012002  0.90064823  1  0.446575  -0.001637  -0.000955  -0.023408  -0.001189  4.043816  -0.002
C  C343  1  0.52867513  0.92025137  0.59993386  1  0.458542  0.001551  -0.001315  -0.023984  0.001051  4.044603  0.002
C  C344  1  0.97045623  0.92001408  0.09971927  1  0.331546  -0.001794  -0.001504  -0.023783  -0.001209  4.046211  -0.002
C  C345  1  0.52890953  0.43296993  0.40274009  1  0.367468  -0.000595  -0.001652  -0.032006  0.000136  4.022324  0.0
C  C346  1  0.02863578  0.57923463  0.10004227  1  0.397863  0.001562  -0.000748  -0.023331  0.001055  4.045423  0.002
C  C347  1  0.46814423  0.07954319  0.39907671  1  0.374379  0.001623  -0.001748  -0.023309  0.000991  4.042719  0.002
C  C348  1  0.95258886  0.08519523  0.82684553  1  0.980735  -0.000631  0.221716  0.345316  -0.000837  3.923513  -0.001
C  C349  1  0.54898490  0.58531954  0.67260480  1  0.970795  0.000605  0.222328  0.345998  0.000731  3.922544  0.001
C  C350  1  0.04626543  0.41514076  0.82761903  1  0.966022  -0.000604  0.222035  0.339967  -0.000796  3.921009  -0.001
C  C351  1  0.45168955  0.91455420  0.67294684  1  1.006032  0.000812  0.22253  0.347023  0.000856  3.91997  0.001
C  C352  1  0.04661441  0.91429189  0.17289308  1  0.944526  -0.000769  0.222171  0.340152  -0.000842  3.922608  -0.001
C  C353  1  0.45245757  0.42612931  0.32934471  1  0.961217  -0.003626  0.223224  0.339449  -0.002359  3.88463  -0.003
C  C354  1  0.95002034  0.58469179  0.17256312  1  0.980204  0.000883  0.222346  0.34057  0.000889  3.919086  0.001
C  C355  1  0.54796067  0.08751986  0.32706876  1  0.968159  0.001547  0.222467  0.348058  0.001208  3.922788  0.001
C  C356  1  0.90645156  0.06682705  0.77752344  1  -0.069791  -0.001537  -0.227119  -0.461089  -0.000811  3.93688  -0.001
C  C357  1  0.59287651  0.56681829  0.72249371  1  -0.08839  0.001508  -0.226374  -0.459899  0.000765  3.936735  0.001
C  C358  1  0.09221552  0.43403705  0.77826244  1  -0.044116  -0.001585  -0.227149  -0.46117  -0.000846  3.938222  -0.001
C  C359  1  0.40549053  0.93304543  0.72229074  1  -0.102595  0.001595  -0.226512  -0.460239  0.000809  3.938103  0.001
C  C360  1  0.09197576  0.93264070  0.22242129  1  0.009069  -0.001514  -0.227792  -0.462983  -0.000829  3.937795  -0.001
C  C361  1  0.40701793  0.44285249  0.27953650  1  0.006682  3.1e-05  -0.230612  -0.464401  -0.000221  3.93765  0.0
C  C362  1  0.90249908  0.56599658  0.22151914  1  -0.02509  0.001567  -0.226886  -0.45959  0.000799  3.936598  0.001
C  C363  1  0.59608093  0.07061008  0.27795804  1  -0.063862  0.001686  -0.225901  -0.460205  0.000859  3.938548  0.001
C  C364  1  0.00011211  0.25041510  0.78843597  1  -0.053381  -0.000289  -0.158948  -0.19374  -0.000151  3.922685  0.0
C  C365  1  0.49961110  0.74951189  0.71162369  1  -0.043281  0.000293  -0.158544  -0.19308  0.000147  3.919417  0.0
C  C366  1  0.99843585  0.74946390  0.21139787  1  -0.061817  -3e-06  -0.159133  -0.194596  -7e-06  3.923758  0.0
C  C367  1  0.50446636  0.25749548  0.29137051  1  -0.036853  0.00026  -0.158611  -0.19237  0.000134  3.916082  0.0
C  C368  1  0.00710950  0.14871852  0.89207169  1  0.209607  -0.002189  -0.006526  -0.122476  -0.001024  3.9785  -0.001
C  C369  1  0.49793013  0.64901935  0.60659769  1  0.284261  0.002292  -0.006926  -0.123101  0.00108  3.980013  0.001
C  C370  1  0.99215090  0.35099445  0.89275208  1  0.240962  -0.002163  -0.006746  -0.128567  -0.001029  3.973315  -0.001
C  C371  1  0.50643348  0.85100744  0.60770435  1  0.284559  0.002232  -0.006459  -0.121578  0.001049  3.979897  0.001
C  C372  1  0.99271164  0.85075698  0.10751815  1  0.35398  -0.001976  -0.006975  -0.128778  -0.000964  3.974865  -0.001
C  C373  1  0.51265237  0.36316736  0.39374073  1  0.324071  5e-06  -0.008478  -0.123313  -0.000162  3.981881  0.0
C  C374  1  0.00621687  0.64846835  0.10776215  1  0.303013  0.002168  -0.006295  -0.127315  0.001025  3.975112  0.001
C  C375  1  0.48887561  0.14924766  0.39220838  1  0.27724  0.001924  -0.006792  -0.119805  0.000895  3.974604  0.001
C  C376  1  0.92235819  0.21423228  0.82017418  1  0.263152  -0.000993  -0.050891  -0.058404  -0.000625  3.887981  -0.001
C  C377  1  0.57838136  0.71439024  0.67992992  1  0.289501  0.00099  -0.05078  -0.05735  0.000605  3.884292  0.001
C  C378  1  0.07741459  0.28634317  0.82049542  1  0.272381  -0.000995  -0.050934  -0.063155  -0.00063  3.884534  -0.001
C  C379  1  0.42199776  0.78534415  0.67963531  1  0.298296  0.000998  -0.050995  -0.057764  0.000608  3.886652  0.001
C  C380  1  0.07652962  0.78524487  0.17968485  1  0.29996  -0.000974  -0.051486  -0.063752  -0.000615  3.886798  -0.001
C  C381  1  0.42822284  0.29612619  0.32268269  1  0.321144  -7.6e-05  -0.051309  -0.056923  -3.5e-05  3.884098  0.0
C  C382  1  0.92067343  0.71384364  0.17946417  1  0.275518  0.000986  -0.051169  -0.062569  0.000599  3.881104  0.001
C  C383  1  0.57835086  0.21722501  0.32315592  1  0.283209  0.000983  -0.05079  -0.055509  0.000596  3.882436  0.001
N  N384  1  0.99511488  0.04053295  0.85924928  1  -1.222133  -0.061716  -0.36425  -0.373492  -0.034067  3.583254  -0.041
N  N385  1  0.50826344  0.54075325  0.63956061  1  -1.21536  0.061871  -0.363466  -0.369972  0.033126  3.581793  0.041
N  N386  1  0.00339325  0.45941687  0.86018959  1  -1.220355  -0.061772  -0.364465  -0.37304  -0.034062  3.585156  -0.041
N  N387  1  0.49413122  0.95918465  0.64046710  1  -1.232026  0.06215  -0.364013  -0.371208  0.033234  3.582805  0.041
N  N388  1  0.00449870  0.95893104  0.14033184  1  -1.180618  -0.061732  -0.364169  -0.373627  -0.034077  3.58904  -0.041
N  N389  1  0.49033366  0.47163705  0.36302135  1  -1.165526  -0.00411  -0.362682  -0.303923  -0.002904  3.61802  -0.007
N  N390  1  0.99321403  0.54016077  0.14031182  1  -1.219922  0.062249  -0.36414  -0.372062  0.033366  3.586147  0.042
N  N391  1  0.50541922  0.04163928  0.35862563  1  -1.200376  0.059484  -0.361227  -0.374764  0.031848  3.56821  0.039
N  N392  1  0.95815788  0.15166711  0.84604347  1  -1.206582  -0.004399  -0.244597  -0.01641  -0.002041  3.731136  -0.003
N  N393  1  0.54425039  0.65187667  0.65339984  1  -1.213277  0.00431  -0.244447  -0.016996  0.001914  3.729523  0.003
N  N394  1  0.04115996  0.34853251  0.84665607  1  -1.208734  -0.004371  -0.244525  0.002861  -0.002022  3.704859  -0.003
N  N395  1  0.45749131  0.84804181  0.65378915  1  -1.220776  0.004367  -0.244417  -0.018013  0.001943  3.729419  0.003
N  N396  1  0.04120701  0.84782418  0.15367599  1  -1.211367  -0.004406  -0.244721  0.003503  -0.002041  3.704341  -0.003
N  N397  1  0.46414377  0.35941102  0.34767815  1  -1.224446  5e-05  -0.243784  -0.019574  2e-05  3.73203  0.0
N  N398  1  0.95627502  0.65126673  0.15354787  1  -1.22649  0.004354  -0.244909  0.001497  0.001928  3.705622  0.003
N  N399  1  0.53956914  0.15370535  0.34670898  1  -1.220833  0.004369  -0.243398  -0.020119  0.001939  3.726614  0.003
O  O400  1  0.90141797  0.83048180  0.86016433  1  -1.164922  0.008354  -0.301152  -0.581635  0.006926  2.519072  0.005
O  O401  1  0.59779170  0.33082382  0.64009071  1  -1.170637  0.099845  -0.30199  -0.583776  0.054419  2.517511  0.087
O  O402  1  0.09529069  0.66961072  0.85980663  1  -1.166107  0.008442  -0.30093  -0.579931  0.006931  2.522257  0.005
O  O403  1  0.40276900  0.16866597  0.64053251  1  -1.175073  0.099995  -0.30208  -0.583869  0.054471  2.517507  0.087
O  O404  1  0.09731742  0.16870485  0.13991786  1  -1.172916  0.004347  -0.30089  -0.581413  0.004583  2.511928  0.002
O  O405  1  0.40217609  0.66133386  0.36798431  1  -1.100038  0.019843  -0.291372  -0.520309  0.012213  2.481282  0.012
O  O406  1  0.90205776  0.33048544  0.13996644  1  -1.170372  0.101388  -0.30285  -0.585551  0.055179  2.520084  0.088
O  O407  1  0.59904634  0.83158584  0.35792521  1  -1.163576  0.097256  -0.300207  -0.579905  0.052981  2.517121  0.087
O  O408  1  0.45699990  0.91002890  0.29485790  1  -1.150729  0.094568  -0.326854  -0.576225  0.048769  2.399735  0.076
O  O409  1  0.04054616  0.41273391  0.20564393  1  -1.15288  0.094305  -0.327148  -0.575916  0.048607  2.400712  0.076
O  O410  1  0.52869323  0.58613572  0.29434352  1  -1.138044  0.086937  -0.305765  -0.538261  0.043114  2.374413  0.079
O  O411  1  0.96309427  0.08642383  0.20638914  1  -1.157457  -0.091191  -0.326158  -0.576492  -0.048736  2.396399  -0.071
O  O412  1  0.54084370  0.08652907  0.70579116  1  -1.150372  0.095609  -0.326924  -0.575639  0.049189  2.400053  0.076
O  O413  1  0.95957507  0.58635751  0.79419529  1  -1.150205  -0.091813  -0.327097  -0.577203  -0.049134  2.396014  -0.072
O  O414  1  0.45985812  0.41361286  0.70538740  1  -1.152456  0.095625  -0.326958  -0.575849  0.04924  2.399716  0.077
O  O415  1  0.03718154  0.91266656  0.79331865  1  -1.155328  -0.092192  -0.32727  -0.578366  -0.049175  2.394341  -0.072
O  O416  1  0.04207504  0.91611578  0.92330966  1  -1.15198  -0.090678  -0.325897  -0.569961  -0.048326  2.364395  -0.069
O  O417  1  0.45425052  0.41533927  0.57767841  1  -1.147221  0.090926  -0.326069  -0.569663  0.046906  2.374943  0.071
O  O418  1  0.95705369  0.58407446  0.92432167  1  -1.152093  -0.091305  -0.326906  -0.57042  -0.04878  2.366625  -0.07
O  O419  1  0.54466894  0.08416731  0.57756474  1  -1.148326  0.092426  -0.325664  -0.569491  0.047708  2.37665  0.073
O  O420  1  0.95843600  0.08360582  0.07650792  1  -1.149311  -0.09021  -0.32598  -0.56966  -0.048137  2.370424  -0.069
O  O421  1  0.56402237  0.58115778  0.41439518  1  -1.108345  0.013434  -0.308475  -0.517539  0.006659  2.439058  0.006
O  O422  1  0.04486194  0.41562290  0.07769545  1  -1.149257  0.0916  -0.325488  -0.568585  0.047355  2.377161  0.072
O  O423  1  0.45524566  0.91535468  0.42130472  1  -1.149985  0.090041  -0.323811  -0.567678  0.046432  2.375286  0.072
O  O424  1  0.07614684  0.79980456  0.91414369  1  -1.16352  0.048478  -0.302237  -0.57186  0.027455  2.424964  0.042
O  O425  1  0.42238056  0.29851275  0.58587712  1  -1.162428  0.065866  -0.30152  -0.567913  0.03578  2.428474  0.058
O  O426  1  0.92106923  0.70014266  0.91523146  1  -1.169516  0.048519  -0.301997  -0.570941  0.02736  2.41716  0.042
O  O427  1  0.57778566  0.20071714  0.58596719  1  -1.163804  0.066279  -0.302299  -0.570143  0.035983  2.430066  0.058
O  O428  1  0.92258118  0.19963994  0.08602591  1  -1.160097  0.050094  -0.301626  -0.569157  0.028311  2.419362  0.043
O  O429  1  0.58226803  0.70031233  0.41328237  1  -1.155154  0.060962  -0.301679  -0.559573  0.033312  2.432828  0.053
O  O430  1  0.07736011  0.29887307  0.08559985  1  -1.161551  0.066436  -0.302682  -0.571375  0.036091  2.435244  0.059
O  O431  1  0.42663394  0.79792579  0.41439400  1  -1.167601  0.067082  -0.303904  -0.567776  0.036402  2.433084  0.058
O  O432  1  0.42207951  0.79325599  0.30175172  1  -1.160829  0.062828  -0.305424  -0.57398  0.0339  2.395711  0.054
O  O433  1  0.07584658  0.29617502  0.19935670  1  -1.161446  0.063861  -0.302761  -0.57097  0.034569  2.417259  0.056
O  O434  1  0.57554634  0.70011319  0.30261947  1  -1.160866  0.064424  -0.315437  -0.585355  0.0349  2.419299  0.055
O  O435  1  0.92362116  0.20215654  0.19870186  1  -1.148663  0.04896  -0.303717  -0.571324  0.027461  2.403796  0.042
O  O436  1  0.57623906  0.20306797  0.69942623  1  -1.15317  0.0644  -0.302572  -0.569432  0.034839  2.409224  0.056
O  O437  1  0.92086341  0.70231660  0.80085424  1  -1.148576  0.046976  -0.302986  -0.571395  0.026383  2.399525  0.041
O  O438  1  0.42427610  0.29712624  0.69905089  1  -1.152078  0.064424  -0.302977  -0.569782  0.034885  2.412798  0.056
O  O439  1  0.07372755  0.79632658  0.80008652  1  -1.154752  0.047218  -0.302823  -0.570785  0.026557  2.402654  0.041
O  O440  1  0.83107890  0.93290974  0.85230227  1  -1.157465  -0.083746  -0.313872  -0.545426  -0.044676  2.241182  -0.067
O  O441  1  0.66893105  0.43296483  0.64737128  1  -1.158758  0.089911  -0.31407  -0.546537  0.046283  2.242656  0.071
O  O442  1  0.16659799  0.56738156  0.85311365  1  -1.148521  -0.084515  -0.31439  -0.545397  -0.044896  2.241607  -0.067
O  O443  1  0.33176293  0.06638651  0.64743574  1  -1.110685  0.090229  -0.314409  -0.547578  0.046257  2.240349  0.072
O  O444  1  0.16865887  0.06658309  0.14733113  1  -1.105195  -0.084016  -0.314643  -0.546774  -0.044831  2.241093  -0.067
O  O445  1  0.33465071  0.56724228  0.33830914  1  -1.078265  0.006924  -0.28687  -0.469481  0.003093  2.271634  0.002
O  O446  1  0.83140059  0.43273267  0.14845854  1  -1.157014  0.089548  -0.313681  -0.54598  0.046072  2.243971  0.071
O  O447  1  0.66993369  0.93392699  0.35180613  1  -1.109112  0.086792  -0.316291  -0.551427  0.044644  2.23849  0.069
