# generated using pymatgen
data_Co2H32C48S3(NO)12
_symmetry_space_group_name_H-M   'P 1'
_cell_length_a   13.21185962
_cell_length_b   19.42821514
_cell_length_c   22.80731412
_cell_angle_alpha   90.00000665
_cell_angle_beta   90.00009431
_cell_angle_gamma   90.00014091
_symmetry_Int_Tables_number   1
_chemical_formula_structural   Co2H32C48S3(NO)12
_chemical_formula_sum   'Co8 H128 C192 S12 N48 O48'
_cell_volume   5854.24641331
_cell_formula_units_Z   4
loop_
 _symmetry_equiv_pos_site_id
 _symmetry_equiv_pos_as_xyz
  1  'x, y, z'
loop_
 _atom_site_type_symbol
 _atom_site_label
 _atom_site_symmetry_multiplicity
 _atom_site_fract_x
 _atom_site_fract_y
 _atom_site_fract_z
 _atom_site_occupancy
 _atom_site_pbe_bader_charge
 _atom_site_pbe_bader_spin_density
 _atom_site_pbe_cm5_charge
 _atom_site_pbe_ddec_charge
 _atom_site_pbe_ddec_spin_density
 _atom_site_pbe_ddec_sum_bond_order
 _atom_site_pbe_magmom
Co  Co0  1  0.26152302  0.13552326  0.65091632  1  1.253906  2.604459  0.669834  0.805695  2.819281  2.498743  2.578
Co  Co1  1  0.23847900  0.63552441  0.84908434  1  1.253786  2.60446  0.66985  0.805789  2.81927  2.498711  2.578
Co  Co2  1  0.26151922  0.36447479  0.34908509  1  1.253833  2.604453  0.669862  0.805778  2.819263  2.49865  2.578
Co  Co3  1  0.23847842  0.86447489  0.15091753  1  1.253727  2.604456  0.669856  0.805756  2.81928  2.498712  2.578
Co  Co4  1  0.73847872  0.86447532  0.34908403  1  1.253829  2.604454  0.669861  0.805768  2.819272  2.498623  2.578
Co  Co5  1  0.76152350  0.36447623  0.15091644  1  1.253815  2.604458  0.669837  0.805749  2.819279  2.498743  2.578
Co  Co6  1  0.73847798  0.63552585  0.65091701  1  1.253801  2.604456  0.669864  0.805769  2.819282  2.498651  2.578
Co  Co7  1  0.76151953  0.13552369  0.84908369  1  1.253751  2.604454  0.669869  0.805802  2.819262  2.498735  2.578
H  H8  1  0.32654609  0.38101782  0.63788370  1  0.118021  9.7e-05  0.105765  0.126155  3.5e-05  1.010947  0.0
H  H9  1  0.17345682  0.88101577  0.86211436  1  0.117743  9.7e-05  0.105747  0.126113  3.5e-05  1.010895  0.0
H  H10  1  0.32654522  0.11898395  0.36211733  1  0.117981  9.7e-05  0.105837  0.126245  3.5e-05  1.01099  0.0
H  H11  1  0.17345305  0.61897776  0.13788176  1  0.117997  9.7e-05  0.105823  0.126224  3.5e-05  1.011016  0.0
H  H12  1  0.67345414  0.61898231  0.36211664  1  0.118074  9.7e-05  0.105789  0.126198  3.5e-05  1.010866  0.0
H  H13  1  0.82654416  0.11898538  0.13788424  1  0.118106  9.7e-05  0.105783  0.126132  3.5e-05  1.010861  0.0
H  H14  1  0.67345425  0.88102132  0.63788214  1  0.118084  9.7e-05  0.105745  0.126139  3.5e-05  1.010936  0.0
H  H15  1  0.82654415  0.38101105  0.86211201  1  0.118153  9.7e-05  0.105765  0.126154  3.5e-05  1.010911  0.0
H  H16  1  0.30331725  0.49822363  0.69686083  1  0.104042  0.000226  0.101567  0.115699  6.5e-05  1.033306  0.0
H  H17  1  0.19669138  0.99822213  0.80313812  1  0.104122  0.000226  0.101575  0.115739  6.5e-05  1.03323  0.0
H  H18  1  0.30332412  0.00177656  0.30314062  1  0.104155  0.000226  0.101583  0.115754  6.5e-05  1.033285  0.0
H  H19  1  0.19668054  0.50177144  0.19686021  1  0.104077  0.000226  0.101603  0.115855  6.5e-05  1.033351  0.0
H  H20  1  0.69667540  0.50177495  0.30313864  1  0.104162  0.000226  0.10159  0.115752  6.5e-05  1.033285  0.0
H  H21  1  0.80332096  0.00177697  0.19686048  1  0.104249  0.000226  0.101547  0.115667  6.5e-05  1.033214  0.0
H  H22  1  0.69668140  0.99822717  0.69686061  1  0.104114  0.000226  0.10159  0.115784  6.5e-05  1.033351  0.0
H  H23  1  0.80330833  0.49822097  0.80313926  1  0.104142  0.000226  0.101582  0.115728  6.5e-05  1.033209  0.0
H  H24  1  0.43955421  0.25537539  0.66044713  1  0.120567  0.000628  0.120827  0.117874  6.9e-05  1.008289  0.0
H  H25  1  0.06044825  0.75537830  0.83955355  1  0.120463  0.000628  0.120798  0.117784  6.9e-05  1.008288  0.0
H  H26  1  0.43955146  0.24462554  0.33955138  1  0.120554  0.000628  0.120812  0.117819  6.9e-05  1.008273  0.0
H  H27  1  0.06044348  0.74462379  0.16044465  1  0.120669  0.000628  0.120839  0.117873  6.9e-05  1.008271  0.0
H  H28  1  0.56044905  0.74462268  0.33955497  1  0.120503  0.000628  0.120816  0.117833  6.9e-05  1.008257  0.0
H  H29  1  0.93955273  0.24462337  0.16044636  1  0.12053  0.000628  0.120805  0.117816  6.9e-05  1.008278  0.0
H  H30  1  0.56044574  0.75537716  0.66044677  1  0.120544  0.000628  0.120809  0.117819  6.9e-05  1.008262  0.0
H  H31  1  0.93955296  0.25537479  0.83955438  1  0.120593  0.000628  0.120819  0.117895  6.9e-05  1.008183  0.0
H  H32  1  0.64116238  0.22866801  0.63851215  1  0.127277  0.000903  0.120496  0.121964  0.000382  1.027579  0.0
H  H33  1  0.85884076  0.72866885  0.86148856  1  0.127507  0.000903  0.120456  0.121922  0.000382  1.027547  0.0
H  H34  1  0.64116055  0.27133429  0.36148655  1  0.127328  0.000903  0.120514  0.122006  0.000382  1.027422  0.0
H  H35  1  0.85883602  0.77133458  0.13850996  1  0.127182  0.000903  0.12049  0.121944  0.000382  1.027567  0.0
H  H36  1  0.35883935  0.77133057  0.36148688  1  0.127476  0.000903  0.120479  0.121974  0.000382  1.027627  0.0
H  H37  1  0.14116098  0.27132922  0.13851135  1  0.127447  0.000903  0.120475  0.121949  0.000382  1.027587  0.0
H  H38  1  0.35883664  0.72866893  0.63851248  1  0.127246  0.000903  0.120492  0.121994  0.000382  1.027628  0.0
H  H39  1  0.14116042  0.22866555  0.86148995  1  0.127262  0.000903  0.120467  0.121895  0.000382  1.027569  0.0
H  H40  1  0.46996357  0.04412544  0.62119613  1  0.163916  0.000403  0.13608  0.113349  -0.000189  1.026315  0.0
H  H41  1  0.03004039  0.54412830  0.87880453  1  0.163976  0.000403  0.136062  0.113386  -0.000189  1.026327  0.0
H  H42  1  0.46996018  0.45587503  0.37880811  1  0.163897  0.000404  0.136084  0.113387  -0.000189  1.026291  0.0
H  H43  1  0.03003779  0.95587477  0.12119671  1  0.163894  0.000403  0.13608  0.113364  -0.000189  1.026301  0.0
H  H44  1  0.53003590  0.95587315  0.37880335  1  0.164004  0.000403  0.13605  0.113307  -0.000189  1.02633  0.0
H  H45  1  0.96996589  0.45587286  0.12119494  1  0.163996  0.000403  0.136036  0.113304  -0.000189  1.026361  0.0
H  H46  1  0.53003550  0.54412818  0.62119530  1  0.163976  0.000403  0.136053  0.113349  -0.000189  1.026344  0.0
H  H47  1  0.96995941  0.04412330  0.87880364  1  0.16382  0.000403  0.136086  0.113348  -0.000189  1.026353  0.0
H  H48  1  0.89170921  0.12604068  0.73911333  1  0.185909  0.000394  0.125464  0.138305  -0.000129  1.053634  0.0
H  H49  1  0.60829432  0.62604211  0.76088913  1  0.185922  0.000394  0.125441  0.138176  -0.000129  1.053715  0.0
H  H50  1  0.89170595  0.37395895  0.26088693  1  0.185961  0.000394  0.125456  0.138275  -0.000129  1.053623  0.0
H  H51  1  0.60829403  0.87396038  0.23911091  1  0.185984  0.000394  0.125429  0.138169  -0.000129  1.053757  0.0
H  H52  1  0.10828950  0.87395841  0.26088527  1  0.185886  0.000394  0.125492  0.138323  -0.000129  1.053627  0.0
H  H53  1  0.39170817  0.37396058  0.23911034  1  0.185786  0.000394  0.125403  0.138193  -0.000129  1.053763  0.0
H  H54  1  0.10829049  0.62604066  0.73911298  1  0.185946  0.000394  0.125451  0.138273  -0.000129  1.053691  0.0
H  H55  1  0.39170392  0.12603872  0.76088944  1  0.185963  0.000394  0.125451  0.138212  -0.000129  1.05372  0.0
H  H56  1  0.09550570  0.16093514  0.75138226  1  0.161859  0.000691  0.112743  0.109099  7.8e-05  1.056653  0.001
H  H57  1  0.40449868  0.66093552  0.74861972  1  0.161975  0.000691  0.112743  0.109147  7.8e-05  1.056738  0.001
H  H58  1  0.09550228  0.33906418  0.24861899  1  0.161914  0.000691  0.112729  0.109113  7.8e-05  1.056747  0.001
H  H59  1  0.40450132  0.83906148  0.25138012  1  0.161958  0.000691  0.112746  0.109067  7.8e-05  1.0568  0.001
H  H60  1  0.90449301  0.83906344  0.24861765  1  0.161813  0.000691  0.112715  0.109061  7.8e-05  1.056654  0.001
H  H61  1  0.59550381  0.33906615  0.25138106  1  0.161938  0.000691  0.112735  0.109132  7.8e-05  1.056716  0.001
H  H62  1  0.90449567  0.66093800  0.75138092  1  0.161869  0.000691  0.112753  0.109082  7.8e-05  1.056685  0.001
H  H63  1  0.59549966  0.16093350  0.74862023  1  0.162026  0.000691  0.112756  0.109145  7.8e-05  1.056658  0.001
H  H64  1  0.05000377  0.08175540  0.58167264  1  0.096255  0.000469  0.128911  0.08916  -6.1e-05  1.029339  0.0
H  H65  1  0.44999881  0.58175383  0.91832890  1  0.096189  0.000469  0.128958  0.089233  -6.1e-05  1.029246  0.0
H  H66  1  0.05000188  0.41824539  0.41832769  1  0.096242  0.000469  0.128916  0.089202  -6.1e-05  1.029318  0.0
H  H67  1  0.44999520  0.91825046  0.08167275  1  0.096227  0.000469  0.128942  0.089219  -6.1e-05  1.029203  0.0
H  H68  1  0.94999569  0.91824421  0.41832727  1  0.096282  0.000469  0.128921  0.08919  -6.1e-05  1.029315  0.0
H  H69  1  0.55000747  0.41824321  0.08167014  1  0.096185  0.000469  0.128945  0.089248  -6.1e-05  1.02922  0.0
H  H70  1  0.94999532  0.58175474  0.58167222  1  0.096237  0.000469  0.128918  0.089183  -6.1e-05  1.029268  0.0
H  H71  1  0.54999973  0.08175584  0.91833023  1  0.096162  0.000469  0.128958  0.089269  -6.1e-05  1.029277  0.0
H  H72  1  0.84546246  0.86525522  0.57085285  1  0.150392  0.001085  0.129568  0.13742  0.000483  0.997414  0.0
H  H73  1  0.65453739  0.36525496  0.92914919  1  0.150403  0.001085  0.129585  0.137464  0.000483  0.997428  0.0
H  H74  1  0.84546109  0.63474664  0.42914917  1  0.150375  0.001085  0.129593  0.137467  0.000483  0.997413  0.0
H  H75  1  0.65453576  0.13474891  0.07085084  1  0.150364  0.001085  0.129584  0.137459  0.000483  0.997391  0.0
H  H76  1  0.15454155  0.13474388  0.42914662  1  0.150414  0.001085  0.129594  0.13746  0.000483  0.997448  0.0
H  H77  1  0.34545981  0.63474466  0.07085335  1  0.150398  0.001085  0.129599  0.137475  0.000483  0.99743  0.0
H  H78  1  0.15453838  0.36525348  0.57085512  1  0.150319  0.001085  0.129615  0.137465  0.000483  0.997369  0.0
H  H79  1  0.34546068  0.86525225  0.92915039  1  0.15042  0.001085  0.129609  0.137501  0.000483  0.997429  0.0
H  H80  1  0.83006919  0.79618297  0.46351271  1  0.121404  0.000729  0.12535  0.124195  0.000177  0.997089  0.001
H  H81  1  0.66993126  0.29618475  0.03648994  1  0.12169  0.000729  0.125348  0.124228  0.000177  0.996971  0.001
H  H82  1  0.83006762  0.70381731  0.53648973  1  0.121657  0.000729  0.125342  0.124179  0.000177  0.997041  0.001
H  H83  1  0.66992787  0.20381708  0.96350922  1  0.121424  0.000729  0.125327  0.124113  0.000177  0.997141  0.001
H  H84  1  0.16993784  0.20381509  0.53648808  1  0.121642  0.000728  0.125403  0.124286  0.000177  0.997025  0.001
H  H85  1  0.33006669  0.70381847  0.96351391  1  0.121392  0.000729  0.125348  0.124183  0.000177  0.997094  0.001
H  H86  1  0.16992731  0.29618435  0.46351325  1  0.121398  0.000729  0.125331  0.124176  0.000177  0.997024  0.001
H  H87  1  0.33006857  0.79618356  0.03649200  1  0.12171  0.000729  0.125335  0.124176  0.000177  0.997028  0.001
H  H88  1  0.68563111  0.98809292  0.44767826  1  0.196074  0.000332  0.13855  0.115533  -0.000264  1.040005  0.0
H  H89  1  0.81437609  0.48809184  0.05232135  1  0.196168  0.000332  0.138601  0.115557  -0.000264  1.039984  0.0
H  H90  1  0.68563040  0.51190713  0.55232142  1  0.196059  0.000332  0.138572  0.115537  -0.000264  1.040048  0.0
H  H91  1  0.81437575  0.01191074  0.94767927  1  0.19626  0.000332  0.138572  0.11547  -0.000264  1.040058  0.0
H  H92  1  0.31437139  0.01190361  0.55231990  1  0.196069  0.000332  0.138594  0.115607  -0.000264  1.039975  0.0
H  H93  1  0.18562867  0.51190777  0.94767725  1  0.196197  0.000332  0.138593  0.115553  -0.000264  1.039982  0.0
H  H94  1  0.31437058  0.48809299  0.44768025  1  0.196133  0.000332  0.138604  0.115611  -0.000264  1.039947  0.0
H  H95  1  0.18562750  0.98809247  0.05232239  1  0.196165  0.000333  0.13857  0.115539  -0.000264  1.039988  0.0
H  H96  1  0.60132116  0.01667577  0.55264186  1  0.152976  6e-06  0.120526  0.152533  -3.3e-05  1.007504  0.0
H  H97  1  0.89868500  0.51667514  0.94735751  1  0.152895  6e-06  0.120505  0.152518  -3.3e-05  1.007507  0.0
H  H98  1  0.60131958  0.48332594  0.44735812  1  0.152967  6e-06  0.120507  0.152478  -3.3e-05  1.007545  0.0
H  H99  1  0.89868155  0.98332732  0.05264149  1  0.152934  6e-06  0.120502  0.152493  -3.3e-05  1.007513  0.0
H  H100  1  0.39867982  0.98332229  0.44735454  1  0.153031  6e-06  0.120545  0.15255  -3.3e-05  1.007549  0.0
H  H101  1  0.10131976  0.48332189  0.05264064  1  0.152944  6e-06  0.120519  0.152557  -3.3e-05  1.007479  0.0
H  H102  1  0.39867913  0.51667676  0.55264355  1  0.153021  6e-06  0.120525  0.15254  -3.3e-05  1.00754  0.0
H  H103  1  0.10131565  0.01667178  0.94735930  1  0.152877  6e-06  0.120508  0.152475  -3.3e-05  1.007582  0.0
H  H104  1  0.76373777  0.15303996  0.67021388  1  0.150923  0.000232  0.122083  0.152844  9.9e-05  1.002887  0.0
H  H105  1  0.73626434  0.65304059  0.82978946  1  0.150893  0.000232  0.122138  0.152907  9.9e-05  1.002831  0.0
H  H106  1  0.76373537  0.34696100  0.32978801  1  0.150987  0.000232  0.122132  0.1529  9.9e-05  1.00287  0.0
H  H107  1  0.73625997  0.84696263  0.17021202  1  0.151023  0.000232  0.122085  0.152853  9.9e-05  1.002939  0.0
H  H108  1  0.23626018  0.84695708  0.32978471  1  0.150858  0.000232  0.122035  0.152803  9.9e-05  1.002897  0.0
H  H109  1  0.26374118  0.34695696  0.17020914  1  0.150865  0.000232  0.122094  0.15283  9.9e-05  1.002883  0.0
H  H110  1  0.23625805  0.65304016  0.67021322  1  0.150935  0.000232  0.122065  0.15283  9.9e-05  1.002886  0.0
H  H111  1  0.26373495  0.15303852  0.82978964  1  0.151031  0.000232  0.122136  0.152874  9.9e-05  1.002966  0.0
H  H112  1  0.92166847  0.98970830  0.58023190  1  0.117354  5.3e-05  0.11466  0.131198  5e-06  0.997223  0.0
H  H113  1  0.57833561  0.48970739  0.91977016  1  0.117307  5.3e-05  0.114666  0.131209  5e-06  0.997233  0.0
H  H114  1  0.92166738  0.51029420  0.41976800  1  0.117396  5.3e-05  0.114663  0.131213  5e-06  0.997235  0.0
H  H115  1  0.57833507  0.01030097  0.08023287  1  0.117376  5.3e-05  0.114633  0.131184  5e-06  0.997178  0.0
H  H116  1  0.07833251  0.01029234  0.41976626  1  0.117392  5.3e-05  0.11466  0.131196  5e-06  0.997174  0.0
H  H117  1  0.42166688  0.51029531  0.08023107  1  0.11738  5.3e-05  0.114652  0.131195  5e-06  0.997224  0.0
H  H118  1  0.07833436  0.48970335  0.58023542  1  0.117438  5.3e-05  0.114641  0.131181  5e-06  0.997239  0.0
H  H119  1  0.42166515  0.98970481  0.91977055  1  0.1173  5.3e-05  0.114689  0.131254  5e-06  0.997183  0.0
H  H120  1  0.36680403  0.18958389  0.47294320  1  0.111762  9e-06  0.107102  0.120118  -7e-05  1.022135  0.0
H  H121  1  0.13319903  0.68959254  0.02706291  1  0.111936  9e-06  0.107148  0.120194  -6.9e-05  1.022077  0.0
H  H122  1  0.36680206  0.31040817  0.52705787  1  0.112043  9e-06  0.107127  0.120179  -7e-05  1.02206  0.0
H  H123  1  0.13319757  0.81041894  0.97295378  1  0.111315  9e-06  0.107117  0.120134  -7e-05  1.022153  0.0
H  H124  1  0.63319468  0.81041212  0.52706109  1  0.111969  9e-06  0.107119  0.120206  -7e-05  1.022037  0.0
H  H125  1  0.86680346  0.31041016  0.97293875  1  0.111968  9e-06  0.107097  0.120147  -7e-05  1.022129  0.0
H  H126  1  0.63319438  0.68958938  0.47294686  1  0.112  9e-06  0.107136  0.120207  -7e-05  1.022088  0.0
H  H127  1  0.86680568  0.18958479  0.02704920  1  0.111923  9e-06  0.107123  0.120201  -7e-05  1.022128  0.0
H  H128  1  0.65967394  0.08805344  0.39351399  1  0.659652  -1.6e-05  0.29041  0.362413  -4.9e-05  0.99202  0.0
H  H129  1  0.84032803  0.58805319  0.10648338  1  0.659701  -1.6e-05  0.290442  0.362462  -5e-05  0.991948  0.0
H  H130  1  0.65967028  0.41194734  0.60648253  1  0.659687  -1.6e-05  0.290435  0.362463  -4.9e-05  0.991959  0.0
H  H131  1  0.84032973  0.91194609  0.89351732  1  0.659698  -1.6e-05  0.290425  0.362414  -5e-05  0.992039  0.0
H  H132  1  0.34032326  0.91194668  0.60648548  1  0.659641  -1.6e-05  0.290417  0.362414  -5e-05  0.992017  0.0
H  H133  1  0.15967446  0.41194900  0.89351390  1  0.659657  -1.6e-05  0.290456  0.362476  -5e-05  0.991927  0.0
H  H134  1  0.34032994  0.58805536  0.39351431  1  0.659659  -1.6e-05  0.29044  0.362432  -4.9e-05  0.991994  0.0
H  H135  1  0.15967049  0.08805712  0.10648390  1  0.659701  -1.6e-05  0.290453  0.362423  -4.9e-05  0.992011  0.0
C  C136  1  0.25303925  0.25694254  0.69275773  1  1.551786  -0.003977  0.185075  0.548637  -0.005536  4.27169  -0.005
C  C137  1  0.24696320  0.75694061  0.80724207  1  1.551617  -0.003979  0.185118  0.548694  -0.005537  4.271859  -0.005
C  C138  1  0.25303641  0.24305756  0.30724324  1  1.551713  -0.003977  0.185083  0.54855  -0.005536  4.271888  -0.005
C  C139  1  0.24696155  0.74305355  0.19275455  1  1.5518  -0.003979  0.18509  0.548607  -0.005536  4.271501  -0.005
C  C140  1  0.74696248  0.74305604  0.30724262  1  1.551718  -0.003978  0.185086  0.548589  -0.005536  4.271688  -0.005
C  C141  1  0.75304081  0.24305848  0.19275871  1  1.55175  -0.003977  0.185049  0.548532  -0.005537  4.271958  -0.005
C  C142  1  0.74696230  0.75694617  0.69275579  1  1.551751  -0.00398  0.185074  0.548554  -0.005537  4.271656  -0.005
C  C143  1  0.75304019  0.25693937  0.80723703  1  1.551112  -0.003978  0.185047  0.548355  -0.005537  4.272041  -0.005
C  C144  1  0.25226132  0.32965638  0.71117419  1  -0.228154  0.0027  -0.026928  -0.11605  0.001421  4.002298  0.001
C  C145  1  0.24774140  0.82965342  0.78882474  1  -0.227828  0.002699  -0.026929  -0.116141  0.00142  4.0022  0.001
C  C146  1  0.25226195  0.17034372  0.28882721  1  -0.228133  0.002701  -0.026931  -0.116136  0.001421  4.002232  0.001
C  C147  1  0.24773575  0.67034024  0.21117232  1  -0.227698  0.002699  -0.026935  -0.116075  0.001421  4.002414  0.001
C  C148  1  0.74773966  0.67034323  0.28882528  1  -0.228156  0.002699  -0.026883  -0.116015  0.001421  4.002348  0.001
C  C149  1  0.75226337  0.17034619  0.21117604  1  -0.228141  0.002699  -0.026862  -0.116078  0.001421  4.002274  0.001
C  C150  1  0.74773676  0.82965846  0.71117270  1  -0.228099  0.002699  -0.026917  -0.115937  0.001421  4.002369  0.001
C  C151  1  0.75225766  0.32965217  0.78882233  1  -0.227916  0.0027  -0.026881  -0.115971  0.001421  4.002268  0.001
C  C152  1  0.28988818  0.38578972  0.68045863  1  -0.023121  0.000956  -0.104258  -0.126182  0.000333  4.002721  0.001
C  C153  1  0.21011853  0.88578772  0.81953943  1  -0.023369  0.000956  -0.104271  -0.126121  0.000334  4.002685  0.001
C  C154  1  0.28989096  0.11421045  0.31954281  1  -0.023256  0.000956  -0.10435  -0.126141  0.000333  4.002843  0.001
C  C155  1  0.21011032  0.61420535  0.18045715  1  -0.023265  0.000956  -0.104249  -0.126096  0.000334  4.002916  0.001
C  C156  1  0.71010902  0.61421041  0.31954085  1  -0.023169  0.000956  -0.104387  -0.126286  0.000334  4.00263  0.001
C  C157  1  0.78989002  0.11421343  0.18045960  1  -0.023201  0.000955  -0.104286  -0.126032  0.000333  4.002532  0.001
C  C158  1  0.71011077  0.88579328  0.68045754  1  -0.023276  0.000955  -0.104235  -0.126176  0.000333  4.002831  0.001
C  C159  1  0.78988536  0.38578551  0.81953662  1  -0.023628  0.000955  -0.104301  -0.126205  0.000333  4.002875  0.001
C  C160  1  0.27832600  0.44789269  0.71171482  1  0.068022  0.000202  -0.101927  -0.102193  -0.000147  4.004408  0.0
C  C161  1  0.22167942  0.94789277  0.78828456  1  0.067951  0.000202  -0.101943  -0.102247  -0.000147  4.004374  0.0
C  C162  1  0.27832998  0.05210849  0.28828616  1  0.067903  0.000203  -0.101933  -0.102305  -0.000146  4.004529  0.0
C  C163  1  0.22167259  0.55210393  0.21171423  1  0.067794  0.000202  -0.101992  -0.102467  -0.000147  4.004589  0.0
C  C164  1  0.72166893  0.55210744  0.28828421  1  0.067846  0.000202  -0.101874  -0.102168  -0.000147  4.004307  0.0
C  C165  1  0.77833064  0.05211096  0.21171579  1  0.067939  0.000203  -0.101849  -0.102119  -0.000146  4.004216  0.0
C  C166  1  0.72167327  0.94789576  0.71171506  1  0.06784  0.000202  -0.101897  -0.102232  -0.000147  4.004447  0.0
C  C167  1  0.77831931  0.44789054  0.78828392  1  0.067966  0.000203  -0.101955  -0.10224  -0.000146  4.004338  0.0
C  C168  1  0.23118205  0.43891601  0.76548132  1  -0.26685  0.005149  -0.030604  -0.134133  0.002541  3.99308  0.004
C  C169  1  0.26882560  0.93891565  0.73451981  1  -0.266686  0.005148  -0.030507  -0.134041  0.002541  3.992953  0.004
C  C170  1  0.23118743  0.06108508  0.23452006  1  -0.266824  0.005149  -0.030638  -0.134176  0.002542  3.993201  0.004
C  C171  1  0.26881745  0.56108061  0.26547859  1  -0.266747  0.005149  -0.030593  -0.134092  0.002542  3.993111  0.004
C  C172  1  0.76881363  0.56108360  0.23451902  1  -0.266873  0.005149  -0.03064  -0.134216  0.002541  3.993101  0.004
C  C173  1  0.73118673  0.06108653  0.26548229  1  -0.266839  0.005149  -0.030699  -0.134288  0.002541  3.993201  0.004
C  C174  1  0.76881734  0.93891916  0.76548029  1  -0.266756  0.005149  -0.030652  -0.13422  0.002541  3.99313  0.004
C  C175  1  0.73117597  0.43891540  0.73451781  1  -0.266688  0.005147  -0.030491  -0.133964  0.002541  3.992898  0.004
C  C176  1  0.20582847  0.49284684  0.80873937  1  1.570339  5.9e-05  0.206461  0.590278  -0.000392  4.23356  0.0
C  C177  1  0.29417635  0.99284446  0.69126089  1  1.570278  6e-05  0.206405  0.590167  -0.000392  4.233736  0.0
C  C178  1  0.20582975  0.00715473  0.19126155  1  1.570306  6e-05  0.206505  0.590362  -0.000391  4.233511  0.0
C  C179  1  0.29417190  0.50715288  0.30873884  1  1.57023  5.9e-05  0.206449  0.590252  -0.000391  4.233622  0.0
C  C180  1  0.79417175  0.50715380  0.19126098  1  1.57028  5.9e-05  0.206494  0.590349  -0.000392  4.233457  0.0
C  C181  1  0.70583069  0.00715516  0.30873989  1  1.570181  6e-05  0.206452  0.590183  -0.000391  4.2336  0.0
C  C182  1  0.79417047  0.99284694  0.80873967  1  1.570243  5.9e-05  0.206491  0.590327  -0.000392  4.233557  0.0
C  C183  1  0.70582529  0.49284519  0.69126019  1  1.570368  6.1e-05  0.206303  0.590075  -0.000391  4.233895  0.0
C  C184  1  0.47575491  0.20712652  0.64950635  1  0.440561  -0.00094  0.005432  -0.008403  -0.001329  3.975285  -0.001
C  C185  1  0.02424888  0.70712834  0.85049520  1  0.440533  -0.00094  0.005512  -0.008122  -0.001329  3.975058  -0.001
C  C186  1  0.47575161  0.29287550  0.35049351  1  0.440506  -0.00094  0.005537  -0.008065  -0.001329  3.975037  -0.001
C  C187  1  0.02424123  0.79287317  0.14950560  1  0.440532  -0.00094  0.005418  -0.008379  -0.001329  3.975087  -0.001
C  C188  1  0.52424683  0.79287206  0.35049531  1  0.44056  -0.00094  0.005445  -0.008233  -0.001329  3.975198  -0.001
C  C189  1  0.97575513  0.29287179  0.14950471  1  0.440518  -0.00094  0.005488  -0.008219  -0.001329  3.975143  -0.001
C  C190  1  0.52424331  0.70712874  0.64950552  1  0.440511  -0.00094  0.005458  -0.008202  -0.001329  3.975108  -0.001
C  C191  1  0.97575218  0.20712386  0.85049343  1  0.441049  -0.000941  0.005448  -0.008427  -0.001329  3.975194  -0.001
C  C192  1  0.57604961  0.19487895  0.63894575  1  0.271936  0.003473  -0.001556  -0.111952  0.001874  3.943473  0.002
C  C193  1  0.92395341  0.69488041  0.86105583  1  0.271758  0.003473  -0.001589  -0.112103  0.001874  3.94341  0.002
C  C194  1  0.57604639  0.30512323  0.36105464  1  0.271905  0.003473  -0.001653  -0.112116  0.001875  3.943401  0.002
C  C195  1  0.92394728  0.80512364  0.13894363  1  0.272036  0.003473  -0.001491  -0.111863  0.001874  3.943402  0.002
C  C196  1  0.42395061  0.80511963  0.36105328  1  0.271716  0.003473  -0.001622  -0.112171  0.001874  3.943601  0.002
C  C197  1  0.07604985  0.30511920  0.13894364  1  0.271724  0.003473  -0.001575  -0.112036  0.001874  3.943408  0.002
C  C198  1  0.42394929  0.69488049  0.63894527  1  0.271881  0.003473  -0.00157  -0.112178  0.001874  3.943609  0.002
C  C199  1  0.07604764  0.19487649  0.86105540  1  0.271468  0.003473  -0.00157  -0.111819  0.001874  3.943399  0.002
C  C200  1  0.48731778  0.09819887  0.62808077  1  0.939813  -0.005968  0.145813  0.104476  -0.007307  3.862181  -0.004
C  C201  1  0.01268637  0.59820119  0.87192077  1  0.939538  -0.005967  0.145832  0.104288  -0.007307  3.862316  -0.004
C  C202  1  0.48731191  0.40180111  0.37192217  1  0.939745  -0.005968  0.145765  0.104353  -0.007307  3.862187  -0.004
C  C203  1  0.01268587  0.90180082  0.12808089  1  0.939777  -0.005968  0.145739  0.104359  -0.007307  3.86229  -0.004
C  C204  1  0.51268471  0.90179971  0.37191870  1  0.939522  -0.005967  0.145854  0.104565  -0.007307  3.862074  -0.004
C  C205  1  0.98731688  0.40179945  0.12807914  1  0.93964  -0.00597  0.145839  0.104514  -0.007309  3.862192  -0.004
C  C206  1  0.51268377  0.59820107  0.62808037  1  0.939574  -0.005966  0.145871  0.104494  -0.007307  3.862076  -0.004
C  C207  1  0.98731360  0.09819724  0.87191989  1  0.939821  -0.005968  0.145819  0.104516  -0.007308  3.862157  -0.004
C  C208  1  0.95496445  0.12300237  0.70900591  1  0.271131  0.003741  0.004534  -0.08923  0.00201  3.860786  0.002
C  C209  1  0.54503907  0.62300370  0.79099611  1  0.271107  0.003741  0.004598  -0.088839  0.002011  3.860489  0.002
C  C210  1  0.95496128  0.37699788  0.29099441  1  0.270991  0.003741  0.004576  -0.089016  0.00201  3.860541  0.002
C  C211  1  0.54503719  0.87699972  0.20900475  1  0.271034  0.003741  0.004632  -0.08887  0.00201  3.860757  0.002
C  C212  1  0.04503275  0.87699673  0.29099312  1  0.271203  0.003741  0.004517  -0.089303  0.002011  3.860884  0.002
C  C213  1  0.45496418  0.37699849  0.20900336  1  0.27135  0.003741  0.004615  -0.089062  0.002011  3.86078  0.002
C  C214  1  0.04503515  0.62300276  0.70900638  1  0.271003  0.003741  0.004575  -0.089159  0.002011  3.860728  0.002
C  C215  1  0.45496001  0.12300144  0.79099648  1  0.271056  0.003741  0.004636  -0.088855  0.00201  3.860484  0.002
C  C216  1  0.05546053  0.13892279  0.71454713  1  0.394823  -0.001026  -0.001295  -0.015251  -0.00172  3.965675  -0.001
C  C217  1  0.44454150  0.63892324  0.78545617  1  0.395013  -0.001026  -0.001321  -0.015453  -0.001721  3.965952  -0.001
C  C218  1  0.05545654  0.36107698  0.28545365  1  0.394976  -0.001026  -0.00136  -0.015417  -0.00172  3.965789  -0.001
C  C219  1  0.44454261  0.86107794  0.21454503  1  0.394971  -0.001026  -0.001324  -0.015323  -0.001721  3.966025  -0.001
C  C220  1  0.94453667  0.86107579  0.28545278  1  0.394812  -0.001026  -0.001314  -0.015234  -0.001721  3.965717  -0.001
C  C221  1  0.55546023  0.36107842  0.21454549  1  0.394868  -0.001026  -0.001282  -0.015287  -0.001721  3.96584  -0.001
C  C222  1  0.94453915  0.63892417  0.71454582  1  0.394928  -0.001026  -0.001293  -0.015258  -0.001721  3.96579  -0.001
C  C223  1  0.55545610  0.13892115  0.78545576  1  0.395009  -0.001026  -0.001391  -0.015442  -0.001721  3.965841  -0.001
C  C224  1  0.03727137  0.09733634  0.62668364  1  1.000216  4.6e-05  0.135615  0.088738  -0.000495  3.919322  0.001
C  C225  1  0.46273127  0.59733581  0.87331834  1  1.000178  4.5e-05  0.135698  0.088822  -0.000496  3.919159  0.001
C  C226  1  0.03726853  0.40266391  0.37331668  1  1.000217  4.6e-05  0.135655  0.088659  -0.000495  3.91935  0.001
C  C227  1  0.46272925  0.90266695  0.12668375  1  1.000343  4.6e-05  0.135566  0.08866  -0.000495  3.919231  0.001
C  C228  1  0.96272810  0.90266275  0.37331540  1  1.000252  4.5e-05  0.135614  0.088686  -0.000495  3.919284  0.001
C  C229  1  0.53727349  0.40266277  0.12668201  1  1.000341  4.5e-05  0.135609  0.088668  -0.000496  3.919247  0.001
C  C230  1  0.96272715  0.59733570  0.62668366  1  1.000377  4.5e-05  0.135544  0.08857  -0.000495  3.919176  0.001
C  C231  1  0.53726795  0.09733626  0.87331923  1  1.000314  4.6e-05  0.135612  0.08863  -0.000495  3.919368  0.001
C  C232  1  0.81360090  0.88060451  0.52908027  1  0.263364  0.004567  0.000783  -0.114608  0.002179  3.92346  0.003
C  C233  1  0.68640203  0.38060431  0.97092090  1  0.263476  0.004568  0.000735  -0.114645  0.002179  3.923425  0.003
C  C234  1  0.81360035  0.61939678  0.47092084  1  0.263461  0.004567  0.000702  -0.114749  0.002179  3.923449  0.003
C  C235  1  0.68639871  0.11939858  0.02907829  1  0.263591  0.004568  0.000703  -0.114785  0.002179  3.923575  0.003
C  C236  1  0.18640386  0.11939561  0.47091964  1  0.26338  0.004567  0.000766  -0.114519  0.002179  3.923453  0.003
C  C237  1  0.31359895  0.61939633  0.02907989  1  0.263381  0.004568  0.000746  -0.114631  0.002179  3.923486  0.003
C  C238  1  0.18639912  0.38060232  0.52908170  1  0.263379  0.004567  0.000697  -0.114677  0.002179  3.923458  0.003
C  C239  1  0.31359849  0.88060155  0.97092206  1  0.263493  0.004568  0.000677  -0.114825  0.002179  3.923518  0.003
C  C240  1  0.80412822  0.84685410  0.47647608  1  0.404627  -0.00068  0.002455  -0.036084  -0.001176  4.010199  0.0
C  C241  1  0.69587242  0.34685489  0.02352570  1  0.404511  -0.00068  0.002463  -0.036118  -0.001176  4.010158  0.0
C  C242  1  0.80412793  0.65314614  0.52352589  1  0.404485  -0.00068  0.002475  -0.036017  -0.001176  4.010158  0.0
C  C243  1  0.69586737  0.15314750  0.97647262  1  0.404327  -0.00068  0.002562  -0.035805  -0.001176  4.01006  0.0
C  C244  1  0.19587428  0.15314551  0.52352382  1  0.404605  -0.00068  0.002356  -0.036297  -0.001175  4.010261  0.0
C  C245  1  0.30412781  0.65314627  0.97647553  1  0.404567  -0.00068  0.002461  -0.036052  -0.001176  4.010222  0.0
C  C246  1  0.19586926  0.34685398  0.47647665  1  0.404574  -0.00068  0.002506  -0.036015  -0.001176  4.01012  0.0
C  C247  1  0.30412907  0.84685417  0.02352817  1  0.40439  -0.00068  0.002469  -0.036016  -0.001176  4.010182  0.0
C  C248  1  0.72534310  0.94457840  0.46634509  1  0.964908  -0.008556  0.148401  0.10842  -0.010172  3.869556  -0.005
C  C249  1  0.77466470  0.44457675  0.03365495  1  0.96506  -0.008557  0.148428  0.108571  -0.010172  3.869362  -0.005
C  C250  1  0.72534098  0.55542274  0.53365550  1  0.964947  -0.008555  0.148437  0.108494  -0.010171  3.869539  -0.005
C  C251  1  0.77466153  0.05542629  0.96634520  1  0.964853  -0.008556  0.148409  0.108564  -0.010171  3.869485  -0.005
C  C252  1  0.27466091  0.05542018  0.53365394  1  0.964793  -0.008556  0.148366  0.108386  -0.010172  3.869533  -0.005
C  C253  1  0.22534007  0.55542286  0.96634496  1  0.964796  -0.008557  0.148437  0.108567  -0.010173  3.869503  -0.005
C  C254  1  0.27465773  0.44457687  0.46634748  1  0.964935  -0.008555  0.148415  0.1084  -0.010171  3.869528  -0.005
C  C255  1  0.22533869  0.94457590  0.03365690  1  0.965679  -0.008557  0.148343  0.108392  -0.010172  3.869463  -0.005
C  C256  1  0.76172050  0.99891539  0.56208896  1  0.305082  0.000736  0.104532  0.212039  0.000311  4.028218  0.001
C  C257  1  0.73828437  0.49891476  0.93791134  1  0.30504  0.000736  0.104471  0.212054  0.000312  4.028283  0.001
C  C258  1  0.76171791  0.50108684  0.43791123  1  0.305083  0.000736  0.104513  0.212031  0.000311  4.028282  0.001
C  C259  1  0.73828223  0.00108976  0.06208833  1  0.305122  0.000736  0.104496  0.211975  0.000311  4.028273  0.001
C  C260  1  0.23828351  0.00108319  0.43790920  1  0.305095  0.000736  0.104475  0.212017  0.000312  4.028324  0.001
C  C261  1  0.26171812  0.50108485  0.06208725  1  0.30508  0.000736  0.104488  0.212056  0.000311  4.028114  0.001
C  C262  1  0.23828004  0.49891328  0.56209088  1  0.30512  0.000736  0.104518  0.211992  0.000311  4.028313  0.001
C  C263  1  0.26171572  0.99891242  0.93791333  1  0.305162  0.000736  0.104536  0.212083  0.000311  4.028181  0.001
C  C264  1  0.67154071  0.03407012  0.57274378  1  0.069202  -0.000235  -0.082093  -0.249426  -0.000286  3.889092  0.0
C  C265  1  0.82846476  0.53406886  0.92725603  1  0.065518  -0.000235  -0.082032  -0.249399  -0.000286  3.889241  0.0
C  C266  1  0.67153901  0.46593274  0.42725670  1  0.065707  -0.000235  -0.082061  -0.249332  -0.000286  3.889225  0.0
C  C267  1  0.82846130  0.96593452  0.07274334  1  0.065778  -0.000234  -0.082056  -0.249315  -0.000285  3.889094  0.0
C  C268  1  0.32846027  0.96592846  0.42725306  1  0.069171  -0.000234  -0.082169  -0.249531  -0.000285  3.889454  0.0
C  C269  1  0.17154001  0.46592818  0.07274168  1  0.065536  -0.000235  -0.082083  -0.249486  -0.000286  3.889189  0.0
C  C270  1  0.32845819  0.53406893  0.57274627  1  0.06915  -0.000234  -0.082104  -0.249414  -0.000285  3.88923  0.0
C  C271  1  0.17153665  0.03406561  0.92725745  1  0.065902  -0.000235  -0.0821  -0.249428  -0.000286  3.889203  0.0
C  C272  1  0.67354134  0.08979835  0.61163701  1  0.286408  0.0009  0.107898  0.208092  0.000325  4.024268  0.001
C  C273  1  0.82646055  0.58979811  0.88836500  1  0.290614  0.0009  0.107902  0.208074  0.000325  4.024203  0.001
C  C274  1  0.67354009  0.41020451  0.38836392  1  0.290323  0.0009  0.107863  0.207994  0.000325  4.024386  0.001
C  C275  1  0.82645851  0.91020577  0.11163524  1  0.290426  0.0009  0.107871  0.207941  0.000325  4.024483  0.001
C  C276  1  0.32645813  0.91020074  0.38836071  1  0.286288  0.0009  0.10794  0.20813  0.000325  4.024409  0.001
C  C277  1  0.17354271  0.41019995  0.11163359  1  0.290612  0.0009  0.107886  0.208099  0.000325  4.024269  0.001
C  C278  1  0.32645787  0.58979870  0.61163862  1  0.286324  0.0009  0.10785  0.207856  0.000325  4.02443  0.001
C  C279  1  0.17353869  0.08979487  0.88836642  1  0.290175  0.0009  0.107852  0.208087  0.000325  4.024291  0.001
C  C280  1  0.76331076  0.11074065  0.63877265  1  0.069094  -0.000242  -0.079938  -0.247407  -0.000445  3.884273  0.0
C  C281  1  0.73669120  0.61073871  0.86122805  1  0.068549  -0.000243  -0.080001  -0.24746  -0.000445  3.884294  0.0
C  C282  1  0.76330860  0.38926133  0.36122836  1  0.068501  -0.000242  -0.079995  -0.247435  -0.000445  3.88436  0.0
C  C283  1  0.73668916  0.88926245  0.13877079  1  0.068362  -0.000243  -0.079944  -0.247336  -0.000445  3.884342  0.0
C  C284  1  0.23668795  0.88925844  0.36122551  1  0.069045  -0.000242  -0.079889  -0.247329  -0.000445  3.884255  0.0
C  C285  1  0.26331281  0.38925832  0.13877054  1  0.068652  -0.000243  -0.079936  -0.247296  -0.000445  3.884399  0.0
C  C286  1  0.23668708  0.61073931  0.63877286  1  0.069063  -0.000242  -0.079867  -0.247173  -0.000445  3.884305  0.0
C  C287  1  0.26330728  0.11073871  0.86122999  1  0.06844  -0.000242  -0.079952  -0.247409  -0.000445  3.884351  0.0
C  C288  1  0.85244710  0.01846720  0.58865061  1  -0.016477  -0.000191  -0.092482  -0.272434  -0.000319  3.952645  0.0
C  C289  1  0.64755755  0.51846460  0.91134965  1  -0.016424  -0.000191  -0.092439  -0.272376  -0.000319  3.95272  0.0
C  C290  1  0.85244466  0.48153494  0.41134961  1  -0.016524  -0.000191  -0.092456  -0.272429  -0.000319  3.9527  0.0
C  C291  1  0.64755570  0.98153950  0.08864999  1  -0.01609  -0.00019  -0.092427  -0.272401  -0.000318  3.95268  0.0
C  C292  1  0.14755463  0.98153242  0.41134755  1  -0.016661  -0.00019  -0.092445  -0.272392  -0.000318  3.952548  0.0
C  C293  1  0.35244646  0.48153398  0.08864895  1  -0.016535  -0.000191  -0.092459  -0.27239  -0.000319  3.952609  0.0
C  C294  1  0.14755329  0.51846364  0.58865249  1  -0.016082  -0.00019  -0.09245  -0.272337  -0.000318  3.952664  0.0
C  C295  1  0.35244376  0.01846319  0.91135080  1  -0.016489  -0.000191  -0.092481  -0.27253  -0.000319  3.952673  0.0
C  C296  1  0.85236400  0.07485117  0.62657134  1  0.304991  0.001114  0.107255  0.214862  0.000486  4.035411  0.001
C  C297  1  0.64763707  0.57485011  0.87343067  1  0.305021  0.001114  0.107233  0.214755  0.000486  4.035512  0.001
C  C298  1  0.85236125  0.42515096  0.37342844  1  0.305046  0.001114  0.107234  0.214815  0.000486  4.03541  0.001
C  C299  1  0.64763740  0.92515450  0.12657116  1  0.304559  0.001114  0.107207  0.214857  0.000486  4.035389  0.001
C  C300  1  0.14763471  0.92514792  0.37342638  1  0.305241  0.001114  0.107291  0.214902  0.000486  4.035409  0.001
C  C301  1  0.35236542  0.42514847  0.12656792  1  0.305004  0.001114  0.107288  0.21474  0.000486  4.035476  0.001
C  C302  1  0.14763519  0.57484813  0.62657322  1  0.304483  0.001114  0.107197  0.214644  0.000486  4.035531  0.001
C  C303  1  0.35235980  0.07484871  0.87343095  1  0.30505  0.001114  0.107296  0.214948  0.000486  4.035488  0.001
C  C304  1  0.43418220  0.21757262  0.48627449  1  0.095647  -4.6e-05  -0.085225  -0.077787  -0.000167  3.947798  0.0
C  C305  1  0.06582097  0.71757961  0.01373163  1  0.02348  -4.6e-05  -0.085256  -0.077848  -0.000167  3.947847  0.0
C  C306  1  0.43418236  0.28241955  0.51372753  1  0.023543  -4.6e-05  -0.085183  -0.077804  -0.000167  3.947719  0.0
C  C307  1  0.06581943  0.78242815  0.98628061  1  0.096507  -4.6e-05  -0.085261  -0.077877  -0.000167  3.947944  0.0
C  C308  1  0.56581651  0.78242493  0.51373024  1  0.09519  -4.6e-05  -0.085174  -0.077805  -0.000167  3.947782  0.0
C  C309  1  0.93418304  0.28242154  0.98626653  1  0.023323  -4.6e-05  -0.085144  -0.07767  -0.000167  3.947832  0.0
C  C310  1  0.56581711  0.71757800  0.48627633  1  0.023328  -4.6e-05  -0.08522  -0.077874  -0.000167  3.947795  0.0
C  C311  1  0.93418155  0.21757352  0.01371886  1  0.095624  -4.6e-05  -0.085293  -0.078062  -0.000167  3.948051  0.0
C  C312  1  0.53101257  0.19338571  0.47548107  1  -0.238417  2.4e-05  -0.027142  -0.141782  -1e-06  3.997148  0.0
C  C313  1  0.96899205  0.69338875  0.02452026  1  -0.23901  2.4e-05  -0.027139  -0.141694  -1e-06  3.997186  0.0
C  C314  1  0.53101057  0.30660919  0.52452060  1  -0.239018  2.4e-05  -0.027125  -0.141719  -1e-06  3.997068  0.0
C  C315  1  0.96898982  0.80661229  0.97548363  1  -0.238819  2.4e-05  -0.027027  -0.141556  -1e-06  3.997127  0.0
C  C316  1  0.46898765  0.80661184  0.52452148  1  -0.238468  2.4e-05  -0.027179  -0.14176  -1e-06  3.997137  0.0
C  C317  1  0.03101195  0.30660932  0.97547482  1  -0.238707  2.4e-05  -0.027167  -0.141778  -1e-06  3.997171  0.0
C  C318  1  0.46898738  0.69339145  0.47548062  1  -0.238641  2.4e-05  -0.027123  -0.141699  -1e-06  3.997108  0.0
C  C319  1  0.03101116  0.19338732  0.02451453  1  -0.238814  2.4e-05  -0.027063  -0.141544  -1e-06  3.997089  0.0
C  C320  1  0.55527319  0.13056061  0.44221938  1  1.530431  -1.7e-05  0.213404  0.588311  -2e-05  4.18979  0.0
C  C321  1  0.94472818  0.63055949  0.05777932  1  1.530268  -1.7e-05  0.213365  0.588127  -2e-05  4.189948  0.0
C  C322  1  0.55527000  0.36943691  0.55778056  1  1.530313  -1.7e-05  0.213428  0.588334  -2e-05  4.189618  0.0
C  C323  1  0.94472987  0.86944099  0.94222367  1  1.5303  -1.7e-05  0.213369  0.588263  -2e-05  4.189818  0.0
C  C324  1  0.44472250  0.86943849  0.55778229  1  1.530533  -1.7e-05  0.213393  0.588202  -2e-05  4.189727  0.0
C  C325  1  0.05527356  0.36943909  0.94221577  1  1.530526  -1.7e-05  0.21339  0.588129  -2e-05  4.189969  0.0
C  C326  1  0.44472796  0.63056579  0.44221891  1  1.530261  -1.7e-05  0.213368  0.588201  -2e-05  4.189903  0.0
C  C327  1  0.05527187  0.13056274  0.05777711  1  1.530254  -1.7e-05  0.213421  0.588319  -2e-05  4.189688  0.0
S  S328  1  0.20406915  0.35336361  0.77821056  1  0.258646  0.002329  0.092142  0.152708  0.0006  2.882856  0.001
S  S329  1  0.29593819  0.85336072  0.72178838  1  0.258751  0.002329  0.092015  0.152598  0.0006  2.882672  0.001
S  S330  1  0.20407026  0.14663640  0.22178992  1  0.258699  0.002329  0.092113  0.152703  0.0006  2.882778  0.001
S  S331  1  0.29593114  0.64663404  0.27820829  1  0.258353  0.002329  0.092094  0.152655  0.0006  2.882857  0.001
S  S332  1  0.79592956  0.64663497  0.22178979  1  0.2587  0.002329  0.092143  0.152733  0.0006  2.882969  0.001
S  S333  1  0.70407338  0.14663683  0.27821285  1  0.258653  0.002329  0.09212  0.152738  0.0006  2.882896  0.001
S  S334  1  0.79593072  0.85336527  0.77820955  1  0.258675  0.002329  0.092119  0.152659  0.0006  2.882767  0.001
S  S335  1  0.70406606  0.35336043  0.72178460  1  0.258696  0.002329  0.092014  0.152555  0.0006  2.882717  0.001
S  S336  1  0.62204153  0.24999882  0.50000044  1  0.271493  0.000138  0.094022  0.153339  9.7e-05  2.913358  0.0
S  S337  1  0.87795876  0.74999758  0.00000002  1  0.271583  0.000138  0.094014  0.153298  9.7e-05  2.913341  0.0
S  S338  1  0.37795416  0.75000182  0.50000122  1  0.271655  0.000138  0.094023  0.15331  9.7e-05  2.913342  0.0
S  S339  1  0.12204298  0.24999894  0.99999331  1  0.271736  0.000138  0.093991  0.153277  9.7e-05  2.913409  0.0
N  N340  1  0.42138092  0.14665206  0.64301235  1  -1.188283  0.049632  -0.340181  -0.292067  0.025464  3.57819  0.046
N  N341  1  0.07862190  0.64665397  0.85698963  1  -1.18826  0.04963  -0.340188  -0.292093  0.025464  3.578284  0.046
N  N342  1  0.42137634  0.35334833  0.35698921  1  -1.188356  0.04963  -0.340167  -0.292163  0.025464  3.578137  0.046
N  N343  1  0.07862050  0.85334609  0.14301210  1  -1.188311  0.04963  -0.340143  -0.291995  0.025464  3.578079  0.046
N  N344  1  0.57862158  0.85334653  0.35698843  1  -1.188215  0.049626  -0.340126  -0.292108  0.025462  3.578159  0.046
N  N345  1  0.92137984  0.35334564  0.14301116  1  -1.188282  0.049631  -0.340154  -0.292121  0.025463  3.578217  0.046
N  N346  1  0.57862009  0.64665489  0.64301202  1  -1.188132  0.049627  -0.340197  -0.292173  0.025463  3.578039  0.046
N  N347  1  0.92137821  0.14665043  0.85698781  1  -1.188345  0.049633  -0.340219  -0.292153  0.025465  3.57818  0.046
N  N348  1  0.58305151  0.12545621  0.62492744  1  -1.24963  0.000969  -0.227947  -0.003078  7e-05  3.794355  0.001
N  N349  1  0.91695050  0.62545818  0.87507458  1  -1.249314  0.000969  -0.227951  -0.00289  7e-05  3.794217  0.001
N  N350  1  0.58304933  0.37454496  0.37507471  1  -1.249387  0.000969  -0.227922  -0.003037  7e-05  3.794431  0.001
N  N351  1  0.91694837  0.87454586  0.12492576  1  -1.24958  0.000969  -0.227951  -0.00309  7e-05  3.794675  0.001
N  N352  1  0.41694796  0.87454185  0.37507159  1  -1.249318  0.00097  -0.227938  -0.003021  7e-05  3.794212  0.001
N  N353  1  0.08305199  0.37454143  0.12492490  1  -1.249412  0.000969  -0.227904  -0.00301  7e-05  3.794261  0.001
N  N354  1  0.41694862  0.62545774  0.62492695  1  -1.249344  0.000969  -0.227941  -0.002861  7e-05  3.79421  0.001
N  N355  1  0.08304958  0.12545375  0.87507459  1  -1.249444  0.000969  -0.227881  -0.003095  7e-05  3.79454  0.001
N  N356  1  0.75010102  0.88759223  0.43768719  1  -1.213811  0.061298  -0.347762  -0.293155  0.032907  3.609946  0.047
N  N357  1  0.74990279  0.38759156  0.06231328  1  -1.213844  0.061298  -0.347746  -0.293162  0.032907  3.609924  0.047
N  N358  1  0.75009994  0.61240844  0.56231386  1  -1.21385  0.061297  -0.347731  -0.293181  0.032907  3.609902  0.047
N  N359  1  0.74989975  0.11240937  0.93768640  1  -1.213884  0.061299  -0.347758  -0.29325  0.032908  3.609918  0.047
N  N360  1  0.24990148  0.11240481  0.56231272  1  -1.213708  0.061298  -0.347699  -0.293078  0.032906  3.609944  0.047
N  N361  1  0.25009970  0.61240805  0.93768663  1  -1.213797  0.061299  -0.34778  -0.293262  0.032908  3.609957  0.047
N  N362  1  0.24989877  0.38759323  0.43768824  1  -1.213736  0.061297  -0.347761  -0.29314  0.032906  3.609993  0.047
N  N363  1  0.25009971  0.88759179  0.06231570  1  -1.214239  0.061297  -0.347691  -0.293129  0.032907  3.609964  0.047
N  N364  1  0.76309865  0.94275995  0.52210398  1  -1.279575  3.2e-05  -0.226479  0.000767  -0.000965  3.79155  0.0
N  N365  1  0.73690602  0.44275880  0.97789676  1  -1.279835  3.2e-05  -0.226535  0.000593  -0.000965  3.791597  0.0
N  N366  1  0.76309789  0.55724126  0.47789752  1  -1.279537  3.2e-05  -0.226496  0.00079  -0.000965  3.791594  0.0
N  N367  1  0.73690472  0.05724520  0.02210291  1  -1.279641  3.2e-05  -0.226508  0.00076  -0.000965  3.791714  0.0
N  N368  1  0.23690233  0.05723915  0.47789593  1  -1.279553  3.2e-05  -0.226451  0.000701  -0.000965  3.791602  0.0
N  N369  1  0.26309648  0.55724132  0.02210315  1  -1.279541  3.2e-05  -0.226524  0.000637  -0.000965  3.791659  0.0
N  N370  1  0.23690384  0.44275681  0.52210589  1  -1.279626  3.1e-05  -0.226491  0.000748  -0.000965  3.791572  0.0
N  N371  1  0.26309550  0.94275750  0.97789831  1  -1.280104  3.2e-05  -0.226475  0.000867  -0.000965  3.791577  0.0
N  N372  1  0.10575009  0.12341085  0.66292380  1  -1.205811  0.052464  -0.346921  -0.285233  0.028472  3.598791  0.042
N  N373  1  0.39425188  0.62341123  0.83707730  1  -1.205748  0.052458  -0.347018  -0.285337  0.028473  3.59885  0.042
N  N374  1  0.10574782  0.37658900  0.33707702  1  -1.205702  0.052459  -0.34695  -0.285199  0.028473  3.598765  0.042
N  N375  1  0.39425214  0.87658936  0.16292341  1  -1.205895  0.052458  -0.346967  -0.2852  0.028473  3.598768  0.042
N  N376  1  0.89424938  0.87658773  0.33707567  1  -1.205742  0.05246  -0.346938  -0.285224  0.028473  3.59881  0.042
N  N377  1  0.60575061  0.37658838  0.16292304  1  -1.206026  0.052465  -0.346967  -0.285257  0.028472  3.598861  0.042
N  N378  1  0.89424938  0.62341267  0.66292376  1  -1.206016  0.052466  -0.346912  -0.285147  0.028472  3.598779  0.042
N  N379  1  0.60574657  0.12341128  0.83707826  1  -1.205813  0.052459  -0.347012  -0.285307  0.028474  3.598839  0.042
N  N380  1  0.94407032  0.09615172  0.65296292  1  -1.276344  0.002517  -0.225903  0.010009  0.000943  3.782388  0.001
N  N381  1  0.55593310  0.59615256  0.84703910  1  -1.276419  0.002517  -0.225944  0.009821  0.000943  3.782523  0.001
N  N382  1  0.94406741  0.40384903  0.34703695  1  -1.276397  0.002517  -0.225887  0.009944  0.000943  3.782391  0.001
N  N383  1  0.55593116  0.90385448  0.15296352  1  -1.276353  0.002517  -0.225864  0.009781  0.000943  3.782536  0.001
N  N384  1  0.05592839  0.90384687  0.34703480  1  -1.276383  0.002517  -0.225896  0.010023  0.000943  3.782412  0.001
N  N385  1  0.44407091  0.40384860  0.15296037  1  -1.276387  0.002517  -0.225947  0.009936  0.000943  3.782465  0.001
N  N386  1  0.05592903  0.59614904  0.65296384  1  -1.276291  0.002517  -0.225885  0.010076  0.000943  3.782282  0.001
N  N387  1  0.44406528  0.09615079  0.84703946  1  -1.276407  0.002517  -0.225927  0.009811  0.000943  3.782563  0.001
O  O388  1  0.25511835  0.24379877  0.63759077  1  -1.129539  0.084598  -0.319333  -0.536343  0.043251  2.212606  0.071
O  O389  1  0.24488482  0.74379942  0.86240859  1  -1.129423  0.084602  -0.31931  -0.536307  0.043252  2.212707  0.071
O  O390  1  0.25511646  0.25620082  0.36241019  1  -1.12947  0.084605  -0.319348  -0.536344  0.043252  2.212674  0.071
O  O391  1  0.24488230  0.75619783  0.13758891  1  -1.129497  0.084592  -0.319307  -0.536334  0.043246  2.212639  0.071
O  O392  1  0.74488415  0.75619981  0.36240957  1  -1.129471  0.084603  -0.319317  -0.536309  0.043251  2.212568  0.071
O  O393  1  0.75511616  0.25620122  0.13759176  1  -1.129532  0.084602  -0.319333  -0.536323  0.043252  2.212763  0.071
O  O394  1  0.74488149  0.74380137  0.63759016  1  -1.129433  0.084598  -0.319292  -0.536314  0.043249  2.21263  0.071
O  O395  1  0.75512322  0.24379869  0.86240486  1  -1.129316  0.084609  -0.319287  -0.536199  0.043255  2.212752  0.071
O  O396  1  0.25421014  0.20888306  0.73075869  1  -1.165624  0.058819  -0.315478  -0.54577  0.029699  2.189988  0.051
O  O397  1  0.24578987  0.70887958  0.76924330  1  -1.165651  0.058824  -0.315457  -0.545756  0.029702  2.190116  0.051
O  O398  1  0.25420736  0.29111653  0.26924271  1  -1.165655  0.058819  -0.315427  -0.545644  0.029698  2.190105  0.051
O  O399  1  0.24579229  0.79111355  0.23075640  1  -1.165536  0.058827  -0.315523  -0.545738  0.029702  2.189711  0.051
O  O400  1  0.74579084  0.79111655  0.26924253  1  -1.165621  0.058824  -0.315498  -0.545753  0.029701  2.189926  0.051
O  O401  1  0.75421186  0.29112003  0.23075793  1  -1.165713  0.058825  -0.315474  -0.545739  0.029702  2.190088  0.051
O  O402  1  0.74579362  0.70888617  0.73075764  1  -1.165503  0.058821  -0.31553  -0.545753  0.029702  2.189806  0.051
O  O403  1  0.75420794  0.20887679  0.76924044  1  -1.165258  0.058818  -0.315415  -0.545608  0.029698  2.190099  0.051
O  O404  1  0.22014525  0.55499255  0.79232403  1  -1.139299  0.074815  -0.311293  -0.531582  0.038828  2.361589  0.06
O  O405  1  0.27985951  0.05499041  0.70767443  1  -1.139215  0.074813  -0.311268  -0.531489  0.038827  2.361677  0.06
O  O406  1  0.22014512  0.94500826  0.20767476  1  -1.139295  0.074819  -0.311247  -0.53153  0.038827  2.361587  0.06
O  O407  1  0.27985584  0.44500614  0.29232524  1  -1.139294  0.074819  -0.311323  -0.531572  0.038827  2.361556  0.06
O  O408  1  0.77985574  0.44500758  0.20767500  1  -1.13917  0.074811  -0.311301  -0.531626  0.03883  2.361578  0.06
O  O409  1  0.72014677  0.94500920  0.29232548  1  -1.139248  0.074816  -0.311245  -0.531487  0.038826  2.361543  0.06
O  O410  1  0.77985510  0.05499289  0.79232559  1  -1.139257  0.074818  -0.311309  -0.531597  0.03883  2.361677  0.06
O  O411  1  0.72014287  0.55499039  0.70767467  1  -1.139291  0.074814  -0.311247  -0.531473  0.038825  2.361616  0.06
O  O412  1  0.17260988  0.47617415  0.85921263  1  -1.200904  -9.3e-05  -0.318625  -0.571429  -0.001129  2.287792  0.0
O  O413  1  0.32739337  0.97617234  0.64078543  1  -1.200931  -9.2e-05  -0.318606  -0.571406  -0.001128  2.287862  0.0
O  O414  1  0.17261031  0.02383199  0.14078825  1  -1.20077  -9.1e-05  -0.31867  -0.571526  -0.001127  2.287656  0.0
O  O415  1  0.32738989  0.52382968  0.35921258  1  -1.200779  -9.2e-05  -0.318571  -0.571395  -0.001128  2.28779  0.0
O  O416  1  0.82739110  0.52382803  0.14078684  1  -1.200886  -9.2e-05  -0.318637  -0.571458  -0.001129  2.28775  0.0
O  O417  1  0.67261139  0.02383036  0.35921360  1  -1.200898  -9.2e-05  -0.318622  -0.57136  -0.001128  2.287808  0.0
O  O418  1  0.82738916  0.97617277  0.85921341  1  -1.200868  -9.3e-05  -0.318646  -0.571437  -0.001129  2.287742  0.0
O  O419  1  0.67260504  0.47617301  0.64078470  1  -1.200981  -9.1e-05  -0.318536  -0.571388  -0.001128  2.287922  0.0
O  O420  1  0.49227363  0.08448942  0.43395050  1  -1.148896  2e-05  -0.30919  -0.51447  -1.1e-05  2.099966  0.0
O  O421  1  0.00772981  0.58448860  0.06604814  1  -1.148725  2e-05  -0.30915  -0.514373  -1.1e-05  2.100056  0.0
O  O422  1  0.49226761  0.41550748  0.56604850  1  -1.148913  2e-05  -0.30924  -0.514504  -1.1e-05  2.099963  0.0
O  O423  1  0.00772861  0.91551186  0.93395702  1  -1.148624  2e-05  -0.309195  -0.514463  -1.1e-05  2.100109  0.0
O  O424  1  0.50772432  0.91551071  0.56605072  1  -1.148876  2e-05  -0.309232  -0.514446  -1.1e-05  2.099799  0.0
O  O425  1  0.99227268  0.41551101  0.93394957  1  -1.148932  2e-05  -0.309199  -0.514405  -1.1e-05  2.099957  0.0
O  O426  1  0.50773186  0.58449522  0.43394834  1  -1.148785  2e-05  -0.309169  -0.514406  -1.1e-05  2.099981  0.0
O  O427  1  0.99226934  0.08449290  0.06604903  1  -1.148844  2e-05  -0.309162  -0.51444  -1.1e-05  2.100001  0.0
O  O428  1  0.64991086  0.12989619  0.42161594  1  -1.182296  4.3e-05  -0.35426  -0.521646  -1.8e-05  2.297576  0.0
O  O429  1  0.85008975  0.62989440  0.07838275  1  -1.182271  4.3e-05  -0.354276  -0.521625  -1.8e-05  2.297488  0.0
O  O430  1  0.64991000  0.37010458  0.57838233  1  -1.18209  4.3e-05  -0.354268  -0.521678  -1.8e-05  2.297406  0.0
O  O431  1  0.85009138  0.87010386  0.92161752  1  -1.18235  4.3e-05  -0.35424  -0.521633  -1.8e-05  2.297461  0.0
O  O432  1  0.35008483  0.87010394  0.57838528  1  -1.182427  4.3e-05  -0.354204  -0.52155  -1.8e-05  2.297659  0.0
O  O433  1  0.14991274  0.37010572  0.92161321  1  -1.182375  4.3e-05  -0.354254  -0.521583  -1.8e-05  2.297659  0.0
O  O434  1  0.35008947  0.62989812  0.42161495  1  -1.182103  4.3e-05  -0.35428  -0.521619  -1.8e-05  2.297549  0.0
O  O435  1  0.14991035  0.12989729  0.07838151  1  -1.182069  4.3e-05  -0.354301  -0.521657  -1.8e-05  2.297486  0.0
