# generated using pymatgen
data_CoBH48C45N3Cl2
_symmetry_space_group_name_H-M   'P 1'
_cell_length_a   17.62582696
_cell_length_b   17.62682224
_cell_length_c   18.73708319
_cell_angle_alpha   61.94067986
_cell_angle_beta   61.94125770
_cell_angle_gamma   60.00296326
_symmetry_Int_Tables_number   1
_chemical_formula_structural   CoBH48C45N3Cl2
_chemical_formula_sum   'Co4 B4 H192 C180 N12 Cl8'
_cell_volume   4233.09048163
_cell_formula_units_Z   4
loop_
 _symmetry_equiv_pos_site_id
 _symmetry_equiv_pos_as_xyz
  1  'x, y, z'
loop_
 _atom_site_type_symbol
 _atom_site_label
 _atom_site_symmetry_multiplicity
 _atom_site_fract_x
 _atom_site_fract_y
 _atom_site_fract_z
 _atom_site_occupancy
 _atom_site_pbe_bader_charge
 _atom_site_pbe_bader_spin_density
 _atom_site_pbe_cm5_charge
 _atom_site_pbe_ddec_charge
 _atom_site_pbe_ddec_spin_density
 _atom_site_pbe_ddec_sum_bond_order
 _atom_site_pbe_magmom
Co  Co0  1  0.88223119  0.09643048  0.51067000  1  1.109026  2.490503  0.601074  0.663431  2.757714  2.755289  2.442
Co  Co1  1  0.51072376  0.88216222  0.51071328  1  1.108205  2.490477  0.601221  0.663865  2.757712  2.755002  2.442
Co  Co2  1  0.09642131  0.51066239  0.51066244  1  1.11018  2.490516  0.601087  0.663427  2.757868  2.755221  2.443
Co  Co3  1  0.99435815  0.99427504  0.01711081  1  1.100401  2.496159  0.599746  0.66005  2.759729  2.722429  2.447
B  B4  1  0.60622195  0.39375735  0.99894072  1  1.912859  -7.4e-05  -0.096778  0.414986  -0.000161  3.052222  0.0
B  B5  1  0.00107798  0.60615595  0.99901310  1  1.911776  -7.3e-05  -0.096592  0.415346  -0.000161  3.051442  0.0
B  B6  1  0.39373080  0.00115202  0.99902356  1  1.919066  -7.3e-05  -0.096892  0.414628  -0.000161  3.05215  0.0
B  B7  1  0.49983944  0.49986588  0.50033535  1  1.887998  -0.000387  -0.092099  0.408842  -0.000749  3.041879  0.0
H  H8  1  0.95267204  0.07282643  0.34047874  1  0.110334  0.00237  0.119885  0.088693  0.000784  1.002191  0.001
H  H9  1  0.63406330  0.95260751  0.34051803  1  0.096096  0.002361  0.11995  0.088698  0.000785  1.002157  0.001
H  H10  1  0.07271699  0.63412487  0.34043886  1  0.091373  0.002374  0.119918  0.088789  0.000783  1.002574  0.001
H  H11  1  0.04343840  0.35936397  0.66067837  1  0.102866  0.002615  0.118455  0.084581  0.001098  1.007871  0.002
H  H12  1  0.35951489  0.93635042  0.66072385  1  0.099772  0.002616  0.118353  0.084709  0.001101  1.007988  0.002
H  H13  1  0.93658237  0.04348355  0.66061020  1  0.094834  0.002622  0.118467  0.084601  0.0011  1.007953  0.002
H  H14  1  0.89004762  0.13141162  0.22173763  1  0.131365  0.000932  0.10655  0.115993  0.000344  1.018371  0.0
H  H15  1  0.75677144  0.89002608  0.22173274  1  0.103975  0.00096  0.106677  0.11614  0.000344  1.018404  0.0
H  H16  1  0.13131995  0.75690853  0.22172408  1  0.091348  0.000972  0.106602  0.116131  0.000344  1.018699  0.0
H  H17  1  0.10902173  0.23620704  0.77701244  1  0.098456  0.001005  0.108662  0.120081  0.000379  1.013508  0.0
H  H18  1  0.23630172  0.87762829  0.77704114  1  0.063026  0.001037  0.10866  0.119935  0.000379  1.013786  0.001
H  H19  1  0.87784346  0.10907970  0.77693694  1  0.105164  0.000986  0.108703  0.120253  0.00038  1.012946  0.0
H  H20  1  0.63941755  0.30062793  0.36249177  1  0.110511  0.000973  0.107147  0.116308  0.000399  1.042068  0.0
H  H21  1  0.69746440  0.63937713  0.36251443  1  0.103434  0.000975  0.107137  0.116372  0.000399  1.041808  0.0
H  H22  1  0.30058551  0.69747327  0.36248011  1  0.106441  0.000974  0.107236  0.116453  0.000398  1.042247  0.0
H  H23  1  0.35385060  0.30619157  0.63750876  1  0.096848  0.000977  0.106415  0.116251  0.00043  1.040474  0.0
H  H24  1  0.30614043  0.70246807  0.63747002  1  0.099269  0.000978  0.106443  0.116304  0.000431  1.040438  0.0
H  H25  1  0.70240327  0.35380283  0.63752849  1  0.111103  0.000975  0.106469  0.116142  0.000431  1.040662  0.0
H  H26  1  0.70639235  0.22496823  0.48044107  1  0.10876  0.003087  0.11604  0.082613  0.001467  1.013696  0.002
H  H27  1  0.58828902  0.70629010  0.48053490  1  0.077519  0.003169  0.115966  0.082521  0.001468  1.013697  0.002
H  H28  1  0.22487932  0.58822925  0.48043262  1  0.079197  0.003167  0.115911  0.082531  0.001471  1.013853  0.002
H  H29  1  0.28400845  0.41618139  0.52094029  1  0.110137  0.002587  0.115367  0.086379  0.001038  1.015907  0.002
H  H30  1  0.41615801  0.77888613  0.52089715  1  0.104666  0.00259  0.115514  0.086414  0.001035  1.015988  0.002
H  H31  1  0.77889207  0.28401024  0.52091897  1  0.107094  0.00259  0.115494  0.086483  0.001036  1.016215  0.002
H  H32  1  0.78499783  0.44551504  0.11942753  1  0.037262  3e-05  0.092748  0.128748  1.5e-05  1.011509  0.0
H  H33  1  0.65006449  0.78501859  0.11941053  1  0.068919  2.9e-05  0.092717  0.128793  1.5e-05  1.011363  0.0
H  H34  1  0.44553946  0.65011870  0.11944327  1  0.036846  3e-05  0.092639  0.128689  1.6e-05  1.011313  0.0
H  H35  1  0.21361262  0.35080664  0.87833570  1  0.046391  -7e-06  0.091859  0.127223  -3e-06  1.013873  0.0
H  H36  1  0.35085505  0.55717241  0.87825461  1  0.021131  -7e-06  0.091812  0.127237  -3e-06  1.014028  0.0
H  H37  1  0.55725104  0.21362476  0.87828570  1  0.017937  -7e-06  0.091777  0.127193  -3e-06  1.013972  0.0
H  H38  1  0.77811687  0.37018672  0.22414368  1  0.093876  -2.1e-05  0.09109  0.129338  -4.2e-05  1.028243  0.0
H  H39  1  0.62751842  0.77812233  0.22414191  1  0.058645  -2.2e-05  0.091131  0.129483  -4.2e-05  1.028001  0.0
H  H40  1  0.37018251  0.62761097  0.22414336  1  -0.009818  -2.1e-05  0.091178  0.129358  -4.2e-05  1.028209  0.0
H  H41  1  0.21826772  0.37274727  0.77456754  1  0.034314  -6.9e-05  0.089988  0.127493  -8.7e-05  1.030613  0.0
H  H42  1  0.37279240  0.63431742  0.77447986  1  0.045254  -6.8e-05  0.089905  0.127593  -8.7e-05  1.030917  0.0
H  H43  1  0.63440432  0.21833976  0.77450239  1  0.076375  -6.6e-05  0.090057  0.127619  -8.7e-05  1.030478  0.0
H  H44  1  0.68195458  0.47018970  0.20319297  1  0.00893  7e-06  0.089128  0.12261  6e-06  1.01374  0.0
H  H45  1  0.64456893  0.68199544  0.20317028  1  0.034594  7e-06  0.089155  0.122764  6e-06  1.013483  0.0
H  H46  1  0.47017289  0.64473315  0.20322668  1  0.031338  7e-06  0.089182  0.122623  6e-06  1.013531  0.0
H  H47  1  0.31559138  0.35661973  0.79306450  1  0.036506  -4e-06  0.08871  0.12276  3e-06  1.013956  0.0
H  H48  1  0.35653806  0.53469094  0.79302981  1  0.048983  -5e-06  0.088855  0.1228  3e-06  1.014199  0.0
H  H49  1  0.53473852  0.31565389  0.79304487  1  0.013188  -5e-06  0.088652  0.122614  3e-06  1.014191  0.0
H  H50  1  0.66583630  0.53543127  0.07366715  1  0.027651  -1e-06  0.087634  0.121779  -1e-06  1.034572  0.0
H  H51  1  0.72506089  0.66579066  0.07367705  1  0.028488  -1e-06  0.087702  0.121799  -1e-06  1.034455  0.0
H  H52  1  0.53541633  0.72517951  0.07366735  1  0.024424  -1e-06  0.087653  0.121969  -1e-06  1.034375  0.0
H  H53  1  0.32881148  0.27762369  0.92529878  1  0.041096  -1e-06  0.087896  0.123162  -1e-06  1.031422  0.0
H  H54  1  0.27756464  0.46831560  0.92541137  1  0.043991  -1e-06  0.08794  0.123316  -1e-06  1.031248  0.0
H  H55  1  0.46832357  0.32873169  0.92536572  1  0.009886  -1e-06  0.087874  0.123256  -1e-06  1.031196  0.0
H  H56  1  0.58043401  0.53988820  0.04547780  1  0.060059  7e-06  0.092854  0.130848  -3e-06  1.038372  0.0
H  H57  1  0.83416708  0.58037560  0.04550482  1  0.066443  7e-06  0.092842  0.130751  -3e-06  1.038295  0.0
H  H58  1  0.53988385  0.83426030  0.04565380  1  0.063298  7e-06  0.092694  0.130622  -3e-06  1.038077  0.0
H  H59  1  0.42075614  0.17192527  0.94597728  1  0.058109  8e-06  0.092638  0.131038  -2e-06  1.036114  0.0
H  H60  1  0.17191029  0.46139680  0.94591512  1  0.044236  8e-06  0.092704  0.131199  -2e-06  1.035901  0.0
H  H61  1  0.46141314  0.42073627  0.94595867  1  0.02756  8e-06  0.09267  0.131061  -2e-06  1.035918  0.0
H  H62  1  0.69593452  0.51131595  0.98044555  1  0.039101  6e-06  0.093083  0.129909  -7e-06  1.000518  0.0
H  H63  1  0.81234206  0.69587215  0.98050242  1  0.03504  6e-06  0.09309  0.129936  -7e-06  1.000903  0.0
H  H64  1  0.51132098  0.81255261  0.98048539  1  0.025246  6e-06  0.093164  0.130074  -7e-06  1.000959  0.0
H  H65  1  0.30856867  0.18524315  0.01731294  1  0.042506  9e-06  0.093528  0.130821  -4e-06  1.003204  0.0
H  H66  1  0.18505365  0.48894652  0.01735222  1  0.053824  9e-06  0.093649  0.131025  -4e-06  1.003377  0.0
H  H67  1  0.48897755  0.30857476  0.01732764  1  0.027278  9e-06  0.093562  0.130882  -4e-06  1.003311  0.0
H  H68  1  0.69589019  0.12783017  0.10382868  1  0.034834  -4.9e-05  0.088065  0.124517  -9.4e-05  1.018779  0.0
H  H69  1  0.07236457  0.69589906  0.10387570  1  0.041068  -4.9e-05  0.088146  0.124665  -9.4e-05  1.018595  0.0
H  H70  1  0.12781120  0.07246917  0.10389830  1  0.035523  -4.9e-05  0.088016  0.124371  -9.4e-05  1.018686  0.0
H  H71  1  0.30281409  0.92684965  0.89711400  1  0.028937  3e-05  0.089631  0.128816  -4.9e-05  1.014851  0.0
H  H72  1  0.92690685  0.87324937  0.89711099  1  0.030948  3e-05  0.089706  0.128939  -4.9e-05  1.014552  0.0
H  H73  1  0.87330792  0.30274331  0.89703463  1  0.041345  2.9e-05  0.089787  0.12897  -4.9e-05  1.014737  0.0
H  H74  1  0.62349440  0.22615840  0.04628792  1  0.0644  1e-06  0.090606  0.121144  -4e-06  1.066185  0.0
H  H75  1  0.10398576  0.62350373  0.04633670  1  0.032529  -0.0  0.090683  0.121235  -4e-06  1.066335  0.0
H  H76  1  0.22612468  0.10411562  0.04640597  1  0.040284  0.0  0.090671  0.121159  -4e-06  1.066234  0.0
H  H77  1  0.37582487  0.89657328  0.95359506  1  0.043595  -2e-06  0.089966  0.120507  -8e-06  1.068574  0.0
H  H78  1  0.89653548  0.77408255  0.95358941  1  0.048598  -2e-06  0.089998  0.120596  -8e-06  1.068316  0.0
H  H79  1  0.77416188  0.37577508  0.95352488  1  0.030355  -2e-06  0.090016  0.120682  -8e-06  1.068447  0.0
H  H80  1  0.57916645  0.17751182  0.15768925  1  0.014837  -6e-06  0.094943  0.12947  -1.7e-05  1.000127  0.0
H  H81  1  0.08567788  0.57914981  0.15771678  1  0.057042  -6e-06  0.095071  0.12963  -1.7e-05  1.000211  0.0
H  H82  1  0.17740034  0.08572343  0.15779517  1  0.029084  -6e-06  0.095041  0.129567  -1.7e-05  1.000467  0.0
H  H83  1  0.41921690  0.91473007  0.84229636  1  0.044522  1.3e-05  0.093433  0.126629  -4e-06  1.003269  0.0
H  H84  1  0.91467005  0.82389183  0.84228058  1  0.045986  1.4e-05  0.093331  0.126671  -4e-06  1.00321  0.0
H  H85  1  0.82396040  0.41916638  0.84222796  1  0.047351  1.3e-05  0.093266  0.126536  -4e-06  1.003189  0.0
H  H86  1  0.63756689  0.10727889  0.26794821  1  0.01937  0.000101  0.09214  0.130065  2.7e-05  0.998225  0.0
H  H87  1  0.98715551  0.63744570  0.26807947  1  0.024314  0.000101  0.092131  0.130026  2.7e-05  0.998127  0.0
H  H88  1  0.10722633  0.98721150  0.26804220  1  0.015377  0.000102  0.092165  0.130091  2.7e-05  0.998147  0.0
H  H89  1  0.35498503  0.00975766  0.73655025  1  0.027536  5e-05  0.08924  0.123155  -6e-06  1.009951  0.0
H  H90  1  0.00973775  0.89876625  0.73656333  1  0.019059  5e-05  0.089218  0.123096  -6e-06  1.010025  0.0
H  H91  1  0.89879800  0.35498048  0.73649090  1  0.01365  5.1e-05  0.08928  0.123129  -6e-06  1.010256  0.0
H  H92  1  0.71889600  0.09717573  0.30523534  1  0.033109  3.2e-05  0.086661  0.123812  -5e-06  1.029836  0.0
H  H93  1  0.87864031  0.71874386  0.30538058  1  0.045935  3e-05  0.086537  0.123556  -5e-06  1.029724  0.0
H  H94  1  0.09714169  0.87869930  0.30530760  1  0.054695  3.1e-05  0.086619  0.123729  -5e-06  1.030145  0.0
H  H95  1  0.27674078  0.11933948  0.69635489  1  0.055333  -3.3e-05  0.087635  0.125268  -5.6e-05  1.025327  0.0
H  H96  1  0.11935449  0.90757424  0.69634449  1  0.055509  -3.2e-05  0.087678  0.125319  -5.7e-05  1.025339  0.0
H  H97  1  0.90761665  0.27677791  0.69627916  1  0.054096  -3.4e-05  0.087721  0.12529  -5.6e-05  1.025222  0.0
H  H98  1  0.75702317  0.06578037  0.21398666  1  0.071202  0.000329  0.082452  0.125636  5.4e-05  1.03329  0.0
H  H99  1  0.96314479  0.75691102  0.21414695  1  0.033849  0.000334  0.082674  0.125859  5.4e-05  1.033123  0.0
H  H100  1  0.06576781  0.96320511  0.21405672  1  0.06055  0.000331  0.082575  0.125855  5.4e-05  1.033137  0.0
H  H101  1  0.23468989  0.03874800  0.78944815  1  0.059666  0.000156  0.082791  0.130827  6.5e-05  1.031999  0.0
H  H102  1  0.03880846  0.93708206  0.78946580  1  0.082016  0.000153  0.082774  0.130858  6.5e-05  1.031778  0.0
H  H103  1  0.93714771  0.23469698  0.78938260  1  0.058515  0.000158  0.082848  0.130896  6.6e-05  1.031871  0.0
H  H104  1  0.49310763  0.33890983  0.13845643  1  0.024808  5e-06  0.090235  0.12267  -6e-06  1.062982  0.0
H  H105  1  0.02951704  0.49305770  0.13846477  1  0.022612  5e-06  0.090172  0.122535  -6e-06  1.062742  0.0
H  H106  1  0.33889200  0.02962312  0.13848701  1  0.018458  5e-06  0.090199  0.122509  -6e-06  1.062873  0.0
H  H107  1  0.50644702  0.97410915  0.85931728  1  0.02273  4e-06  0.09094  0.124491  -1e-05  1.058721  0.0
H  H108  1  0.97393151  0.66026599  0.85935238  1  0.017286  4e-06  0.090847  0.124257  -1e-05  1.059033  0.0
H  H109  1  0.66027630  0.50644645  0.85931172  1  0.03025  3e-06  0.090795  0.124172  -1e-05  1.059251  0.0
H  H110  1  0.37497504  0.37845864  0.14985554  1  0.036651  0.000125  0.093139  0.127559  7.3e-05  0.992066  0.0
H  H111  1  0.09674296  0.37495044  0.14985680  1  0.039177  0.000126  0.093034  0.127376  7.3e-05  0.992198  0.0
H  H112  1  0.37843786  0.09679917  0.14989626  1  0.03998  0.000124  0.092919  0.127156  7.3e-05  0.991855  0.0
H  H113  1  0.62503492  0.90834913  0.84679409  1  0.04961  0.000194  0.092425  0.126166  0.00011  0.994318  0.0
H  H114  1  0.90822369  0.61995087  0.84674813  1  0.016767  0.000196  0.092305  0.126104  0.00011  0.994272  0.0
H  H115  1  0.62001424  0.62506020  0.84668738  1  0.035358  0.000194  0.092254  0.126072  0.00011  0.994295  0.0
H  H116  1  0.40840823  0.40837267  0.20479548  1  0.060529  0.000362  0.096294  0.143592  0.000228  0.99502  0.0
H  H117  1  0.97846372  0.40831797  0.20481675  1  0.06121  0.000364  0.096247  0.143497  0.000228  0.995005  0.0
H  H118  1  0.40831765  0.97852237  0.20486599  1  0.063298  0.000364  0.096305  0.1435  0.000228  0.994917  0.0
H  H119  1  0.58972088  0.02695571  0.79316543  1  0.060333  0.000392  0.093967  0.139364  0.000208  0.998936  0.0
H  H120  1  0.02685640  0.59032967  0.79315503  1  0.038318  0.000397  0.093923  0.139188  0.000208  0.999317  0.0
H  H121  1  0.59032141  0.58966909  0.79312672  1  0.042702  0.000395  0.093952  0.139252  0.000208  0.998989  0.0
H  H122  1  0.21401039  0.62695327  0.14037193  1  0.040784  -1.3e-05  0.083157  0.113503  -4e-05  1.051329  0.0
H  H123  1  0.01861884  0.21396437  0.14037446  1  0.025342  -1.3e-05  0.083119  0.113495  -4e-05  1.051258  0.0
H  H124  1  0.62696829  0.01869018  0.14045193  1  0.009713  -1.3e-05  0.083129  0.113349  -4e-05  1.051083  0.0
H  H125  1  0.78541641  0.98473334  0.85826781  1  0.03701  -1.5e-05  0.083292  0.114117  -4.2e-05  1.052584  0.0
H  H126  1  0.98474393  0.37171692  0.85813674  1  0.039638  -1.6e-05  0.083306  0.113923  -4.2e-05  1.052815  0.0
H  H127  1  0.37170941  0.78540685  0.85822541  1  0.038901  -1.6e-05  0.08328  0.113941  -4.2e-05  1.053035  0.0
H  H128  1  0.28455308  0.54190160  0.20600660  1  0.073297  4.9e-05  0.088349  0.130508  -2.7e-05  1.015574  0.0
H  H129  1  0.96753402  0.28450335  0.20599802  1  0.040447  5.2e-05  0.088304  0.130486  -2.8e-05  1.015817  0.0
H  H130  1  0.54186774  0.96763378  0.20607109  1  0.062681  4.8e-05  0.088277  0.130442  -2.7e-05  1.015915  0.0
H  H131  1  0.71524505  0.03519084  0.79250152  1  0.060879  0.000207  0.086908  0.127052  2.5e-05  1.01888  0.0
H  H132  1  0.03516822  0.45725127  0.79245147  1  0.047847  0.000209  0.086688  0.126833  2.6e-05  1.018922  0.0
H  H133  1  0.45718403  0.71520688  0.79247547  1  0.058371  0.000207  0.086849  0.127102  2.5e-05  1.018833  0.0
H  H134  1  0.24763390  0.50823500  0.15749888  1  0.038841  8.2e-05  0.092516  0.128985  5.3e-05  0.996645  0.0
H  H135  1  0.08661536  0.24757598  0.15748239  1  0.039345  8.3e-05  0.092469  0.128983  5.3e-05  0.99675  0.0
H  H136  1  0.50826994  0.08669569  0.15751286  1  0.034514  8.4e-05  0.09254  0.128994  5.3e-05  0.996661  0.0
H  H137  1  0.75233752  0.91605927  0.84147469  1  0.054102  0.000115  0.091099  0.127056  5.7e-05  0.99931  0.0
H  H138  1  0.91600971  0.49025462  0.84135784  1  0.028114  0.000118  0.09099  0.12702  5.8e-05  0.998904  0.0
H  H139  1  0.49027310  0.75235036  0.84139657  1  0.050982  0.000115  0.091064  0.127215  5.7e-05  0.999033  0.0
H  H140  1  0.29038835  0.76613220  0.08347813  1  0.108539  0.000992  0.106428  0.114661  0.000408  1.049183  0.001
H  H141  1  0.85998886  0.29032453  0.08346216  1  0.117542  0.000977  0.106318  0.1146  0.000408  1.049071  0.001
H  H142  1  0.76612084  0.86007141  0.08350736  1  0.089235  0.000999  0.106218  0.114099  0.000409  1.049033  0.001
H  H143  1  0.71540302  0.13954318  0.91649961  1  0.11685  0.000819  0.105797  0.114613  0.000363  1.050832  0.0
H  H144  1  0.13948188  0.22871590  0.91644236  1  0.093677  0.000827  0.105927  0.114723  0.000363  1.050675  0.0
H  H145  1  0.22868919  0.71534691  0.91647212  1  0.093514  0.000838  0.105932  0.11475  0.000363  1.050349  0.0
H  H146  1  0.14671049  0.90368989  0.08615751  1  0.102637  0.002694  0.11329  0.082249  0.001215  1.029553  0.002
H  H147  1  0.86351372  0.14657402  0.08619566  1  0.10801  0.002688  0.113268  0.08215  0.001214  1.029803  0.002
H  H148  1  0.90369294  0.86347966  0.08622177  1  0.110911  0.002672  0.113232  0.082189  0.001213  1.029546  0.002
H  H149  1  0.86107125  0.12852890  0.91843809  1  0.1249  0.00186  0.113014  0.088216  0.000471  1.026525  0.001
H  H150  1  0.12858239  0.09205076  0.91842695  1  0.13412  0.001857  0.112967  0.08837  0.000472  1.026948  0.001
H  H151  1  0.09207999  0.86098054  0.91841287  1  0.125777  0.001855  0.11296  0.088247  0.00047  1.026639  0.001
H  H152  1  0.94018499  0.91103639  0.51315794  1  0.115198  0.002971  0.114571  0.092356  0.001213  1.001442  0.002
H  H153  1  0.63563375  0.94017921  0.51318738  1  0.127236  0.002951  0.114533  0.092261  0.001215  1.001287  0.002
H  H154  1  0.91104104  0.63554169  0.51322559  1  0.114607  0.002979  0.114486  0.092266  0.001216  1.001569  0.002
H  H155  1  0.06486075  0.37666054  0.48197193  1  0.15433  0.001787  0.113491  0.100856  0.000295  1.009311  0.001
H  H156  1  0.37665209  0.07637148  0.48210508  1  0.136188  0.001784  0.113508  0.100935  0.000294  1.008871  0.001
H  H157  1  0.07647838  0.06486762  0.48195373  1  0.136011  0.001787  0.113534  0.100891  0.000294  1.009269  0.001
H  H158  1  0.08207797  0.77030533  0.51016888  1  0.086478  0.001201  0.108313  0.123081  0.000444  1.005872  0.001
H  H159  1  0.63749200  0.08211735  0.51007778  1  0.086402  0.001204  0.108372  0.12309  0.000443  1.006013  0.001
H  H160  1  0.77030133  0.63742401  0.51019414  1  0.09337  0.001199  0.108363  0.123113  0.000444  1.005929  0.001
H  H161  1  0.92735899  0.36241948  0.48715477  1  0.108618  0.000769  0.112562  0.131135  0.000268  0.991976  0.0
H  H162  1  0.36239869  0.22296078  0.48723029  1  0.12334  0.000762  0.112722  0.131401  0.000268  0.991715  0.0
H  H163  1  0.22302683  0.92738707  0.48716666  1  0.108458  0.000769  0.112612  0.131315  0.000268  0.991711  0.0
H  H164  1  0.26844995  0.89045412  0.35392122  1  0.044545  -2.3e-05  0.088722  0.129646  -3e-05  1.015503  0.0
H  H165  1  0.48720666  0.26840139  0.35392627  1  0.051953  -2.4e-05  0.088693  0.129623  -3e-05  1.015326  0.0
H  H166  1  0.89041773  0.48720641  0.35392415  1  0.034251  -2.4e-05  0.088774  0.129861  -3e-05  1.015479  0.0
H  H167  1  0.73664617  0.50483705  0.64637617  1  0.053783  -1.9e-05  0.089827  0.13187  -3.3e-05  1.012142  0.0
H  H168  1  0.50498878  0.11203136  0.64629344  1  0.040256  -1.9e-05  0.089965  0.132091  -3.3e-05  1.012256  0.0
H  H169  1  0.11198825  0.73660813  0.64632868  1  0.035765  -1.7e-05  0.08992  0.131975  -3.3e-05  1.012241  0.0
H  H170  1  0.37477538  0.82304890  0.29799715  1  0.03884  9e-06  0.086966  0.121042  -1.3e-05  1.021559  0.0
H  H171  1  0.50424790  0.37472293  0.29797337  1  0.036196  9e-06  0.086949  0.12104  -1.3e-05  1.02131  0.0
H  H172  1  0.82300752  0.50423412  0.29798423  1  0.031375  9e-06  0.086936  0.121122  -1.3e-05  1.021392  0.0
H  H173  1  0.63093083  0.48666423  0.70305388  1  0.01758  3.4e-05  0.088074  0.122496  4e-06  1.02185  0.0
H  H174  1  0.48679919  0.17923262  0.70298294  1  0.042549  3.4e-05  0.088084  0.122589  4e-06  1.021518  0.0
H  H175  1  0.17919235  0.63090879  0.70300739  1  0.00918  3.5e-05  0.088065  0.122576  4e-06  1.021657  0.0
H  H176  1  0.37231695  0.87602919  0.36008736  1  0.101283  0.00056  0.08137  0.138445  0.000384  1.043692  0.0
H  H177  1  0.39159288  0.37229610  0.35999637  1  0.109716  0.000572  0.081491  0.138608  0.000385  1.043542  0.0
H  H178  1  0.87607362  0.39159779  0.35999628  1  0.116943  0.000557  0.081398  0.138528  0.000384  1.043755  0.0
H  H179  1  0.63195595  0.59972970  0.64302023  1  0.068196  0.000668  0.081538  0.1307  0.000267  1.043854  0.0
H  H180  1  0.59986850  0.12519930  0.64294366  1  0.101466  0.000653  0.081273  0.130343  0.000269  1.043853  0.0
H  H181  1  0.12517977  0.63192419  0.64293628  1  0.069153  0.00066  0.081171  0.130221  0.000268  1.044061  0.0
H  H182  1  0.51242339  0.74161357  0.35027272  1  0.038959  -3.8e-05  0.093273  0.133223  -0.000108  1.014725  0.0
H  H183  1  0.39561329  0.51250130  0.35019922  1  0.038396  -3.9e-05  0.093231  0.133052  -0.000109  1.014676  0.0
H  H184  1  0.74161389  0.39570143  0.35014118  1  0.050494  -3.8e-05  0.093278  0.133157  -0.000108  1.014919  0.0
H  H185  1  0.49071288  0.60161348  0.64965999  1  0.026782  -7e-05  0.092193  0.130238  -0.000137  1.014934  0.0
H  H186  1  0.60166910  0.25793527  0.64964166  1  0.035457  -6.9e-05  0.092307  0.130363  -0.000137  1.015136  0.0
H  H187  1  0.25782313  0.49071166  0.64965480  1  0.024346  -7e-05  0.092328  0.130417  -0.000137  1.015358  0.0
H  H188  1  0.49047795  0.69238349  0.30254427  1  0.033641  2e-05  0.089317  0.120236  1.1e-05  1.012953  0.0
H  H189  1  0.51453712  0.49053764  0.30254471  1  0.049575  2e-05  0.089359  0.120316  1.1e-05  1.013002  0.0
H  H190  1  0.69228991  0.51461980  0.30256926  1  0.027923  2e-05  0.089287  0.120089  1.1e-05  1.013388  0.0
H  H191  1  0.51173392  0.48300678  0.69896277  1  0.02534  2.8e-05  0.089965  0.121287  1.5e-05  1.011482  0.0
H  H192  1  0.48303692  0.30617809  0.69889886  1  0.035074  2.8e-05  0.089814  0.12127  1.5e-05  1.011272  0.0
H  H193  1  0.30614459  0.51175185  0.69891889  1  0.023007  2.8e-05  0.090036  0.1214  1.5e-05  1.011108  0.0
H  H194  1  0.55893601  0.62051452  0.37181571  1  0.042621  6e-06  0.090238  0.121761  -3e-06  1.067847  0.0
H  H195  1  0.44862325  0.55898677  0.37181438  1  0.043434  6e-06  0.090234  0.121783  -3e-06  1.067802  0.0
H  H196  1  0.62050266  0.44867092  0.37179243  1  0.043659  6e-06  0.09024  0.121763  -3e-06  1.067906  0.0
H  H197  1  0.44322570  0.54831086  0.62974662  1  0.02864  -3e-06  0.090145  0.121441  -4e-06  1.069555  0.0
H  H198  1  0.54832357  0.37862349  0.62974248  1  0.032318  -2e-06  0.089974  0.12106  -4e-06  1.069944  0.0
H  H199  1  0.37853400  0.44322139  0.62971524  1  0.039066  -2e-06  0.090232  0.121315  -4e-06  1.069437  0.0
C  C200  1  0.88241581  0.12123730  0.34353897  1  0.467885  -0.001712  0.05195  0.103126  -0.002392  3.929232  -0.001
C  C201  1  0.65283468  0.88236208  0.34356838  1  0.458907  -0.001653  0.052048  0.103347  -0.002396  3.929661  -0.001
C  C202  1  0.12115147  0.65287401  0.34350469  1  0.480632  -0.001652  0.051796  0.103032  -0.002392  3.929121  -0.001
C  C203  1  0.11280018  0.34402687  0.65757205  1  0.45589  -0.004876  0.050253  0.097028  -0.004872  3.932871  -0.002
C  C204  1  0.34411428  0.88549645  0.65758821  1  0.452219  -0.004868  0.050311  0.096687  -0.00488  3.932804  -0.002
C  C205  1  0.88565038  0.11283162  0.65751758  1  0.525859  -0.004979  0.050094  0.096798  -0.004876  3.933141  -0.002
C  C206  1  0.84774850  0.15592633  0.27697417  1  -0.032837  0.004912  -0.076993  -0.166085  0.002443  3.917317  0.004
C  C207  1  0.71934792  0.84771393  0.27698296  1  0.000529  0.004868  -0.077171  -0.166368  0.002444  3.917533  0.004
C  C208  1  0.15585330  0.71942910  0.27694060  1  0.005323  0.004865  -0.07708  -0.166425  0.002442  3.916922  0.004
C  C209  1  0.14911558  0.27680425  0.72296235  1  0.001621  0.008335  -0.076358  -0.16348  0.00411  3.916205  0.007
C  C210  1  0.27687181  0.85102844  0.72296367  1  0.018601  0.008293  -0.076397  -0.16311  0.004112  3.915922  0.007
C  C211  1  0.85117213  0.14915099  0.72290833  1  -0.097721  0.008444  -0.076316  -0.163511  0.004118  3.915521  0.007
C  C212  1  0.75934850  0.22336203  0.28126939  1  -0.015484  -0.004513  0.014804  0.127753  -0.004509  3.98219  -0.003
C  C213  1  0.73597843  0.75933245  0.28128637  1  -0.030631  -0.004524  0.014934  0.128421  -0.004508  3.982452  -0.003
C  C214  1  0.22332051  0.73606348  0.28124048  1  -0.086344  -0.00449  0.01496  0.128096  -0.004496  3.982841  -0.003
C  C215  1  0.23642658  0.26332134  0.71871334  1  -0.034862  -0.011041  0.014337  0.124991  -0.010786  3.98274  -0.007
C  C216  1  0.26332068  0.78151563  0.71868129  1  -0.032463  -0.011072  0.014219  0.124801  -0.010808  3.981984  -0.007
C  C217  1  0.78156120  0.23644344  0.71867612  1  -0.074412  -0.01107  0.0144  0.125095  -0.010793  3.98294  -0.007
C  C218  1  0.70858429  0.24933052  0.35532805  1  -0.00535  0.005949  -0.07994  -0.168115  0.002957  3.93227  0.005
C  C219  1  0.68676502  0.70854097  0.35536080  1  -0.074081  0.006032  -0.079947  -0.168493  0.002959  3.932304  0.005
C  C220  1  0.24927670  0.68678274  0.35530074  1  -0.012628  0.006  -0.080098  -0.168513  0.002952  3.933346  0.005
C  C221  1  0.28506701  0.31525131  0.64510658  1  0.003374  0.007579  -0.08103  -0.169094  0.003699  3.935965  0.006
C  C222  1  0.31524313  0.75456606  0.64506334  1  -0.052029  0.007615  -0.080942  -0.16908  0.003701  3.935929  0.006
C  C223  1  0.75456573  0.28504969  0.64509264  1  0.056356  0.007557  -0.081057  -0.168797  0.003703  3.936598  0.006
C  C224  1  0.74601636  0.20815560  0.42097996  1  0.434191  0.000496  0.048135  0.091183  7.9e-05  3.947902  0.0
C  C225  1  0.62489191  0.74594752  0.42104534  1  0.512964  0.000353  0.047984  0.091211  7.9e-05  3.947758  0.0
C  C226  1  0.20808190  0.62488181  0.42095681  1  0.519106  0.000386  0.047814  0.090994  9.6e-05  3.947973  0.0
C  C227  1  0.24616076  0.37786081  0.58051657  1  0.443431  -0.005677  0.045088  0.087812  -0.005604  3.94596  -0.003
C  C228  1  0.37785268  0.79544241  0.58049056  1  0.498668  -0.005705  0.044953  0.088079  -0.005614  3.946601  -0.003
C  C229  1  0.79547237  0.24616404  0.58048971  1  0.423257  -0.00565  0.04487  0.087594  -0.005608  3.946801  -0.003
C  C230  1  0.71960840  0.26674343  0.21080881  1  -0.109453  0.000397  -0.012938  -0.058815  0.000117  3.966631  0.0
C  C231  1  0.80279915  0.71955743  0.21085986  1  -0.055302  0.000405  -0.013065  -0.059305  0.000117  3.96669  0.0
C  C232  1  0.26671190  0.80288641  0.21082609  1  -0.037907  0.000403  -0.012944  -0.058956  0.000117  3.966998  0.0
C  C233  1  0.27707419  0.19711840  0.78866176  1  -0.070883  0.000484  -0.012906  -0.057328  5.8e-05  3.964579  0.001
C  C234  1  0.19712331  0.73713155  0.78863099  1  -0.046422  0.0005  -0.01302  -0.057369  5.7e-05  3.964762  0.001
C  C235  1  0.73718895  0.27708854  0.78861459  1  -0.016531  0.0005  -0.013104  -0.057829  5.7e-05  3.965161  0.001
C  C236  1  0.70659525  0.36026957  0.16280269  1  0.040961  -0.000183  -0.018854  0.041692  -0.00021  3.951399  0.0
C  C237  1  0.77030836  0.70654191  0.16285062  1  -0.052261  -0.000184  -0.01861  0.042191  -0.000209  3.951129  0.0
C  C238  1  0.36024628  0.77039798  0.16282856  1  -0.033755  -0.000184  -0.019229  0.041318  -0.000209  3.952073  0.0
C  C239  1  0.29109427  0.23035185  0.83543952  1  -0.059958  -0.000621  -0.019873  0.039632  -0.00062  3.947955  0.0
C  C240  1  0.23034591  0.64310223  0.83541049  1  -0.031035  -0.000622  -0.01986  0.039404  -0.000621  3.948207  0.0
C  C241  1  0.64315988  0.29109642  0.83540669  1  -0.074832  -0.000624  -0.019685  0.039855  -0.000621  3.947648  0.0
C  C242  1  0.66710737  0.40153456  0.09716781  1  -0.094553  8.6e-05  -0.004634  0.10947  3.8e-05  3.925841  0.0
C  C243  1  0.83416992  0.66700841  0.09725662  1  -0.024447  8.7e-05  -0.004745  0.109432  3.8e-05  3.926098  0.0
C  C244  1  0.40151576  0.83427545  0.09724503  1  -0.041992  8.7e-05  -0.004415  0.109904  3.8e-05  3.925854  0.0
C  C245  1  0.33145381  0.16712728  0.90059136  1  -0.039314  0.000164  -0.004531  0.110399  7.9e-05  3.926149  0.0
C  C246  1  0.16708895  0.60086134  0.90059056  1  -0.035486  0.000164  -0.004514  0.110582  7.9e-05  3.926849  0.0
C  C247  1  0.60089881  0.33145722  0.90056146  1  -0.027624  0.000164  -0.004583  0.110211  7.9e-05  3.926617  0.0
C  C248  1  0.64711385  0.34795182  0.07513277  1  -0.592828  -0.000101  -0.009647  -0.256969  -8.9e-05  3.917286  0.0
C  C249  1  0.92978774  0.64701307  0.07523161  1  -0.609954  -0.000101  -0.009873  -0.257365  -8.8e-05  3.917354  0.0
C  C250  1  0.34792040  0.92987713  0.07524184  1  -0.604222  -0.000101  -0.009858  -0.25705  -8.8e-05  3.916908  0.0
C  C251  1  0.35182889  0.07130020  0.92326742  1  -0.612587  -0.000482  -0.010845  -0.261299  -0.000436  3.920824  0.0
C  C252  1  0.07125926  0.65363820  0.92326488  1  -0.603074  -0.000482  -0.010879  -0.26139  -0.000437  3.921097  0.0
C  C253  1  0.65369029  0.35185255  0.92319874  1  -0.582356  -0.000482  -0.010761  -0.260669  -0.000437  3.921691  0.0
C  C254  1  0.66269436  0.25392689  0.12311209  1  -0.043239  5.8e-05  -0.003867  0.110509  4e-06  3.93738  0.0
C  C255  1  0.96023194  0.66258619  0.12323012  1  0.010865  5.8e-05  -0.003765  0.11048  4e-06  3.938105  0.0
C  C256  1  0.25390192  0.96032329  0.12323175  1  -0.034702  5.8e-05  -0.003825  0.110224  4e-06  3.938208  0.0
C  C257  1  0.33515217  0.04010369  0.87664555  1  -0.091627  0.000154  -0.002413  0.114211  6.9e-05  3.933415  0.0
C  C258  1  0.04009036  0.74811679  0.87661803  1  -0.032901  0.000156  -0.002518  0.114176  6.9e-05  3.933622  0.0
C  C259  1  0.74816951  0.33519474  0.87655016  1  -0.061902  0.000157  -0.00258  0.113597  6.9e-05  3.934538  0.0
C  C260  1  0.69571750  0.21382592  0.19302341  1  0.012745  -4.2e-05  -0.014183  0.06048  -0.000111  3.931124  0.0
C  C261  1  0.89739641  0.69559952  0.19313357  1  -0.050544  -4e-05  -0.014084  0.060758  -0.00011  3.930515  0.0
C  C262  1  0.21380682  0.89746931  0.19310245  1  -0.012463  -4.1e-05  -0.014037  0.061091  -0.00011  3.9314  0.0
C  C263  1  0.30050889  0.10237360  0.80757543  1  0.059902  -0.000718  -0.012341  0.063189  -0.000725  3.926478  -0.001
C  C264  1  0.10237513  0.78954410  0.80754417  1  -0.002415  -0.000722  -0.012405  0.063172  -0.000727  3.926252  -0.001
C  C265  1  0.78960117  0.30054506  0.80748369  1  0.007924  -0.000722  -0.012591  0.063142  -0.000727  3.926681  -0.001
C  C266  1  0.73943667  0.41398771  0.17841212  1  -0.095212  4.8e-05  -0.243416  -0.406939  1.9e-05  3.974038  0.0
C  C267  1  0.66813509  0.73943664  0.17841156  1  -0.106003  4.8e-05  -0.243456  -0.407434  1.9e-05  3.973488  0.0
C  C268  1  0.41397932  0.66823573  0.17842452  1  -0.023057  4.8e-05  -0.243354  -0.406847  1.9e-05  3.974134  0.0
C  C269  1  0.25815519  0.33264526  0.81927315  1  -0.063251  -4.7e-05  -0.242995  -0.406289  -8.5e-05  3.970568  0.0
C  C270  1  0.33264847  0.58987311  0.81921710  1  -0.076313  -4.6e-05  -0.242953  -0.406277  -8.4e-05  3.971177  0.0
C  C271  1  0.58993299  0.25818822  0.81923861  1  -0.066036  -4.8e-05  -0.242872  -0.40611  -8.4e-05  3.970495  0.0
C  C272  1  0.65168714  0.50199948  0.04709661  1  -0.079243  -1.3e-05  -0.241438  -0.412609  -2.1e-05  3.953584  0.0
C  C273  1  0.79921809  0.65161489  0.04714568  1  -0.100913  -1.3e-05  -0.241566  -0.412635  -2.1e-05  3.95383  0.0
C  C274  1  0.50199237  0.79934333  0.04716933  1  -0.074326  -1.3e-05  -0.241384  -0.412933  -2.1e-05  3.953517  0.0
C  C275  1  0.34798641  0.20275744  0.94935471  1  -0.093766  -2.4e-05  -0.241712  -0.414709  -3.1e-05  3.949747  0.0
C  C276  1  0.20268178  0.49995438  0.94938021  1  -0.099974  -2.4e-05  -0.241834  -0.415219  -3.1e-05  3.950347  0.0
C  C277  1  0.49998287  0.34796104  0.94935900  1  -0.023248  -2.5e-05  -0.241641  -0.414858  -3.1e-05  3.950167  0.0
C  C278  1  0.63902252  0.19412058  0.10624011  1  -0.073536  -4.6e-05  -0.241822  -0.417978  -8.2e-05  3.978734  0.0
C  C279  1  0.06057693  0.63898867  0.10630876  1  -0.081507  -4.6e-05  -0.242244  -0.418508  -8.2e-05  3.979301  0.0
C  C280  1  0.19407827  0.06066304  0.10635230  1  -0.056952  -4.6e-05  -0.241887  -0.417805  -8.2e-05  3.979561  0.0
C  C281  1  0.35951538  0.93950292  0.89396204  1  -0.069387  -1.1e-05  -0.243258  -0.41974  -4.3e-05  3.979149  0.0
C  C282  1  0.93949090  0.80707718  0.89394647  1  -0.092683  -1.1e-05  -0.243214  -0.420058  -4.3e-05  3.978674  0.0
C  C283  1  0.80713637  0.35949342  0.89387657  1  -0.074134  -1e-05  -0.243205  -0.419753  -4.3e-05  3.979114  0.0
C  C284  1  0.70294192  0.11615202  0.24789583  1  -0.079398  0.000251  -0.245027  -0.409085  0.000194  3.972931  0.0
C  C285  1  0.93295372  0.70281505  0.24802807  1  -0.040142  0.000246  -0.245098  -0.408985  0.000194  3.97231  0.0
C  C286  1  0.11613348  0.93301330  0.24797385  1  -0.076675  0.000252  -0.245209  -0.409452  0.000195  3.973335  0.0
C  C287  1  0.29104993  0.06609477  0.75472516  1  -0.090731  6.6e-05  -0.245756  -0.410547  4.4e-05  3.970117  0.0
C  C288  1  0.06610984  0.88814442  0.75471696  1  -0.100835  6.8e-05  -0.24567  -0.410536  4.4e-05  3.970072  0.0
C  C289  1  0.88818475  0.29107190  0.75465293  1  -0.06915  6.5e-05  -0.24584  -0.410521  4.5e-05  3.97059  0.0
C  C290  1  0.51630072  0.48295135  0.99886148  1  -0.6373  -0.000171  -0.014383  -0.269097  -0.000154  3.957394  0.0
C  C291  1  0.00190201  0.51624084  0.99889207  1  -0.589769  -0.000171  -0.014346  -0.268799  -0.000154  3.957398  0.0
C  C292  1  0.48293275  0.00200021  0.99891103  1  -0.618721  -0.00017  -0.014134  -0.268608  -0.000154  3.956723  0.0
C  C293  1  0.43546349  0.48332652  0.06963892  1  -0.000403  5.9e-05  -0.005665  0.106373  1.1e-05  3.947474  0.0
C  C294  1  0.01158370  0.43539699  0.06965913  1  -0.034226  5.9e-05  -0.005685  0.105956  1.1e-05  3.948446  0.0
C  C295  1  0.48331226  0.01164373  0.06970834  1  -0.017909  5.9e-05  -0.00593  0.105761  1.1e-05  3.947986  0.0
C  C296  1  0.56382022  0.99242005  0.92819144  1  -0.000881  7.6e-05  -0.005775  0.105949  1.7e-05  3.946668  0.0
C  C297  1  0.99229681  0.51568484  0.92817459  1  -0.021622  7.6e-05  -0.005875  0.105802  1.7e-05  3.947017  0.0
C  C298  1  0.51571563  0.56383941  0.92815254  1  -0.009532  7.6e-05  -0.005815  0.105942  1.7e-05  3.946828  0.0
C  C299  1  0.35573770  0.56348700  0.07053131  1  -0.023942  -0.000246  -0.016198  0.055624  -0.000256  3.947241  0.0
C  C300  1  0.01023677  0.35568804  0.07053600  1  -0.000875  -0.000247  -0.016195  0.055947  -0.000257  3.94768  0.0
C  C301  1  0.56349263  0.01029990  0.07059722  1  0.000797  -0.000246  -0.016202  0.055819  -0.000256  3.948818  0.0
C  C302  1  0.64362086  0.99322632  0.92767090  1  -0.027717  -0.00023  -0.01881  0.053246  -0.000245  3.947333  0.0
C  C303  1  0.99309808  0.43561158  0.92763884  1  -0.026595  -0.000229  -0.0188  0.05315  -0.000245  3.947396  0.0
C  C304  1  0.43562917  0.64363521  0.92764329  1  -0.024556  -0.000229  -0.018738  0.053233  -0.000245  3.947305  0.0
C  C305  1  0.42865526  0.39789303  0.14397072  1  -0.084242  0.000196  -0.237562  -0.409079  0.000213  3.956777  0.0
C  C306  1  0.02950297  0.42858706  0.14398551  1  -0.085897  0.000196  -0.237389  -0.408609  0.000214  3.95659  0.0
C  C307  1  0.39786427  0.02956839  0.14403291  1  -0.081536  0.000198  -0.23716  -0.408069  0.000213  3.955771  0.0
C  C308  1  0.57061085  0.97495360  0.85361223  1  -0.091611  0.000253  -0.2393  -0.408468  0.000248  3.957042  0.0
C  C309  1  0.97481637  0.60096347  0.85360310  1  -0.027138  0.000246  -0.238932  -0.407894  0.000248  3.957165  0.0
C  C310  1  0.60098416  0.57062015  0.85356365  1  -0.060612  0.000248  -0.238853  -0.407856  0.000249  3.957151  0.0
C  C311  1  0.27127452  0.56095681  0.14686225  1  -0.088939  7.6e-05  -0.24508  -0.404908  2.6e-05  3.977409  0.0
C  C312  1  0.02088658  0.27122049  0.14685491  1  -0.046466  7.6e-05  -0.244885  -0.404911  2.5e-05  3.977777  0.0
C  C313  1  0.56096984  0.02095891  0.14691725  1  -0.052182  7.5e-05  -0.244854  -0.404572  2.6e-05  3.977961  0.0
C  C314  1  0.72842372  0.98206956  0.85172066  1  -0.100171  0.000177  -0.244608  -0.404914  6.9e-05  3.983727  0.0
C  C315  1  0.98202190  0.43792921  0.85164112  1  -0.061008  0.000174  -0.244303  -0.404481  7e-05  3.983207  0.0
C  C316  1  0.43792109  0.72842003  0.85167691  1  -0.096843  0.000174  -0.244574  -0.405065  6.9e-05  3.984165  0.0
C  C317  1  0.35639122  0.64290937  0.99917274  1  -0.077139  0.000294  -0.017245  -0.065142  8.4e-05  3.969638  0.0
C  C318  1  0.00150795  0.35637221  0.99916356  1  -0.068112  0.000294  -0.017272  -0.065395  8.4e-05  3.969649  0.0
C  C319  1  0.64290309  0.00160601  0.99921862  1  -0.070611  0.000294  -0.016978  -0.065028  8.4e-05  3.970048  0.0
C  C320  1  0.27237999  0.72765990  0.99985434  1  -0.013098  -0.004503  0.01958  0.1412  -0.004482  3.970355  -0.003
C  C321  1  0.00008558  0.27237181  0.99982216  1  0.024539  -0.004523  0.019395  0.141024  -0.004489  3.970467  -0.003
C  C322  1  0.72767726  0.00016320  0.99989733  1  -0.017121  -0.004504  0.019021  0.14  -0.004477  3.970946  -0.003
C  C323  1  0.24779097  0.78313319  0.04716512  1  -0.029546  0.005977  -0.080857  -0.171571  0.002971  3.934177  0.005
C  C324  1  0.92192145  0.24772972  0.04714995  1  -0.103457  0.006019  -0.080674  -0.171337  0.002974  3.93361  0.005
C  C325  1  0.78314547  0.92198668  0.04719862  1  -0.039721  0.005982  -0.080223  -0.170039  0.002966  3.93454  0.005
C  C326  1  0.75580854  0.07617529  0.95377599  1  -0.046413  0.004831  -0.080882  -0.172505  0.002446  3.925461  0.004
C  C327  1  0.07613097  0.21435759  0.95372638  1  -0.021616  0.004829  -0.080843  -0.172735  0.002451  3.925733  0.004
C  C328  1  0.21436255  0.75576994  0.95375339  1  -0.009302  0.004783  -0.08089  -0.172807  0.002445  3.926172  0.004
C  C329  1  0.16823704  0.86096093  0.04803616  1  0.45187  0.000454  0.043193  0.086205  8.1e-05  3.95125  0.001
C  C330  1  0.92280686  0.16814857  0.04804212  1  0.478742  0.000352  0.043267  0.086223  7.4e-05  3.950137  0.001
C  C331  1  0.86097600  0.92280126  0.04808318  1  0.462618  0.000406  0.043126  0.085651  8.3e-05  3.951002  0.001
C  C332  1  0.83596357  0.07155879  0.95555003  1  0.455692  -0.002293  0.045478  0.093344  -0.002769  3.934874  -0.001
C  C333  1  0.07157629  0.13700470  0.95551127  1  0.437959  -0.002298  0.045773  0.09363  -0.002781  3.935078  -0.001
C  C334  1  0.13703589  0.83590852  0.95552035  1  0.423626  -0.002232  0.045816  0.093697  -0.002776  3.934741  -0.001
C  C335  1  0.00529402  0.91176773  0.50518811  1  0.452635  -0.000955  0.041772  0.082554  -0.000984  3.954157  0.0
C  C336  1  0.57776186  0.00529248  0.50520156  1  0.421483  -0.000889  0.041769  0.082748  -0.000977  3.953964  0.0
C  C337  1  0.91175668  0.57768832  0.50523173  1  0.445078  -0.000991  0.041565  0.082233  -0.000992  3.955149  0.0
C  C338  1  0.99698528  0.43095067  0.49077421  1  0.406419  -0.003547  0.045919  0.093054  -0.003994  3.920611  -0.002
C  C339  1  0.43096670  0.08118932  0.49084933  1  0.441183  -0.003535  0.046139  0.093578  -0.003973  3.919592  -0.002
C  C340  1  0.08126347  0.99699311  0.49076410  1  0.427831  -0.003531  0.046165  0.093361  -0.003974  3.920161  -0.002
C  C341  1  0.08432898  0.83358359  0.50469163  1  -0.00925  0.005237  -0.08066  -0.167179  0.00256  3.931632  0.004
C  C342  1  0.57742609  0.08434231  0.50464455  1  0.01112  0.005215  -0.08073  -0.167378  0.002559  3.93202  0.004
C  C343  1  0.83356474  0.57737178  0.50470953  1  -0.015705  0.005225  -0.080501  -0.166823  0.002564  3.931056  0.004
C  C344  1  0.92058281  0.42486023  0.49223714  1  0.019162  0.004702  -0.076611  -0.165113  0.002391  3.90926  0.004
C  C345  1  0.42487446  0.16223584  0.49227667  1  -0.002575  0.004707  -0.076771  -0.165994  0.002387  3.909411  0.004
C  C346  1  0.16229052  0.92059428  0.49223887  1  0.014705  0.004696  -0.076791  -0.165622  0.002387  3.909454  0.004
C  C347  1  0.16535041  0.83634279  0.49901619  1  -0.068116  -0.005255  0.015504  0.128136  -0.005188  3.974141  -0.004
C  C348  1  0.49931325  0.16535272  0.49897780  1  -0.060527  -0.005247  0.015542  0.128527  -0.005186  3.97388  -0.004
C  C349  1  0.83631491  0.49927191  0.49901576  1  -0.037146  -0.005279  0.015414  0.128011  -0.005213  3.973656  -0.004
C  C350  1  0.24987284  0.75295315  0.50015445  1  -0.025083  0.000878  -0.012449  -0.06306  0.000305  3.963497  0.001
C  C351  1  0.49700619  0.24988828  0.50011639  1  0.001917  0.000871  -0.01252  -0.063379  0.000304  3.964368  0.001
C  C352  1  0.75294056  0.49694018  0.50017324  1  -0.040322  0.000875  -0.0125  -0.063337  0.000305  3.964617  0.001
C  C353  1  0.33265477  0.75571628  0.43339228  1  -0.011094  -0.000653  -0.011362  0.061473  -0.000695  3.932889  0.0
C  C354  1  0.47817224  0.33267853  0.43338327  1  -0.043412  -0.000653  -0.011319  0.061614  -0.000695  3.933453  0.0
C  C355  1  0.75571920  0.47815651  0.43340016  1  -0.015696  -0.000655  -0.011215  0.06153  -0.000698  3.93361  -0.001
C  C356  1  0.67058468  0.51553970  0.56748217  1  -0.024124  -0.000598  -0.014259  0.055024  -0.000657  3.938908  -0.001
C  C357  1  0.51563892  0.24630730  0.56741113  1  -0.032374  -0.000595  -0.014133  0.055245  -0.000654  3.939337  -0.001
C  C358  1  0.24628012  0.67058940  0.56743159  1  -0.031665  -0.000595  -0.014105  0.055089  -0.000654  3.938659  -0.001
C  C359  1  0.41262882  0.67554403  0.43543857  1  -0.077361  0.00043  -0.010259  0.099255  0.000204  3.943263  0.0
C  C360  1  0.47627275  0.41267838  0.43543677  1  -0.047437  0.000431  -0.010265  0.098916  0.000204  3.943055  0.0
C  C361  1  0.67555383  0.47626725  0.43544989  1  -0.033742  0.00043  -0.010346  0.099019  0.000204  3.943569  0.0
C  C362  1  0.58972345  0.51908182  0.56571726  1  -0.071921  0.00036  -0.011166  0.09717  0.000146  3.948563  0.0
C  C363  1  0.51915807  0.32538052  0.56566488  1  -0.077217  0.000359  -0.010726  0.097719  0.000146  3.949031  0.0
C  C364  1  0.32533793  0.58972310  0.56566794  1  -0.051025  0.000359  -0.0114  0.097098  0.000146  3.948734  0.0
C  C365  1  0.33699278  0.84058940  0.35769584  1  -0.113661  0.000507  -0.248566  -0.418364  0.000301  3.962635  0.0
C  C366  1  0.46473308  0.33697278  0.35766242  1  -0.135403  0.000511  -0.248651  -0.418501  0.000301  3.961941  0.0
C  C367  1  0.84058336  0.46473097  0.35766993  1  -0.111958  0.00051  -0.248646  -0.418785  0.000301  3.962716  0.0
C  C368  1  0.66767340  0.52730495  0.64355210  1  -0.066847  0.000593  -0.247909  -0.416555  0.00036  3.968149  0.0
C  C369  1  0.52743753  0.16137589  0.64346816  1  -0.115635  0.000605  -0.247931  -0.416701  0.000362  3.967919  0.0
C  C370  1  0.16133771  0.66765131  0.64349271  1  -0.044194  0.000595  -0.247733  -0.416375  0.000361  3.968022  0.0
C  C371  1  0.49829090  0.68210346  0.36186467  1  -0.074811  -4e-05  -0.244312  -0.421443  -6.7e-05  3.983405  0.0
C  C372  1  0.45764324  0.49834219  0.36184912  1  -0.093884  -4e-05  -0.244365  -0.421308  -6.7e-05  3.982971  0.0
C  C373  1  0.68208917  0.45769496  0.36183786  1  -0.092501  -4e-05  -0.244313  -0.421112  -6.7e-05  3.983608  0.0
C  C374  1  0.50427525  0.53908086  0.63916767  1  -0.039536  -5.2e-05  -0.244074  -0.419379  -7.8e-05  3.982726  0.0
C  C375  1  0.53913194  0.31738009  0.63912369  1  -0.055538  -5.3e-05  -0.244146  -0.419334  -7.8e-05  3.982998  0.0
C  C376  1  0.31730830  0.50428140  0.63912780  1  -0.061634  -5.3e-05  -0.244351  -0.419553  -7.9e-05  3.982629  0.0
C  C377  1  0.41011670  0.59096579  0.50044948  1  -0.591616  -0.000668  -0.01406  -0.25624  -0.00053  3.913585  0.0
C  C378  1  0.49836176  0.41014557  0.50045431  1  -0.602454  -0.000664  -0.014322  -0.256307  -0.000529  3.91389  0.0
C  C379  1  0.59096513  0.49834674  0.50046075  1  -0.613065  -0.000667  -0.014247  -0.256192  -0.000532  3.913099  0.0
N  N380  1  0.83227438  0.14646394  0.41466576  1  -1.242733  0.075329  -0.343531  -0.216587  0.04027  3.68117  0.054
N  N381  1  0.60665253  0.83220738  0.41471333  1  -1.215134  0.075367  -0.343432  -0.216669  0.04027  3.681618  0.054
N  N382  1  0.14636794  0.60664890  0.41463531  1  -1.234821  0.075218  -0.343009  -0.216195  0.040256  3.680519  0.054
N  N383  1  0.15997246  0.39441833  0.58775441  1  -1.231854  0.077669  -0.345197  -0.217663  0.041547  3.675452  0.055
N  N384  1  0.39447999  0.85777114  0.58774719  1  -1.228521  0.077756  -0.345181  -0.21791  0.041569  3.675589  0.055
N  N385  1  0.85788259  0.15998793  0.58771456  1  -1.234722  0.077667  -0.345117  -0.217639  0.041566  3.676237  0.055
N  N386  1  0.00336895  0.99269966  0.49802951  1  -1.235932  0.071502  -0.346608  -0.239957  0.037855  3.666086  0.051
N  N387  1  0.50590824  0.00330853  0.49810233  1  -1.239344  0.071249  -0.346637  -0.240125  0.037849  3.665593  0.051
N  N388  1  0.99268731  0.50585588  0.49807337  1  -1.247736  0.071594  -0.346437  -0.239676  0.037874  3.666685  0.052
N  N389  1  0.11343438  0.88771575  0.00261472  1  -1.231851  0.07421  -0.348383  -0.234764  0.039382  3.662763  0.052
N  N390  1  0.99630849  0.11335214  0.00262906  1  -1.262123  0.074464  -0.348592  -0.234835  0.039414  3.66233  0.052
N  N391  1  0.88775259  0.99627047  0.00265360  1  -1.245796  0.074065  -0.34811  -0.234035  0.039383  3.661844  0.052
Cl  Cl392  1  0.96758281  0.21256745  0.39882275  1  -0.712383  0.10846  -0.412051  -0.638435  0.052885  0.885904  0.085
Cl  Cl393  1  0.42106322  0.96753067  0.39888031  1  -0.712061  0.108436  -0.411991  -0.638459  0.05287  0.885958  0.085
Cl  Cl394  1  0.21252767  0.42107247  0.39883708  1  -0.711202  0.108435  -0.412011  -0.638415  0.052877  0.886309  0.085
Cl  Cl395  1  0.02111546  0.58954657  0.60758350  1  -0.659798  0.152888  -0.356778  -0.548858  0.081374  1.055262  0.104
Cl  Cl396  1  0.58968731  0.78166016  0.60756424  1  -0.660003  0.152986  -0.356966  -0.549166  0.081421  1.054977  0.104
Cl  Cl397  1  0.78170016  0.02114514  0.60755365  1  -0.659824  0.152898  -0.356834  -0.548905  0.081399  1.055084  0.104
Cl  Cl398  1  0.94556384  0.94547924  0.16353224  1  -0.646839  0.145723  -0.334182  -0.539076  0.077973  1.102188  0.099
Cl  Cl399  1  0.05039290  0.05042520  0.84886081  1  -0.714287  0.100035  -0.376989  -0.62366  0.049187  0.941938  0.078
