# generated using pymatgen
data_ZnCoH15C15SNO10
_symmetry_space_group_name_H-M   'P 1'
_cell_length_a   11.75783545
_cell_length_b   18.77495222
_cell_length_c   18.77485262
_cell_angle_alpha   90.00001786
_cell_angle_beta   89.99999341
_cell_angle_gamma   89.99991462
_symmetry_Int_Tables_number   1
_chemical_formula_structural   ZnCoH15C15SNO10
_chemical_formula_sum   'Zn8 Co8 H120 C120 S8 N8 O80'
_cell_volume   4144.60126347
_cell_formula_units_Z   8
loop_
 _symmetry_equiv_pos_site_id
 _symmetry_equiv_pos_as_xyz
  1  'x, y, z'
loop_
 _atom_site_type_symbol
 _atom_site_label
 _atom_site_symmetry_multiplicity
 _atom_site_fract_x
 _atom_site_fract_y
 _atom_site_fract_z
 _atom_site_occupancy
 _atom_site_pbe_bader_charge
 _atom_site_pbe_bader_spin_density
 _atom_site_pbe_cm5_charge
 _atom_site_pbe_ddec_charge
 _atom_site_pbe_ddec_spin_density
 _atom_site_pbe_ddec_sum_bond_order
 _atom_site_pbe_magmom
Zn  Zn0  1  0.35598302  0.71255667  0.21706226  1  1.314522  -6.1e-05  0.687198  0.934021  -0.00112  2.266766  0.0
Zn  Zn1  1  0.85597288  0.78293326  0.71255535  1  1.314628  -6.1e-05  0.687207  0.93413  -0.001124  2.266601  0.0
Zn  Zn2  1  0.35597412  0.28744410  0.78293720  1  1.314593  -5.9e-05  0.687211  0.934138  -0.00112  2.266578  0.0
Zn  Zn3  1  0.85597444  0.21706917  0.28744407  1  1.314639  -6.2e-05  0.687172  0.934036  -0.001126  2.266632  0.0
Zn  Zn4  1  0.35598374  0.78744269  0.71706300  1  1.314478  -5.9e-05  0.687169  0.934014  -0.00112  2.266622  0.0
Zn  Zn5  1  0.85597811  0.71706883  0.21255621  1  1.314499  -6.3e-05  0.687179  0.934105  -0.001129  2.266608  0.0
Zn  Zn6  1  0.35598276  0.21255807  0.28293433  1  1.314505  -6e-05  0.687165  0.933972  -0.001122  2.266644  0.0
Zn  Zn7  1  0.85597687  0.28293413  0.78744268  1  1.314475  -6.1e-05  0.687174  0.934057  -0.001123  2.266697  0.0
Co  Co8  1  0.18331589  0.84504923  0.17742948  1  1.348885  2.620076  0.649023  1.039778  2.819571  2.339696  2.606
Co  Co9  1  0.68331860  0.82257820  0.84505547  1  1.349005  2.620131  0.649122  1.03989  2.819668  2.339511  2.606
Co  Co10  1  0.18330899  0.15494531  0.82257425  1  1.348994  2.620087  0.649103  1.039859  2.81959  2.339697  2.606
Co  Co11  1  0.68332198  0.17742066  0.15494450  1  1.348973  2.620122  0.649094  1.039736  2.819688  2.339903  2.606
Co  Co12  1  0.18331436  0.65494763  0.67742645  1  1.348902  2.6201  0.649103  1.039885  2.819598  2.339492  2.606
Co  Co13  1  0.68332902  0.67740812  0.34506005  1  1.349232  2.620181  0.649126  1.039925  2.819797  2.339497  2.606
Co  Co14  1  0.18330881  0.34505331  0.32257089  1  1.349053  2.620119  0.649075  1.039915  2.819615  2.33947  2.606
Co  Co15  1  0.68332091  0.32258170  0.65494525  1  1.348998  2.62012  0.649085  1.039804  2.819678  2.339633  2.606
H  H16  1  0.90066062  0.72506302  0.49143350  1  0.076364  0.000298  0.106248  0.111013  7.4e-05  1.02808  0.0
H  H17  1  0.40066321  0.50856420  0.72506461  1  0.076392  0.000296  0.106264  0.111005  7.2e-05  1.028051  0.0
H  H18  1  0.90066030  0.27493671  0.50856486  1  0.076515  0.000297  0.106268  0.11102  7.3e-05  1.028047  0.0
H  H19  1  0.40065902  0.49143706  0.27493591  1  0.076503  0.000296  0.106289  0.111042  7.3e-05  1.027998  0.0
H  H20  1  0.90065881  0.77493273  0.99143211  1  0.076351  0.000297  0.106258  0.11101  7.3e-05  1.028076  0.0
H  H21  1  0.40066013  0.99143619  0.22506129  1  0.076457  0.000296  0.106252  0.111034  7.2e-05  1.02804  0.0
H  H22  1  0.90065530  0.22506433  0.00856625  1  0.07642  0.000297  0.106258  0.11101  7.3e-05  1.028168  0.0
H  H23  1  0.40065189  0.00856613  0.77493976  1  0.076403  0.000296  0.106251  0.111011  7.3e-05  1.028068  0.0
H  H24  1  0.30326064  0.77774092  0.44050423  1  0.083371  0.000238  0.111209  0.11985  0.0001  1.003781  0.0
H  H25  1  0.80325766  0.55949837  0.77774358  1  0.083524  0.000238  0.111188  0.119777  0.0001  1.003832  0.0
H  H26  1  0.30325788  0.22225883  0.55949629  1  0.083205  0.000238  0.111199  0.119832  0.0001  1.003849  0.0
H  H27  1  0.80325445  0.44050251  0.22225265  1  0.083414  0.000238  0.111179  0.119769  0.0001  1.00387  0.0
H  H28  1  0.30326151  0.72225910  0.94050229  1  0.083481  0.000238  0.111201  0.119822  0.0001  1.003788  0.0
H  H29  1  0.80325810  0.94050645  0.27774238  1  0.083221  0.000238  0.111207  0.119783  0.0001  1.003842  0.0
H  H30  1  0.30325531  0.27773906  0.05949611  1  0.083097  0.000238  0.11121  0.11983  0.0001  1.003876  0.0
H  H31  1  0.80324890  0.05949709  0.72225652  1  0.083352  0.000238  0.111169  0.119774  0.0001  1.003868  0.0
H  H32  1  0.36353951  0.87732671  0.05956064  1  0.101716  0.001327  0.123548  0.054473  0.000347  0.989392  0.001
H  H33  1  0.86353870  0.94044047  0.87732951  1  0.101552  0.001328  0.123525  0.054446  0.000346  0.989234  0.001
H  H34  1  0.36353862  0.12267193  0.94043935  1  0.101571  0.001327  0.123535  0.054456  0.000347  0.989408  0.001
H  H35  1  0.86353216  0.05955929  0.12267151  1  0.10163  0.001329  0.123544  0.05443  0.000347  0.989408  0.001
H  H36  1  0.36353806  0.62266675  0.55955814  1  0.101479  0.001326  0.123575  0.054486  0.000346  0.989344  0.001
H  H37  1  0.86352729  0.55955900  0.37733085  1  0.101607  0.001329  0.12357  0.054471  0.000346  0.989422  0.001
H  H38  1  0.36354262  0.37732922  0.44044025  1  0.101516  0.001327  0.12352  0.054434  0.000346  0.989219  0.001
H  H39  1  0.86354102  0.44043916  0.62267124  1  0.101508  0.001328  0.123537  0.054478  0.000347  0.989247  0.001
H  H40  1  0.10991529  0.93130420  0.96581545  1  0.074385  0.000268  0.108273  0.126186  0.000131  1.007803  0.0
H  H41  1  0.60991826  0.03418743  0.93130689  1  0.074462  0.000268  0.108246  0.126169  0.00013  1.007704  0.0
H  H42  1  0.10991896  0.06869520  0.03418723  1  0.074563  0.000268  0.10823  0.12616  0.000131  1.007761  0.0
H  H43  1  0.60991383  0.96581310  0.06869681  1  0.074501  0.000267  0.108249  0.126153  0.00013  1.007813  0.0
H  H44  1  0.10992002  0.56869281  0.46581146  1  0.074624  0.000268  0.108206  0.126091  0.000131  1.007812  0.0
H  H45  1  0.60991949  0.46581029  0.43130677  1  0.074643  0.000268  0.108229  0.126162  0.00013  1.007758  0.0
H  H46  1  0.10991678  0.43130499  0.53418322  1  0.074369  0.000268  0.108253  0.126147  0.00013  1.007781  0.0
H  H47  1  0.60992110  0.53418598  0.56869587  1  0.07444  0.000268  0.108228  0.126116  0.00013  1.007771  0.0
H  H48  1  0.16880884  0.89186172  0.88691096  1  0.063951  -7.6e-05  0.101338  0.117648  -7.8e-05  1.024183  0.0
H  H49  1  0.66881251  0.11309039  0.89186372  1  0.063972  -7.4e-05  0.101368  0.117743  -7.7e-05  1.024121  0.0
H  H50  1  0.16881240  0.10813870  0.11309171  1  0.0639  -7.5e-05  0.101349  0.117693  -7.8e-05  1.024143  0.0
H  H51  1  0.66880996  0.88690955  0.10813891  1  0.063929  -7.3e-05  0.101321  0.117639  -7.7e-05  1.024169  0.0
H  H52  1  0.16881178  0.60813735  0.38690699  1  0.063851  -7.5e-05  0.101371  0.117695  -7.8e-05  1.024132  0.0
H  H53  1  0.66881308  0.38690672  0.39186090  1  0.063908  -7.2e-05  0.101364  0.117718  -7.6e-05  1.024096  0.0
H  H54  1  0.16880861  0.39186093  0.61308929  1  0.063936  -7.5e-05  0.101335  0.117668  -7.8e-05  1.024189  0.0
H  H55  1  0.66881364  0.61308949  0.60813960  1  0.063937  -7.4e-05  0.101337  0.117714  -7.7e-05  1.024111  0.0
H  H56  1  0.19168964  0.98419590  0.90483068  1  0.104711  5.8e-05  0.104679  0.129063  -0.000116  1.020437  0.0
H  H57  1  0.69169173  0.09517344  0.98419946  1  0.105199  5.9e-05  0.10466  0.129001  -0.000115  1.020355  0.0
H  H58  1  0.19169427  0.01580289  0.09517198  1  0.104739  5.8e-05  0.104671  0.129041  -0.000116  1.020443  0.0
H  H59  1  0.69168746  0.90482915  0.01580424  1  0.104714  6e-05  0.10466  0.129051  -0.000115  1.020429  0.0
H  H60  1  0.19169025  0.51580049  0.40482456  1  0.105181  5.9e-05  0.104657  0.129031  -0.000116  1.020247  0.0
H  H61  1  0.69169226  0.40482315  0.48419984  1  0.105191  6.1e-05  0.104663  0.129064  -0.000114  1.020241  0.0
H  H62  1  0.19168941  0.48419724  0.59517119  1  0.104681  5.9e-05  0.104642  0.129034  -0.000116  1.020432  0.0
H  H63  1  0.69169118  0.59517198  0.51580279  1  0.104707  5.9e-05  0.104646  0.129011  -0.000115  1.020447  0.0
H  H64  1  0.38485032  0.87812416  0.88315166  1  0.117363  0.000158  0.107609  0.139992  -2e-06  1.009128  0.0
H  H65  1  0.88485312  0.11684796  0.87812459  1  0.117373  0.00016  0.107606  0.140049  -1e-06  1.009118  0.0
H  H66  1  0.38485384  0.12187658  0.11684992  1  0.11735  0.000158  0.107624  0.14004  -2e-06  1.009102  0.0
H  H67  1  0.88485058  0.88315179  0.12187590  1  0.117357  0.00016  0.107641  0.140072  -1e-06  1.009093  0.0
H  H68  1  0.38485408  0.62187417  0.38314876  1  0.117329  0.000159  0.107614  0.140072  -2e-06  1.009112  0.0
H  H69  1  0.88485370  0.38315055  0.37812443  1  0.117342  0.000162  0.107645  0.140063  -0.0  1.009154  0.0
H  H70  1  0.38485434  0.37812604  0.61684910  1  0.117346  0.000159  0.107627  0.140075  -2e-06  1.009105  0.0
H  H71  1  0.88485510  0.61684866  0.62187499  1  0.117396  0.000159  0.107609  0.140051  -1e-06  1.009103  0.0
H  H72  1  0.46097656  0.89322404  0.96329077  1  0.08771  0.000121  0.111019  0.132379  -4.8e-05  1.000825  0.0
H  H73  1  0.96097777  0.03671297  0.89322403  1  0.087739  0.000121  0.111025  0.132443  -4.8e-05  1.000796  0.0
H  H74  1  0.46097757  0.10677556  0.03671081  1  0.087681  0.000121  0.110997  0.132396  -4.8e-05  1.000786  0.0
H  H75  1  0.96097419  0.96328884  0.10677486  1  0.08777  0.000121  0.111049  0.132376  -4.8e-05  1.000911  0.0
H  H76  1  0.46097694  0.60677157  0.46328467  1  0.087815  0.000121  0.111025  0.132366  -4.8e-05  1.001014  0.0
H  H77  1  0.96097731  0.46328601  0.39322443  1  0.087779  0.000121  0.111048  0.132413  -4.8e-05  1.000825  0.0
H  H78  1  0.46097889  0.39322590  0.53671478  1  0.087761  0.000121  0.11103  0.132393  -4.8e-05  1.000895  0.0
H  H79  1  0.96097976  0.53671313  0.60677392  1  0.087738  0.000121  0.111017  0.132389  -4.8e-05  1.000861  0.0
H  H80  1  0.41178459  0.96744209  0.91168026  1  0.007738  -8e-06  0.099862  0.114027  -5e-05  0.997976  0.0
H  H81  1  0.91179093  0.08832378  0.96744033  1  0.00806  -6e-06  0.099896  0.114143  -4.9e-05  0.997948  0.0
H  H82  1  0.41178918  0.03255916  0.08832079  1  0.007733  -7e-06  0.099865  0.114053  -5e-05  0.998019  0.0
H  H83  1  0.91178579  0.91167806  0.03255855  1  0.007715  -6e-06  0.099854  0.114031  -4.9e-05  0.998009  0.0
H  H84  1  0.41179196  0.53255729  0.41167307  1  0.007964  -8e-06  0.099889  0.11418  -5e-05  0.99786  0.0
H  H85  1  0.91179144  0.41167473  0.46744072  1  0.00809  -5e-06  0.099867  0.114052  -4.8e-05  0.997909  0.0
H  H86  1  0.41178947  0.46744024  0.58832372  1  0.007811  -7e-06  0.099883  0.114096  -5e-05  0.997999  0.0
H  H87  1  0.91179038  0.58832233  0.53255870  1  0.008054  -6e-06  0.099882  0.114109  -4.9e-05  0.997994  0.0
H  H88  1  0.04979987  0.07389528  0.27086339  1  0.1324  -1.9e-05  0.107013  0.180941  -6.3e-05  1.002562  0.0
H  H89  1  0.54980441  0.72913823  0.07389362  1  0.132426  -1.9e-05  0.106973  0.180867  -6.3e-05  1.002718  0.0
H  H90  1  0.04980137  0.92610684  0.72913716  1  0.132403  -1.9e-05  0.107001  0.180944  -6.3e-05  1.002603  0.0
H  H91  1  0.54980147  0.27085970  0.92610689  1  0.132403  -1.9e-05  0.10698  0.180867  -6.3e-05  1.002614  0.0
H  H92  1  0.04979941  0.42610451  0.77086257  1  0.13238  -1.9e-05  0.107006  0.180913  -6.3e-05  1.002657  0.0
H  H93  1  0.54980771  0.77085878  0.57389062  1  0.132488  -1.9e-05  0.106987  0.180847  -6.3e-05  1.00271  0.0
H  H94  1  0.04979588  0.57389814  0.22913797  1  0.132308  -1.9e-05  0.107034  0.180963  -6.3e-05  1.002631  0.0
H  H95  1  0.54980837  0.22913967  0.42610562  1  0.132508  -1.9e-05  0.107  0.1809  -6.3e-05  1.002668  0.0
H  H96  1  0.19829573  0.08242253  0.24535533  1  0.10479  -0.000108  0.104212  0.167477  -0.000148  1.007074  0.0
H  H97  1  0.69830025  0.75464502  0.08241991  1  0.104822  -0.000108  0.104211  0.16746  -0.000149  1.007143  0.0
H  H98  1  0.19829724  0.91757786  0.75464414  1  0.104804  -0.000108  0.104209  0.167476  -0.000148  1.007079  0.0
H  H99  1  0.69829907  0.24535330  0.91757952  1  0.10482  -0.000108  0.104194  0.167423  -0.000148  1.007105  0.0
H  H100  1  0.19829359  0.41757872  0.74535611  1  0.104606  -0.000108  0.10423  0.167473  -0.000148  1.007136  0.0
H  H101  1  0.69830361  0.74535186  0.58241691  1  0.104755  -0.000108  0.104189  0.167394  -0.000148  1.0072  0.0
H  H102  1  0.19829003  0.58242540  0.25464656  1  0.104595  -0.000108  0.104248  0.167509  -0.000148  1.007093  0.0
H  H103  1  0.69830251  0.25464593  0.41758092  1  0.104756  -0.000108  0.104192  0.167413  -0.000148  1.007208  0.0
H  H104  1  0.15950202  0.08170192  0.33737576  1  0.100498  0.001712  0.110454  0.17626  0.000626  0.959068  0.001
H  H105  1  0.65950495  0.66262669  0.08169713  1  0.100598  0.001714  0.11038  0.176096  0.000627  0.959167  0.001
H  H106  1  0.15950270  0.91830117  0.66262584  1  0.100583  0.001713  0.110474  0.17626  0.000626  0.959064  0.001
H  H107  1  0.65950100  0.33737113  0.91830178  1  0.100648  0.001715  0.110418  0.17615  0.000628  0.959192  0.001
H  H108  1  0.15949987  0.41830045  0.83737388  1  0.100572  0.001712  0.110426  0.176201  0.000626  0.95911  0.001
H  H109  1  0.65950555  0.83736916  0.58169735  1  0.100706  0.001717  0.110376  0.176078  0.000628  0.959068  0.001
H  H110  1  0.15949804  0.58170210  0.16262879  1  0.100622  0.001713  0.110432  0.17621  0.000627  0.95911  0.001
H  H111  1  0.65950636  0.16262920  0.41830155  1  0.100614  0.001714  0.110409  0.176143  0.000627  0.959177  0.001
H  H112  1  0.96682303  0.97397225  0.33316651  1  0.163885  0.000122  0.104873  0.17947  7.2e-05  1.030916  0.0
H  H113  1  0.46682399  0.66683678  0.97397418  1  0.163861  0.000122  0.104918  0.17952  7.2e-05  1.03085  0.0
H  H114  1  0.96682582  0.02602688  0.66683450  1  0.163913  0.000122  0.104905  0.179505  7.2e-05  1.030908  0.0
H  H115  1  0.46682447  0.33316335  0.02602634  1  0.163872  0.000122  0.10493  0.179536  7.2e-05  1.030836  0.0
H  H116  1  0.96682266  0.52602605  0.83316611  1  0.163851  0.000122  0.104871  0.17946  7.2e-05  1.030943  0.0
H  H117  1  0.46683064  0.83317002  0.47397081  1  0.164042  0.000123  0.104969  0.179579  7.2e-05  1.030909  0.0
H  H118  1  0.96682278  0.47397095  0.16683171  1  0.163933  0.000122  0.104905  0.17952  7.2e-05  1.030891  0.0
H  H119  1  0.46682632  0.16683491  0.52602864  1  0.16395  0.000122  0.104905  0.179476  7.2e-05  1.030951  0.0
H  H120  1  0.07224852  0.95789275  0.40136735  1  0.095783  0.000403  0.107809  0.165465  0.000136  0.968549  0.0
H  H121  1  0.57224909  0.59863736  0.95789148  1  0.095718  0.000401  0.107856  0.165545  0.000135  0.968507  0.0
H  H122  1  0.07224874  0.04210935  0.59863533  1  0.095869  0.000403  0.107853  0.165527  0.000135  0.968508  0.0
H  H123  1  0.57224600  0.40136268  0.04210903  1  0.095749  0.000401  0.107854  0.165537  0.000135  0.968535  0.0
H  H124  1  0.07224726  0.54210908  0.90136481  1  0.095684  0.000403  0.107846  0.165535  0.000135  0.968476  0.0
H  H125  1  0.57225983  0.90136242  0.45788654  1  0.096578  0.000399  0.107846  0.165482  0.000134  0.968646  0.0
H  H126  1  0.07224999  0.45788930  0.09863626  1  0.095876  0.000402  0.107857  0.165542  0.000135  0.968551  0.0
H  H127  1  0.57224972  0.09863762  0.54211131  1  0.09593  0.000401  0.107862  0.165535  0.000135  0.968563  0.0
H  H128  1  0.03305942  0.88635862  0.34292373  1  0.129971  2e-06  0.106597  0.175847  -6.6e-05  1.001026  0.0
H  H129  1  0.53305644  0.65707906  0.88635804  1  0.130024  2e-06  0.106601  0.175852  -6.6e-05  1.00111  0.0
H  H130  1  0.03305776  0.11364139  0.65707841  1  0.130051  2e-06  0.106586  0.175813  -6.6e-05  1.001093  0.0
H  H131  1  0.53305433  0.34292101  0.11364247  1  0.129973  2e-06  0.106594  0.175843  -6.6e-05  1.00116  0.0
H  H132  1  0.03305630  0.61364109  0.84292069  1  0.129962  2e-06  0.106586  0.17582  -6.6e-05  1.001068  0.0
H  H133  1  0.53306477  0.84292233  0.38635308  1  0.129981  2e-06  0.106602  0.175852  -6.6e-05  1.001103  0.0
H  H134  1  0.03306344  0.38635838  0.15707985  1  0.129976  2e-06  0.106613  0.175871  -6.6e-05  1.000992  0.0
H  H135  1  0.53305791  0.15707934  0.61364370  1  0.129989  2e-06  0.106605  0.175839  -6.6e-05  1.001076  0.0
C  C136  1  0.19073826  0.75602852  0.32052992  1  1.614548  -0.001652  0.224677  0.616578  -0.002917  4.168745  -0.001
C  C137  1  0.69072490  0.67947476  0.75603638  1  1.615127  -0.00167  0.224654  0.616283  -0.002936  4.168755  -0.001
C  C138  1  0.19073033  0.24396708  0.67947114  1  1.614792  -0.001658  0.224675  0.616367  -0.002923  4.168771  -0.001
C  C139  1  0.69072452  0.32053209  0.24395986  1  1.615194  -0.001672  0.224845  0.616653  -0.002937  4.168511  -0.001
C  C140  1  0.19073568  0.74396518  0.82052746  1  1.615216  -0.001657  0.224851  0.616589  -0.002921  4.168479  -0.001
C  C141  1  0.69072393  0.82053176  0.25603993  1  1.614961  -0.001677  0.224845  0.616797  -0.002942  4.168441  -0.001
C  C142  1  0.19073121  0.25602988  0.17946988  1  1.614449  -0.001661  0.224656  0.616401  -0.002925  4.168851  -0.001
C  C143  1  0.69072464  0.17947189  0.74396377  1  1.614958  -0.001666  0.224715  0.616415  -0.002931  4.168751  -0.001
C  C144  1  0.14030211  0.75208393  0.39445913  1  -0.021645  0.002236  0.000765  -0.023874  0.000381  3.912047  0.002
C  C145  1  0.64029734  0.60554330  0.75209066  1  -0.021717  0.002276  0.000691  -0.023814  0.000415  3.911997  0.002
C  C146  1  0.14030013  0.24791278  0.60554247  1  -0.021533  0.00226  0.000737  -0.023803  0.000401  3.911922  0.002
C  C147  1  0.64029338  0.39446093  0.24790611  1  -0.021263  0.002274  0.000723  -0.023818  0.000413  3.912191  0.002
C  C148  1  0.14029866  0.74791143  0.89445826  1  -0.021569  0.00226  0.00072  -0.023847  0.0004  3.911797  0.002
C  C149  1  0.64029619  0.89446060  0.25209051  1  -0.021422  0.00228  0.00078  -0.023797  0.000419  3.912014  0.002
C  C150  1  0.14029337  0.25208368  0.10553855  1  -0.022395  0.002254  0.000766  -0.023736  0.000395  3.91195  0.002
C  C151  1  0.64028943  0.10554150  0.74791106  1  -0.021431  0.002275  0.000709  -0.023802  0.000414  3.912032  0.002
C  C152  1  0.02611869  0.73553428  0.41017910  1  0.027645  0.007063  -0.010689  -0.052137  0.00358  3.944276  0.005
C  C153  1  0.52611308  0.58982188  0.73554087  1  0.027441  0.007046  -0.010598  -0.05207  0.003576  3.944138  0.005
C  C154  1  0.02611583  0.26446200  0.58982145  1  0.027463  0.007053  -0.010643  -0.052066  0.003578  3.944254  0.005
C  C155  1  0.52611078  0.41017927  0.26445858  1  0.027408  0.007045  -0.010652  -0.052173  0.003574  3.94435  0.005
C  C156  1  0.02611436  0.76446173  0.91017823  1  0.027397  0.007054  -0.010614  -0.051975  0.003578  3.944138  0.005
C  C157  1  0.52611444  0.91018107  0.23553806  1  0.02746  0.007044  -0.01063  -0.05212  0.003575  3.944311  0.005
C  C158  1  0.02611081  0.23553402  0.08982178  1  0.027657  0.007056  -0.010649  -0.052105  0.003578  3.944365  0.005
C  C159  1  0.52610771  0.08982114  0.76446086  1  0.027684  0.007047  -0.010677  -0.052315  0.003576  3.94434  0.005
C  C160  1  0.98980542  0.73654050  0.48102862  1  -0.0183  -0.001362  -0.078555  -0.115315  -0.001648  3.953336  -0.001
C  C161  1  0.48980631  0.51897218  0.73654646  1  -0.018169  -0.001326  -0.078562  -0.115332  -0.001609  3.953342  -0.001
C  C162  1  0.98980512  0.26345808  0.51897292  1  -0.018418  -0.001341  -0.078572  -0.115311  -0.001625  3.953255  -0.001
C  C163  1  0.48980214  0.48102847  0.26345619  1  -0.018375  -0.001325  -0.078553  -0.115375  -0.001607  3.953227  -0.001
C  C164  1  0.98980364  0.76345623  0.98102669  1  -0.018284  -0.001343  -0.078612  -0.115466  -0.001628  3.953304  -0.001
C  C165  1  0.48980410  0.98103027  0.23653888  1  -0.018374  -0.001319  -0.078581  -0.115479  -0.001601  3.953415  -0.001
C  C166  1  0.98979840  0.23653969  0.01897272  1  -0.018439  -0.001348  -0.078606  -0.11548  -0.001633  3.95345  -0.001
C  C167  1  0.48979839  0.01897038  0.76345951  1  -0.018402  -0.001327  -0.078548  -0.115259  -0.00161  3.95323  -0.001
C  C168  1  0.06339933  0.75036468  0.53754681  1  -0.026576  0.003826  -0.001987  -0.025189  0.001515  3.926235  0.003
C  C169  1  0.56339900  0.46245589  0.75037132  1  -0.026654  0.003811  -0.002013  -0.025164  0.001509  3.926208  0.003
C  C170  1  0.06339738  0.24963477  0.46245373  1  -0.026732  0.003819  -0.002069  -0.025299  0.001512  3.926185  0.003
C  C171  1  0.56339896  0.53754469  0.24963185  1  -0.026674  0.003803  -0.002022  -0.025049  0.001506  3.926128  0.003
C  C172  1  0.06339683  0.74963384  0.03754448  1  -0.02688  0.003822  -0.001956  -0.025031  0.001514  3.926001  0.003
C  C173  1  0.56339870  0.03754767  0.25035987  1  -0.026737  0.003806  -0.001975  -0.024968  0.001507  3.926107  0.003
C  C174  1  0.06339479  0.25036454  0.96245606  1  -0.026916  0.003821  -0.001914  -0.024976  0.001513  3.926079  0.003
C  C175  1  0.56339500  0.96245503  0.74963637  1  -0.026766  0.00381  -0.002008  -0.025154  0.001509  3.926315  0.003
C  C176  1  0.17831843  0.76475188  0.52229502  1  -0.002975  -0.002528  -0.010674  -0.049307  -0.003137  3.955903  -0.002
C  C177  1  0.67831809  0.47770701  0.76475652  1  -0.00306  -0.002481  -0.010604  -0.049358  -0.003085  3.95588  -0.002
C  C178  1  0.17831566  0.23524799  0.47770551  1  -0.002755  -0.0025  -0.010654  -0.049282  -0.003106  3.955807  -0.002
C  C179  1  0.67831639  0.52229612  0.23524238  1  -0.003337  -0.002485  -0.010569  -0.049336  -0.003088  3.955834  -0.002
C  C180  1  0.17831596  0.73524973  0.02229323  1  -0.002607  -0.002501  -0.010658  -0.049424  -0.003107  3.955839  -0.002
C  C181  1  0.67831698  0.02229539  0.26474880  1  -0.00281  -0.002473  -0.010622  -0.049453  -0.003076  3.955978  -0.002
C  C182  1  0.17831303  0.26474908  0.97770518  1  -0.002603  -0.002509  -0.010621  -0.049358  -0.003116  3.955923  -0.002
C  C183  1  0.67831070  0.97770561  0.73524585  1  -0.002781  -0.002482  -0.010601  -0.049299  -0.003086  3.955879  -0.002
C  C184  1  0.21402144  0.76619047  0.45108435  1  0.02949  0.002791  -0.07725  -0.119037  0.001307  3.929033  0.002
C  C185  1  0.71401931  0.54891836  0.76619409  1  0.029443  0.002778  -0.077192  -0.118894  0.001301  3.928912  0.002
C  C186  1  0.21402036  0.23380990  0.54891672  1  0.029635  0.002784  -0.077194  -0.118966  0.001304  3.928881  0.002
C  C187  1  0.71401522  0.45108367  0.23380161  1  0.0292  0.002777  -0.077253  -0.119019  0.0013  3.929064  0.002
C  C188  1  0.21402313  0.73381070  0.95108294  1  0.029321  0.002784  -0.077211  -0.118958  0.001304  3.928895  0.002
C  C189  1  0.71402058  0.95108655  0.26619129  1  0.029591  0.002774  -0.077261  -0.118908  0.001299  3.929064  0.002
C  C190  1  0.21402036  0.26618700  0.04891546  1  0.030339  0.002786  -0.077301  -0.119074  0.001305  3.928997  0.002
C  C191  1  0.71401395  0.04891602  0.73380548  1  0.029215  0.002778  -0.07717  -0.118894  0.001301  3.928898  0.002
C  C192  1  0.94008031  0.71487281  0.35520979  1  1.564629  -0.000383  0.219198  0.592362  -0.002062  4.177745  0.001
C  C193  1  0.44007677  0.64478770  0.71486801  1  1.564613  -0.000249  0.219307  0.592578  -0.001928  4.177454  0.001
C  C194  1  0.94007910  0.28512955  0.64478856  1  1.564532  -0.000299  0.219189  0.592243  -0.001979  4.17779  0.001
C  C195  1  0.44007545  0.35521406  0.28512718  1  1.564505  -0.000268  0.219364  0.592767  -0.001946  4.177225  0.001
C  C196  1  0.94008018  0.78513192  0.85521053  1  1.564576  -0.0003  0.219166  0.592255  -0.001981  4.177707  0.001
C  C197  1  0.44007486  0.85521319  0.21486412  1  1.564733  -0.000232  0.219388  0.592663  -0.00191  4.177427  0.001
C  C198  1  0.94007667  0.21486724  0.14479102  1  1.564637  -0.000322  0.219156  0.592306  -0.002004  4.177585  0.001
C  C199  1  0.44006970  0.14478697  0.78513586  1  1.564737  -0.000253  0.219383  0.592757  -0.001932  4.177295  0.001
C  C200  1  0.00776154  0.74748056  0.60956069  1  1.569965  -0.000356  0.2236  0.599573  -0.000875  4.14166  0.0
C  C201  1  0.50776895  0.39043922  0.74748820  1  1.570063  -0.000324  0.223591  0.599734  -0.000841  4.14169  0.0
C  C202  1  0.00775875  0.25252107  0.39044039  1  1.57  -0.000347  0.223597  0.599545  -0.000865  4.141733  0.0
C  C203  1  0.50776448  0.60956034  0.25251977  1  1.570029  -0.000277  0.223543  0.599482  -0.000786  4.141566  0.0
C  C204  1  0.00776073  0.75251751  0.10955837  1  1.569977  -0.000364  0.223723  0.599832  -0.000886  4.141561  0.0
C  C205  1  0.50777018  0.10956439  0.24747944  1  1.569957  -0.000307  0.22345  0.599347  -0.000821  4.14172  0.0
C  C206  1  0.00776381  0.24748092  0.89044112  1  1.569987  -0.000355  0.223655  0.599801  -0.000875  4.141276  0.0
C  C207  1  0.50776155  0.89043996  0.75252001  1  1.56999  -0.000322  0.223516  0.599477  -0.000837  4.141743  0.0
C  C208  1  0.26689934  0.77816173  0.57806430  1  1.535453  0.00427  0.208741  0.568393  0.002563  4.20586  0.004
C  C209  1  0.76690334  0.42193958  0.77816061  1  1.535053  0.004272  0.208715  0.568487  0.002565  4.2059  0.004
C  C210  1  0.26689831  0.22183806  0.42193623  1  1.535021  0.004271  0.208814  0.568512  0.002564  4.205939  0.004
C  C211  1  0.76690491  0.57806027  0.22183669  1  1.535086  0.004268  0.208891  0.568732  0.002561  4.205999  0.004
C  C212  1  0.26690541  0.72184300  0.07805930  1  1.534888  0.004274  0.208698  0.568366  0.002565  4.20606  0.004
C  C213  1  0.76690549  0.07806060  0.27816036  1  1.534511  0.004272  0.208806  0.568556  0.002564  4.205913  0.004
C  C214  1  0.26689820  0.27815945  0.92194016  1  1.535315  0.004271  0.208796  0.568495  0.002564  4.205929  0.004
C  C215  1  0.76689765  0.92193978  0.72183854  1  1.535516  0.004271  0.208882  0.568657  0.002564  4.205802  0.004
C  C216  1  0.28028607  0.89189349  0.03670028  1  1.361723  -0.001825  0.171378  0.288024  -0.002281  4.110386  -0.001
C  C217  1  0.78028525  0.96330183  0.89190273  1  1.362426  -0.001817  0.171486  0.288217  -0.002272  4.110265  -0.001
C  C218  1  0.28028351  0.10810522  0.96329758  1  1.36191  -0.001824  0.171369  0.288053  -0.00228  4.110356  -0.001
C  C219  1  0.78027792  0.03669961  0.10810309  1  1.362009  -0.001815  0.171383  0.288136  -0.00227  4.110384  -0.001
C  C220  1  0.28028891  0.60810057  0.53669831  1  1.36202  -0.001823  0.171377  0.288159  -0.002279  4.110077  -0.001
C  C221  1  0.78028325  0.53669773  0.39190034  1  1.362011  -0.001812  0.171404  0.288129  -0.002267  4.110221  -0.001
C  C222  1  0.28028492  0.39189814  0.46330276  1  1.362125  -0.00182  0.171374  0.288  -0.002276  4.110274  -0.001
C  C223  1  0.78028672  0.46330157  0.60810282  1  1.362011  -0.001819  0.171411  0.288115  -0.002274  4.110209  -0.001
C  C224  1  0.18238102  0.93138086  0.92922661  1  0.235287  0.00047  -0.137996  -0.275113  0.000247  3.858808  0.0
C  C225  1  0.68238308  0.07077604  0.93138413  1  0.234738  0.00047  -0.137921  -0.275008  0.000247  3.858492  0.0
C  C226  1  0.18238127  0.06861794  0.07077553  1  0.235207  0.00047  -0.13793  -0.275045  0.000247  3.858599  0.0
C  C227  1  0.68238044  0.92922602  0.06861903  1  0.235297  0.00047  -0.137902  -0.274969  0.000247  3.858694  0.0
C  C228  1  0.18238405  0.56861554  0.42922316  1  0.234813  0.00047  -0.137926  -0.274965  0.000247  3.8585  0.0
C  C229  1  0.68238525  0.42922268  0.43138292  1  0.234757  0.000469  -0.137941  -0.275119  0.000248  3.85849  0.0
C  C230  1  0.18238164  0.43138219  0.57077525  1  0.23529  0.00047  -0.137917  -0.275075  0.000247  3.858716  0.0
C  C231  1  0.68238252  0.57077566  0.56861811  1  0.235202  0.00047  -0.137882  -0.274978  0.000248  3.858531  0.0
C  C232  1  0.39160747  0.91311280  0.92972780  1  0.277918  0.001077  -0.132966  -0.282665  0.000474  3.878894  0.001
C  C233  1  0.89160952  0.07027314  0.91311394  1  0.277503  0.001077  -0.13299  -0.282894  0.000474  3.878919  0.001
C  C234  1  0.39161024  0.08688740  0.07027272  1  0.277888  0.001077  -0.132926  -0.282713  0.000474  3.878776  0.001
C  C235  1  0.89160688  0.92972660  0.08688655  1  0.277887  0.001077  -0.133009  -0.282719  0.000475  3.879087  0.001
C  C236  1  0.39160706  0.58688340  0.42972489  1  0.277526  0.001077  -0.132993  -0.282922  0.000474  3.879175  0.001
C  C237  1  0.89160489  0.42972644  0.41311220  1  0.277541  0.001077  -0.133005  -0.282787  0.000475  3.878955  0.001
C  C238  1  0.39160725  0.41311414  0.57027350  1  0.277752  0.001077  -0.13297  -0.282873  0.000474  3.879119  0.001
C  C239  1  0.89160981  0.57027276  0.58688616  1  0.277488  0.001077  -0.132946  -0.282798  0.000474  3.878921  0.001
C  C240  1  0.13814948  0.06087364  0.28434098  1  -0.260215  0.006798  -0.22805  -0.49127  0.003576  3.788964  0.005
C  C241  1  0.63815062  0.71566172  0.06087141  1  -0.260647  0.006805  -0.227956  -0.490971  0.003579  3.789175  0.005
C  C242  1  0.13814925  0.93912840  0.71566115  1  -0.260225  0.0068  -0.228026  -0.491213  0.003577  3.78906  0.005
C  C243  1  0.63815020  0.28433772  0.93913016  1  -0.260284  0.006808  -0.227931  -0.490939  0.003581  3.789072  0.005
C  C244  1  0.13814728  0.43912821  0.78433911  1  -0.260053  0.006799  -0.228016  -0.491125  0.003576  3.789118  0.005
C  C245  1  0.63815389  0.78433467  0.56086522  1  -0.260626  0.006812  -0.227931  -0.490872  0.003584  3.789133  0.005
C  C246  1  0.13814464  0.56087330  0.21566249  1  -0.260084  0.0068  -0.22808  -0.491266  0.003577  3.789184  0.005
C  C247  1  0.63815373  0.21566210  0.43912996  1  -0.260671  0.006804  -0.22799  -0.491028  0.003579  3.789285  0.005
C  C248  1  0.04371948  0.94411322  0.34737704  1  -0.304819  0.004097  -0.231634  -0.498497  0.001976  3.787615  0.003
C  C249  1  0.54371656  0.65262526  0.94411135  1  -0.304748  0.004098  -0.231712  -0.498612  0.001976  3.787598  0.003
C  C250  1  0.04371965  0.05588837  0.65262510  1  -0.30494  0.004098  -0.231686  -0.498549  0.001976  3.787712  0.003
C  C251  1  0.54371616  0.34737427  0.05588969  1  -0.304729  0.004099  -0.231701  -0.498601  0.001976  3.787736  0.003
C  C252  1  0.04371564  0.55588808  0.84737558  1  -0.304683  0.004097  -0.231645  -0.498494  0.001976  3.787574  0.003
C  C253  1  0.54372828  0.84737507  0.44410799  1  -0.305801  0.0041  -0.231753  -0.49862  0.001977  3.787804  0.003
C  C254  1  0.04372094  0.44411192  0.15262497  1  -0.304899  0.004098  -0.231717  -0.498646  0.001976  3.787671  0.003
C  C255  1  0.54372059  0.15262712  0.55588985  1  -0.304996  0.004098  -0.231739  -0.498576  0.001976  3.787724  0.003
S  S256  1  0.15715360  0.96607220  0.28682317  1  1.144918  0.003953  0.292348  0.667591  0.001208  3.952382  -0.001
S  S257  1  0.65715403  0.71317876  0.96606892  1  1.145314  0.003957  0.292352  0.66755  0.00121  3.952286  -0.001
S  S258  1  0.15715552  0.03392982  0.71317843  1  1.144958  0.003954  0.292368  0.667578  0.001208  3.952279  -0.001
S  S259  1  0.65715548  0.28682333  0.03393211  1  1.144635  0.003965  0.292337  0.667505  0.001212  3.95226  -0.001
S  S260  1  0.15715237  0.53392897  0.78682117  1  1.145023  0.003954  0.292291  0.667414  0.001209  3.952522  -0.001
S  S261  1  0.65716080  0.78682094  0.46606501  1  1.145347  0.003969  0.292467  0.667736  0.001215  3.952428  -0.001
S  S262  1  0.15715335  0.46607412  0.21317884  1  1.145029  0.003957  0.292325  0.667607  0.00121  3.952494  -0.001
S  S263  1  0.65715807  0.21317955  0.53393176  1  1.145279  0.003958  0.29241  0.667675  0.001211  3.95235  -0.001
N  N264  1  0.28471109  0.91277571  0.96886153  1  -1.207674  0.002174  -0.278398  0.037553  0.000743  3.727901  0.002
N  N265  1  0.78471149  0.03113967  0.91278158  1  -1.208393  0.002203  -0.278502  0.037371  0.000766  3.728124  0.002
N  N266  1  0.28470961  0.08722406  0.03113900  1  -1.207786  0.002182  -0.278447  0.037433  0.000749  3.727649  0.002
N  N267  1  0.78471045  0.96886123  0.08722211  1  -1.207719  0.002212  -0.278438  0.037421  0.000773  3.727976  0.002
N  N268  1  0.28471068  0.58721741  0.46885862  1  -1.207972  0.002182  -0.278484  0.037383  0.000749  3.727897  0.002
N  N269  1  0.78470676  0.46885841  0.41277932  1  -1.207794  0.002235  -0.278409  0.037561  0.00079  3.727985  0.002
N  N270  1  0.28471003  0.41277756  0.53114084  1  -1.207762  0.002186  -0.278459  0.037665  0.000753  3.728037  0.002
N  N271  1  0.78471093  0.53113929  0.58722224  1  -1.207933  0.0022  -0.278478  0.037461  0.000764  3.727794  0.002
O  O272  1  0.17252651  0.81141774  0.28455096  1  -1.172158  0.042925  -0.297058  -0.574598  0.021898  2.429485  0.039
O  O273  1  0.67249530  0.71545356  0.81142057  1  -1.17247  0.04286  -0.297056  -0.574539  0.021862  2.429551  0.038
O  O274  1  0.17251190  0.18858107  0.71545331  1  -1.172177  0.042908  -0.297053  -0.574599  0.021889  2.429462  0.039
O  O275  1  0.67250438  0.28454957  0.18857514  1  -1.17245  0.042842  -0.297076  -0.574609  0.02185  2.429347  0.038
O  O276  1  0.17251726  0.68857649  0.78454847  1  -1.172349  0.042917  -0.297106  -0.574663  0.021892  2.429363  0.039
O  O277  1  0.67249952  0.78455672  0.31142678  1  -1.172549  0.04278  -0.297082  -0.574774  0.02182  2.42936  0.038
O  O278  1  0.17250075  0.31141806  0.21544834  1  -1.172099  0.042908  -0.297071  -0.574638  0.021885  2.429565  0.039
O  O279  1  0.67250186  0.21544854  0.68857639  1  -1.172292  0.042861  -0.297076  -0.574592  0.021862  2.429358  0.038
O  O280  1  0.25670030  0.70434313  0.30337186  1  -1.167473  -0.000358  -0.313021  -0.554651  -0.000947  2.312848  0.0
O  O281  1  0.75668600  0.69662896  0.70434809  1  -1.167753  -0.000371  -0.313031  -0.554537  -0.000959  2.312783  0.0
O  O282  1  0.25669309  0.29565241  0.69662601  1  -1.167746  -0.00036  -0.313041  -0.55452  -0.000949  2.312798  0.0
O  O283  1  0.75668991  0.30337836  0.29564761  1  -1.167804  -0.000375  -0.313254  -0.554821  -0.000962  2.312821  0.0
O  O284  1  0.25669504  0.79565050  0.80337313  1  -1.167872  -0.000358  -0.313135  -0.554621  -0.000948  2.312806  0.0
O  O285  1  0.75668082  0.80337056  0.20435004  1  -1.167639  -0.000384  -0.313245  -0.554884  -0.00097  2.312698  0.0
O  O286  1  0.25669750  0.20434717  0.19662580  1  -1.167396  -0.000364  -0.312961  -0.554471  -0.000952  2.312844  0.0
O  O287  1  0.75668659  0.19663036  0.79565046  1  -1.167739  -0.000367  -0.313085  -0.554581  -0.000956  2.312829  0.0
O  O288  1  0.96924640  0.72004297  0.28988624  1  -1.155233  0.002546  -0.303503  -0.521625  0.000745  2.35478  0.002
O  O289  1  0.46924532  0.71011035  0.72003983  1  -1.155146  0.002653  -0.303485  -0.521628  0.000808  2.354869  0.002
O  O290  1  0.96924518  0.27995776  0.71011158  1  -1.155199  0.002612  -0.303435  -0.521524  0.000784  2.354877  0.002
O  O291  1  0.46924331  0.28989191  0.27995962  1  -1.155059  0.002636  -0.303513  -0.521698  0.000798  2.354777  0.002
O  O292  1  0.96924118  0.77996118  0.78988591  1  -1.155397  0.002613  -0.303524  -0.521663  0.000784  2.354715  0.002
O  O293  1  0.46924102  0.78988944  0.22003699  1  -1.155087  0.002668  -0.303555  -0.521714  0.000817  2.354896  0.002
O  O294  1  0.96924274  0.22004009  0.21011350  1  -1.155456  0.002595  -0.303432  -0.52151  0.000774  2.354742  0.002
O  O295  1  0.46923486  0.21011016  0.77996459  1  -1.155187  0.00265  -0.303525  -0.521779  0.000806  2.35484  0.002
O  O296  1  0.84486809  0.69272952  0.37823101  1  -1.169775  0.058825  -0.313729  -0.603094  0.030544  2.48972  0.049
O  O297  1  0.34487560  0.62176398  0.69271072  1  -1.169707  0.058658  -0.313841  -0.60327  0.030461  2.489266  0.049
O  O298  1  0.84487277  0.30728197  0.62176469  1  -1.169579  0.058724  -0.313794  -0.60306  0.030493  2.489418  0.049
O  O299  1  0.34486827  0.37823840  0.30727756  1  -1.169739  0.058671  -0.313804  -0.603298  0.030468  2.489102  0.049
O  O300  1  0.84487471  0.80728542  0.87823122  1  -1.169533  0.058727  -0.313771  -0.603054  0.030495  2.48935  0.049
O  O301  1  0.34487364  0.87823699  0.19270736  1  -1.169781  0.058642  -0.313847  -0.603204  0.030452  2.489321  0.049
O  O302  1  0.84486615  0.19271543  0.12177406  1  -1.169628  0.058766  -0.313766  -0.603103  0.030514  2.489433  0.049
O  O303  1  0.34486428  0.12176272  0.80728943  1  -1.169962  0.058663  -0.313885  -0.603267  0.030465  2.489127  0.049
O  O304  1  0.92718412  0.79287571  0.61812372  1  -1.142091  0.009286  -0.315195  -0.532254  0.004674  2.272771  0.008
O  O305  1  0.42719545  0.38187094  0.79288403  1  -1.142156  0.009326  -0.31521  -0.532327  0.004696  2.272842  0.008
O  O306  1  0.92718313  0.20712665  0.38187730  1  -1.142056  0.009297  -0.315209  -0.532245  0.004681  2.272773  0.008
O  O307  1  0.42718927  0.61812604  0.20712288  1  -1.142026  0.009387  -0.315277  -0.532309  0.00473  2.272645  0.008
O  O308  1  0.92718937  0.70711883  0.11812511  1  -1.142263  0.009273  -0.31523  -0.532425  0.004667  2.272706  0.008
O  O309  1  0.42719836  0.11812798  0.29287900  1  -1.141992  0.009349  -0.315266  -0.532249  0.004709  2.272625  0.008
O  O310  1  0.92718724  0.29287715  0.88187271  1  -1.142142  0.009289  -0.315249  -0.532408  0.004676  2.272579  0.008
O  O311  1  0.42718891  0.88187486  0.70712312  1  -1.142076  0.00933  -0.315234  -0.532272  0.004698  2.27277  0.008
O  O312  1  0.02982433  0.69992411  0.65516797  1  -1.139292  0.052195  -0.297202  -0.54179  0.027338  2.393755  0.043
O  O313  1  0.52983599  0.34483057  0.69993363  1  -1.139097  0.052154  -0.297167  -0.541894  0.027322  2.393912  0.043
O  O314  1  0.02981973  0.30007644  0.34482992  1  -1.139326  0.052188  -0.297174  -0.541768  0.027334  2.393766  0.043
O  O315  1  0.52982546  0.65517430  0.30007168  1  -1.139222  0.05207  -0.297037  -0.541654  0.027279  2.393679  0.043
O  O316  1  0.02982766  0.80007448  0.15516299  1  -1.139097  0.052202  -0.297346  -0.54198  0.027344  2.393973  0.043
O  O317  1  0.52983116  0.15517781  0.19992914  1  -1.139294  0.052127  -0.296962  -0.541567  0.027307  2.39394  0.043
O  O318  1  0.02982915  0.19992553  0.84483436  1  -1.139232  0.052197  -0.297259  -0.541896  0.027339  2.393743  0.043
O  O319  1  0.52982518  0.84482599  0.80007244  1  -1.139278  0.052151  -0.297048  -0.541679  0.027318  2.393804  0.043
O  O320  1  0.23966135  0.76092336  0.64388799  1  -1.17288  0.038648  -0.326644  -0.617534  0.020641  2.507729  0.03
O  O321  1  0.73967392  0.35611732  0.76091572  1  -1.17267  0.038666  -0.326638  -0.617564  0.020654  2.507887  0.03
O  O322  1  0.23966539  0.23907858  0.35611308  1  -1.172832  0.038653  -0.326629  -0.617509  0.020642  2.50777  0.03
O  O323  1  0.73968808  0.64388255  0.23908957  1  -1.172979  0.038699  -0.326736  -0.617594  0.020667  2.507627  0.03
O  O324  1  0.23967077  0.73907662  0.14388299  1  -1.17267  0.038646  -0.326573  -0.617424  0.020638  2.50776  0.03
O  O325  1  0.73967847  0.14388235  0.26091869  1  -1.172683  0.038665  -0.326615  -0.617479  0.020655  2.507756  0.03
O  O326  1  0.23966532  0.26091946  0.85611701  1  -1.172714  0.038652  -0.326671  -0.617604  0.020641  2.507802  0.03
O  O327  1  0.73967333  0.85611699  0.73908234  1  -1.172666  0.038661  -0.326632  -0.617606  0.020652  2.507773  0.03
O  O328  1  0.36080690  0.80370742  0.56201198  1  -1.160911  0.014908  -0.296696  -0.512463  0.007266  2.166501  0.013
O  O329  1  0.86080325  0.43798912  0.80371447  1  -1.160577  0.014924  -0.296647  -0.512454  0.007274  2.16659  0.013
O  O330  1  0.36079998  0.19628908  0.43799440  1  -1.160493  0.014913  -0.296744  -0.512561  0.007269  2.166563  0.013
O  O331  1  0.86079721  0.56200585  0.19627696  1  -1.160127  0.014924  -0.296739  -0.512616  0.007274  2.166823  0.013
O  O332  1  0.36081133  0.69630148  0.06200165  1  -1.160464  0.014912  -0.296667  -0.51243  0.007269  2.166766  0.013
O  O333  1  0.86080034  0.06200460  0.30371688  1  -1.160071  0.014922  -0.296724  -0.512511  0.007273  2.166634  0.013
O  O334  1  0.36079895  0.30371100  0.93799142  1  -1.160874  0.014911  -0.29674  -0.512511  0.007268  2.166655  0.013
O  O335  1  0.86079672  0.93799197  0.69628574  1  -1.160982  0.014921  -0.296823  -0.512615  0.007273  2.166616  0.013
O  O336  1  0.19039453  0.88830311  0.07281562  1  -1.158761  0.047125  -0.294394  -0.482547  0.024002  2.447763  0.042
O  O337  1  0.69039460  0.92718620  0.88831388  1  -1.158771  0.04711  -0.294442  -0.482664  0.023995  2.447591  0.041
O  O338  1  0.19039452  0.11169461  0.92718385  1  -1.158853  0.04712  -0.294406  -0.482555  0.023999  2.44785  0.041
O  O339  1  0.69038718  0.07281213  0.11169301  1  -1.158876  0.04711  -0.294388  -0.482554  0.023995  2.447711  0.041
O  O340  1  0.19039821  0.61168997  0.57281364  1  -1.158681  0.047114  -0.29438  -0.482566  0.023997  2.44748  0.041
O  O341  1  0.69038741  0.57281185  0.38831630  1  -1.158872  0.04712  -0.294425  -0.482672  0.023998  2.447608  0.041
O  O342  1  0.19039594  0.38830616  0.42718583  1  -1.158807  0.04711  -0.294379  -0.482573  0.023995  2.447672  0.041
O  O343  1  0.69039437  0.42718914  0.61169539  1  -1.158757  0.047119  -0.294391  -0.482607  0.023999  2.447662  0.041
O  O344  1  0.11705272  0.94064259  0.21257491  1  -1.189088  0.078535  -0.346175  -0.561271  0.039548  2.213314  0.064
O  O345  1  0.61705048  0.78742929  0.94064131  1  -1.189232  0.078597  -0.346157  -0.561234  0.039577  2.213312  0.064
O  O346  1  0.11704691  0.05936001  0.78742829  1  -1.189181  0.078562  -0.346202  -0.561275  0.039565  2.21329  0.064
O  O347  1  0.61705294  0.21257443  0.05936719  1  -1.188865  0.078619  -0.346173  -0.5612  0.039587  2.213324  0.064
O  O348  1  0.11704632  0.55935754  0.71257345  1  -1.189175  0.078543  -0.346162  -0.561187  0.039555  2.213448  0.064
O  O349  1  0.61706252  0.71257203  0.44063577  1  -1.189239  0.078639  -0.346226  -0.561321  0.039597  2.213467  0.064
O  O350  1  0.11705161  0.44064399  0.28742762  1  -1.18915  0.07856  -0.346163  -0.561255  0.039565  2.213331  0.064
O  O351  1  0.61705961  0.28743009  0.55935674  1  -1.189256  0.078588  -0.346177  -0.561298  0.03957  2.213366  0.064
