# generated using pymatgen
data_Fe4B8H96C95(N16O3)2
_symmetry_space_group_name_H-M   'P 1'
_cell_length_a   21.20374217
_cell_length_b   21.20375125
_cell_length_c   21.20380089
_cell_angle_alpha   62.04610282
_cell_angle_beta   86.41763601
_cell_angle_gamma   117.95358029
_symmetry_Int_Tables_number   1
_chemical_formula_structural   Fe4B8H96C95(N16O3)2
_chemical_formula_sum   'Fe8 B16 H192 C190 N64 O12'
_cell_volume   6934.82363809
_cell_formula_units_Z   2
loop_
 _symmetry_equiv_pos_site_id
 _symmetry_equiv_pos_as_xyz
  1  'x, y, z'
loop_
 _atom_site_type_symbol
 _atom_site_label
 _atom_site_symmetry_multiplicity
 _atom_site_fract_x
 _atom_site_fract_y
 _atom_site_fract_z
 _atom_site_occupancy
 _atom_site_pbe_bader_charge
 _atom_site_pbe_bader_spin_density
 _atom_site_pbe_cm5_charge
 _atom_site_pbe_ddec_charge
 _atom_site_pbe_ddec_spin_density
 _atom_site_pbe_ddec_sum_bond_order
 _atom_site_pbe_magmom
Fe  Fe0  1  0.13232321  0.25503854  0.12416979  1  1.392293  3.631298  0.745259  0.687824  3.890344  2.868966  3.602
Fe  Fe1  1  0.62079288  0.74496005  0.12271425  1  1.388841  3.631736  0.74524  0.687827  3.890337  2.868974  3.602
Fe  Fe2  1  0.12271584  0.74350698  0.13232365  1  1.389939  3.631562  0.745413  0.687967  3.890375  2.869136  3.602
Fe  Fe3  1  0.12416810  0.25649163  0.62079232  1  1.390155  3.631595  0.745392  0.687973  3.890363  2.869118  3.602
Fe  Fe4  1  0.12079232  0.74351025  0.62416478  1  1.390047  3.631601  0.745367  0.687876  3.890354  2.869216  3.602
Fe  Fe5  1  0.63232547  0.25649421  0.62271526  1  1.389928  3.631566  0.745381  0.687956  3.890376  2.869039  3.602
Fe  Fe6  1  0.62417205  0.74496362  0.63232220  1  1.392278  3.631295  0.745257  0.687821  3.890347  2.869021  3.602
Fe  Fe7  1  0.62271377  0.25503928  0.12079180  1  1.388962  3.631718  0.745284  0.68789  3.890333  2.868925  3.602
B  B8  1  0.32557715  0.55763304  0.98694728  1  1.714924  0.000687  -0.50005  -0.219887  0.000953  4.033833  0.002
B  B9  1  0.45542089  0.44236504  0.23205492  1  1.6899  0.000706  -0.500012  -0.219826  0.000953  4.03386  0.002
B  B10  1  0.23205593  0.68747433  0.32557638  1  1.696237  0.000707  -0.499991  -0.219829  0.000954  4.033683  0.002
B  B11  1  0.98694768  0.31252724  0.45541947  1  1.679623  0.000717  -0.500011  -0.219901  0.000953  4.033701  0.002
B  B12  1  0.95541973  0.68747262  0.48694477  1  1.679729  0.000717  -0.500008  -0.219893  0.000953  4.033787  0.002
B  B13  1  0.82558041  0.31252655  0.73205421  1  1.695716  0.000708  -0.499976  -0.219862  0.000953  4.033681  0.002
B  B14  1  0.48694682  0.44236706  0.82557765  1  1.714923  0.000687  -0.500054  -0.219922  0.000953  4.033861  0.002
B  B15  1  0.73205687  0.55763358  0.95542069  1  1.689893  0.000707  -0.500008  -0.219889  0.000953  4.033875  0.002
B  B16  1  0.93604118  0.95275499  0.25756893  1  1.687671  0.000589  -0.498826  -0.219  0.000784  4.034962  0.001
B  B17  1  0.78967790  0.04724274  0.01671487  1  1.691681  0.00059  -0.498852  -0.219005  0.000783  4.034866  0.001
B  B18  1  0.01672422  0.80639995  0.93603561  1  1.692351  0.000588  -0.49879  -0.218958  0.000784  4.03482  0.001
B  B19  1  0.25756312  0.19359876  0.78967789  1  1.690833  0.000591  -0.498879  -0.219119  0.000784  4.035037  0.001
B  B20  1  0.28967462  0.80640003  0.75756490  1  1.690997  0.000591  -0.498818  -0.219029  0.000784  4.035034  0.001
B  B21  1  0.43603590  0.19360402  0.51672433  1  1.692349  0.000588  -0.498821  -0.218948  0.000784  4.035075  0.001
B  B22  1  0.75756643  0.04724451  0.43604175  1  1.687553  0.000588  -0.498836  -0.218855  0.000783  4.034838  0.001
B  B23  1  0.51671464  0.95275701  0.28967707  1  1.691467  0.00059  -0.498881  -0.219077  0.000783  4.034906  0.001
H  H24  1  0.15688851  0.07778155  0.02936992  1  0.118265  0.000734  0.109324  0.125366  0.000318  1.018916  0.0
H  H25  1  0.89285245  0.92220988  0.92089905  1  0.109944  0.000744  0.109321  0.125298  0.000318  1.019056  0.0
H  H26  1  0.92090256  0.81375888  0.15688895  1  0.075259  0.000758  0.109328  0.125276  0.000318  1.018894  0.0
H  H27  1  0.02935057  0.18624113  0.89285767  1  0.11707  0.000737  0.109359  0.125351  0.000318  1.018795  0.0
H  H28  1  0.39285353  0.81375006  0.52935858  1  0.117092  0.000737  0.109331  0.125329  0.000318  1.018968  0.0
H  H29  1  0.65688971  0.18625058  0.42089679  1  0.075251  0.000758  0.109351  0.125406  0.000318  1.018875  0.0
H  H30  1  0.52935791  0.92221124  0.65688610  1  0.118191  0.000734  0.109344  0.125364  0.000318  1.018892  0.0
H  H31  1  0.42090250  0.07779208  0.39285312  1  0.109873  0.000744  0.109324  0.125321  0.000318  1.019003  0.0
H  H32  1  0.09428716  0.12439249  0.08324701  1  0.114806  0.001612  0.115258  0.086172  0.000298  1.033932  0.001
H  H33  1  0.79235916  0.87560120  0.03010746  1  0.100057  0.001614  0.115218  0.08618  0.000298  1.033963  0.001
H  H34  1  0.03011175  0.82247081  0.09429242  1  0.114759  0.001618  0.115195  0.086083  0.000298  1.034077  0.001
H  H35  1  0.08323442  0.17752854  0.79236116  1  0.118952  0.001632  0.11518  0.086119  0.000298  1.034152  0.001
H  H36  1  0.29235946  0.82246824  0.58323562  1  0.11893  0.001632  0.115195  0.086143  0.000298  1.034065  0.001
H  H37  1  0.59429055  0.17752878  0.53011040  1  0.114741  0.001618  0.115216  0.086132  0.000298  1.034067  0.001
H  H38  1  0.58324536  0.87560494  0.59428567  1  0.114875  0.001611  0.11525  0.086144  0.000298  1.034087  0.001
H  H39  1  0.53011050  0.12439852  0.29236057  1  0.100272  0.001614  0.115216  0.086095  0.000298  1.034064  0.001
H  H40  1  0.30295777  0.32348697  0.04943519  1  0.108846  0.001705  0.118178  0.089772  0.000311  0.998339  0.001
H  H41  1  0.62707866  0.67651116  0.02052765  1  0.104474  0.001718  0.118159  0.089712  0.000311  0.998407  0.001
H  H42  1  0.02052725  0.64760545  0.30296144  1  0.09799  0.001704  0.118141  0.08971  0.00031  0.998373  0.001
H  H43  1  0.04943309  0.35239433  0.62707964  1  0.106479  0.00171  0.118131  0.089753  0.00031  0.998364  0.001
H  H44  1  0.12707978  0.64760567  0.54943171  1  0.106462  0.00171  0.118136  0.089752  0.00031  0.998449  0.001
H  H45  1  0.80295973  0.35239457  0.52052796  1  0.09793  0.001704  0.118131  0.089725  0.000311  0.998415  0.001
H  H46  1  0.54943726  0.67651480  0.80295542  1  0.108872  0.001705  0.118176  0.089764  0.000311  0.998333  0.001
H  H47  1  0.52052850  0.32348656  0.12707775  1  0.104541  0.001718  0.118156  0.089744  0.000311  0.998376  0.001
H  H48  1  0.37500465  0.28606104  0.99346793  1  0.117356  0.000823  0.114753  0.133119  0.000357  1.00429  0.0
H  H49  1  0.72047443  0.71393389  0.91105861  1  0.118643  0.000824  0.114779  0.133207  0.000357  1.004126  0.0
H  H50  1  0.91105456  0.63152745  0.37501321  1  0.121221  0.000825  0.114731  0.133142  0.000357  1.004118  0.0
H  H51  1  0.99346179  0.36847527  0.72047213  1  0.117612  0.000825  0.11473  0.133154  0.000357  1.004073  0.0
H  H52  1  0.22047115  0.63152354  0.49346373  1  0.117602  0.000825  0.114708  0.133112  0.000357  1.004134  0.0
H  H53  1  0.87501010  0.36847918  0.41105142  1  0.121111  0.000826  0.114727  0.13308  0.000357  1.004191  0.0
H  H54  1  0.49346252  0.71393414  0.87500348  1  0.117161  0.000823  0.114746  0.133102  0.000357  1.004268  0.0
H  H55  1  0.41106168  0.28606777  0.22047382  1  0.118684  0.000824  0.114734  0.133099  0.000357  1.004221  0.0
H  H56  1  0.30618809  0.07229962  0.90467656  1  0.100524  0.000797  0.114311  0.131569  0.000288  1.012456  0.0
H  H57  1  0.02302638  0.92769925  0.76611156  1  0.087488  0.000796  0.114287  0.131556  0.000288  1.012415  0.0
H  H58  1  0.76610500  0.78913123  0.30619230  1  0.089623  0.000796  0.114309  0.131576  0.000288  1.012554  0.0
H  H59  1  0.90467482  0.21086386  0.02302764  1  0.086401  0.000794  0.114306  0.131601  0.000288  1.012488  0.0
H  H60  1  0.52302720  0.78913283  0.40467626  1  0.086419  0.000793  0.11432  0.1316  0.000288  1.012504  0.0
H  H61  1  0.80618886  0.21087219  0.26610529  1  0.089904  0.000796  0.114344  0.131665  0.000288  1.012402  0.0
H  H62  1  0.40467551  0.92769994  0.80618700  1  0.10072  0.000797  0.114317  0.131594  0.000288  1.012395  0.0
H  H63  1  0.26611502  0.07230309  0.52302451  1  0.087536  0.000796  0.114288  0.131537  0.000288  1.012363  0.0
H  H64  1  0.23507193  0.91418054  0.96851878  1  0.083677  0.001859  0.121557  0.092168  0.000519  0.979818  0.001
H  H65  1  0.11730145  0.08581734  0.67910979  1  0.084256  0.001867  0.121529  0.092139  0.000519  0.979926  0.001
H  H66  1  0.67910694  0.79640880  0.23507673  1  0.098368  0.001859  0.121545  0.09214  0.000519  0.979788  0.001
H  H67  1  0.96851423  0.20358871  0.11730122  1  0.12338  0.001853  0.121552  0.09217  0.000519  0.979839  0.001
H  H68  1  0.61730412  0.79641575  0.46851292  1  0.123327  0.001853  0.121566  0.092192  0.00052  0.979871  0.001
H  H69  1  0.73507216  0.20359131  0.17910881  1  0.098547  0.00186  0.121564  0.092162  0.000519  0.979861  0.001
H  H70  1  0.46851809  0.08581728  0.73507398  1  0.083679  0.001859  0.121568  0.092164  0.000519  0.979867  0.001
H  H71  1  0.17911054  0.91418546  0.61729897  1  0.08429  0.001867  0.121545  0.092145  0.000519  0.979927  0.001
H  H72  1  0.16136241  0.86492673  0.18178138  1  0.093773  0.001682  0.121939  0.095379  0.00023  0.985197  0.001
H  H73  1  0.95329271  0.13506936  0.70356970  1  0.110069  0.001701  0.12194  0.095391  0.00023  0.985197  0.001
H  H74  1  0.70357210  0.65686370  0.16136194  1  0.107613  0.001699  0.121972  0.095418  0.00023  0.985247  0.001
H  H75  1  0.18177482  0.34314024  0.95329051  1  0.090594  0.001696  0.121942  0.09538  0.00023  0.985266  0.001
H  H76  1  0.45329392  0.65686359  0.68177583  1  0.090533  0.001697  0.121968  0.095429  0.00023  0.985207  0.001
H  H77  1  0.66136001  0.34314221  0.20356737  1  0.107392  0.001699  0.12197  0.09544  0.00023  0.98519  0.001
H  H78  1  0.68177877  0.13507078  0.66135982  1  0.094327  0.001682  0.121937  0.095384  0.00023  0.985207  0.001
H  H79  1  0.20357002  0.86493562  0.45328879  1  0.10976  0.001701  0.121963  0.095447  0.00023  0.985222  0.001
H  H80  1  0.22727020  0.02134580  0.12752618  1  0.081976  0.000776  0.11275  0.129406  0.000238  0.988966  0.0
H  H81  1  0.85112966  0.97865087  0.79408257  1  0.084037  0.000782  0.112762  0.129389  0.000238  0.989081  0.0
H  H82  1  0.79408191  0.64521672  0.22726775  1  0.077965  0.000774  0.112769  0.129388  0.000238  0.989141  0.0
H  H83  1  0.12751683  0.35479116  0.85113233  1  0.081739  0.000766  0.112731  0.129364  0.000238  0.989046  0.0
H  H84  1  0.35113506  0.64520943  0.62751785  1  0.081746  0.000766  0.112726  0.129364  0.000238  0.989046  0.0
H  H85  1  0.72726909  0.35479332  0.29407483  1  0.077695  0.000774  0.112756  0.129387  0.000238  0.989057  0.0
H  H86  1  0.62752438  0.97865247  0.72726448  1  0.08218  0.000776  0.112778  0.129393  0.000238  0.989066  0.0
H  H87  1  0.29408312  0.02135394  0.35112697  1  0.083917  0.000782  0.112735  0.129352  0.000238  0.989143  0.0
H  H88  1  0.38591610  0.27771945  0.88968431  1  0.108548  0.000196  0.127432  0.10225  6.2e-05  1.003393  0.0
H  H89  1  0.83260047  0.72227890  0.89180262  1  0.143783  0.000195  0.127416  0.102222  6.2e-05  1.003574  0.0
H  H90  1  0.89180539  0.72440893  0.38591852  1  0.13187  0.000194  0.127423  0.102158  6.2e-05  1.003551  0.0
H  H91  1  0.88967375  0.27559295  0.83260201  1  0.139977  0.000195  0.127422  0.102166  6.2e-05  1.003556  0.0
H  H92  1  0.33260425  0.72440660  0.38967496  1  0.117967  0.000196  0.127439  0.102211  6.2e-05  1.003545  0.0
H  H93  1  0.88591562  0.27559496  0.39180308  1  0.133927  0.000194  0.12743  0.102185  6.2e-05  1.003532  0.0
H  H94  1  0.38968269  0.72227910  0.88591827  1  0.10853  0.000196  0.127425  0.102257  6.2e-05  1.003437  0.0
H  H95  1  0.39180341  0.27772449  0.33259774  1  0.143758  0.000195  0.12738  0.102185  6.2e-05  1.00357  0.0
H  H96  1  0.34880449  0.20529224  0.86144783  1  0.103907  -1.2e-05  0.127229  0.095847  -0.0  1.030495  0.0
H  H97  1  0.93326371  0.79470601  0.85648591  1  0.116144  -1.3e-05  0.127234  0.095926  -0.0  1.030558  0.0
H  H98  1  0.85648374  0.78974890  0.34880763  1  0.107683  -1.2e-05  0.12721  0.095905  -0.0  1.03056  0.0
H  H99  1  0.86144455  0.21025560  0.93326423  1  0.109836  -1.3e-05  0.127224  0.09592  -0.0  1.030587  0.0
H  H100  1  0.43326535  0.78974476  0.36144671  1  0.109793  -1.3e-05  0.127244  0.095909  -0.0  1.030577  0.0
H  H101  1  0.84880607  0.21025829  0.35647927  1  0.107811  -1.2e-05  0.127241  0.095859  -0.0  1.030588  0.0
H  H102  1  0.36144489  0.79470636  0.84880542  1  0.103859  -1.2e-05  0.127222  0.095874  -0.0  1.030543  0.0
H  H103  1  0.35648881  0.20529716  0.43326099  1  0.116188  -1.3e-05  0.127217  0.095888  -0.0  1.030549  0.0
H  H104  1  0.39249164  0.08572232  0.05690910  1  0.112613  0.0008  0.11136  0.127816  0.000344  1.009563  0.0
H  H105  1  0.85736884  0.91427670  0.69323268  1  0.06448  0.000835  0.111362  0.127796  0.000344  1.009542  0.0
H  H106  1  0.69324062  0.55060997  0.39248336  1  0.076097  0.000828  0.11133  0.127794  0.000344  1.009381  0.0
H  H107  1  0.05690639  0.44939712  0.85736349  1  0.098134  0.000813  0.11134  0.127782  0.000344  1.00942  0.0
H  H108  1  0.35736867  0.55060420  0.55690699  1  0.097946  0.000813  0.111362  0.127771  0.000344  1.009305  0.0
H  H109  1  0.89248613  0.44939655  0.19323947  1  0.076084  0.000828  0.111347  0.127748  0.000344  1.009392  0.0
H  H110  1  0.55690932  0.91427536  0.89249080  1  0.112632  0.0008  0.111353  0.127804  0.000344  1.009599  0.0
H  H111  1  0.19323340  0.08572339  0.35736877  1  0.061563  0.000836  0.111355  0.127788  0.000344  1.009573  0.0
H  H112  1  0.46780507  0.11245643  0.13840212  1  0.118064  0.001709  0.122262  0.095278  0.000279  0.987595  0.001
H  H113  1  0.74914302  0.88754394  0.64465057  1  0.118789  0.001715  0.122274  0.09527  0.000279  0.987607  0.001
H  H114  1  0.64466128  0.39379849  0.46779901  1  0.109467  0.001708  0.122251  0.095266  0.000278  0.987499  0.001
H  H115  1  0.13840163  0.60620795  0.74913042  1  0.117905  0.001719  0.12224  0.095258  0.000278  0.987501  0.001
H  H116  1  0.24913569  0.39379282  0.63840328  1  0.117833  0.001719  0.122217  0.095203  0.000278  0.987504  0.001
H  H117  1  0.96780296  0.60620893  0.14465940  1  0.109419  0.001709  0.122204  0.095203  0.000278  0.98748  0.001
H  H118  1  0.63840356  0.88754275  0.96780350  1  0.118057  0.001709  0.122277  0.095277  0.000279  0.98753  0.001
H  H119  1  0.14465121  0.11245717  0.24914315  1  0.118414  0.001714  0.122281  0.095276  0.000279  0.987614  0.001
H  H120  1  0.62981546  0.36706916  0.95907624  1  0.111527  0.001784  0.124052  0.096999  0.00045  0.995207  0.001
H  H121  1  0.67385534  0.63293161  0.73725335  1  0.111025  0.001786  0.124049  0.097  0.00045  0.995249  0.001
H  H122  1  0.73724981  0.41110656  0.62981927  1  0.103146  0.001788  0.124014  0.096947  0.00045  0.995186  0.001
H  H123  1  0.95907155  0.58889740  0.67385065  1  0.107062  0.001794  0.123988  0.096855  0.00045  0.995217  0.001
H  H124  1  0.17385499  0.41110549  0.45907239  1  0.10723  0.001794  0.124007  0.096936  0.00045  0.995134  0.001
H  H125  1  0.12982465  0.58889761  0.23724806  1  0.102993  0.001788  0.124017  0.096932  0.00045  0.995142  0.001
H  H126  1  0.45907667  0.63293040  0.12981598  1  0.11149  0.001783  0.124048  0.096973  0.00045  0.995243  0.001
H  H127  1  0.23725156  0.36706871  0.17385595  1  0.111091  0.001787  0.124042  0.09699  0.00045  0.995196  0.001
H  H128  1  0.56011273  0.35184047  0.87065817  1  0.124074  0.000844  0.120349  0.141207  0.000352  0.990559  0.0
H  H129  1  0.77750207  0.64815885  0.79172874  1  0.135011  0.000841  0.120343  0.141178  0.000352  0.990538  0.0
H  H130  1  0.79172563  0.56923256  0.56011787  1  0.119473  0.000851  0.120369  0.141246  0.000352  0.990426  0.0
H  H131  1  0.87064770  0.43077108  0.77750157  1  0.123878  0.000848  0.120361  0.141169  0.000352  0.990515  0.0
H  H132  1  0.27750783  0.56923087  0.37064828  1  0.123737  0.000848  0.120366  0.141208  0.000352  0.990473  0.0
H  H133  1  0.06012181  0.43077109  0.29172339  1  0.119133  0.000851  0.120377  0.141244  0.000352  0.990414  0.0
H  H134  1  0.37065733  0.64815824  0.06011403  1  0.124045  0.000844  0.120368  0.141239  0.000352  0.990544  0.0
H  H135  1  0.29172703  0.35184017  0.27750243  1  0.134911  0.000841  0.120354  0.141229  0.000352  0.990626  0.0
H  H136  1  0.55058730  0.18757014  0.89785439  1  0.088099  0.000651  0.108095  0.12402  0.00019  1.006775  0.0
H  H137  1  0.91457765  0.81243484  0.63698073  1  0.082025  0.000654  0.108119  0.124059  0.00019  1.006738  0.0
H  H138  1  0.63698668  0.55156049  0.55059389  1  0.091571  0.000651  0.108087  0.124056  0.000189  1.006905  0.0
H  H139  1  0.89784821  0.44844695  0.91456816  1  0.087475  0.00065  0.108081  0.124027  0.000189  1.006869  0.0
H  H140  1  0.41457011  0.55155355  0.39784817  1  0.087431  0.00065  0.10809  0.124028  0.000189  1.006872  0.0
H  H141  1  0.05059798  0.44844573  0.13698713  1  0.091473  0.000651  0.108102  0.124053  0.000189  1.006843  0.0
H  H142  1  0.39785551  0.81243267  0.05058508  1  0.088171  0.000651  0.108103  0.124041  0.00019  1.006763  0.0
H  H143  1  0.13698070  0.18756895  0.41457735  1  0.082187  0.000654  0.108108  0.124053  0.00019  1.006696  0.0
H  H144  1  0.62540905  0.21058872  0.78647783  1  0.098743  0.001632  0.118575  0.091392  0.000323  1.002075  0.001
H  H145  1  0.00293671  0.78941629  0.58517713  1  0.103945  0.001633  0.11857  0.091422  0.000323  1.002029  0.001
H  H146  1  0.58518271  0.58811037  0.62541761  1  0.09479  0.001637  0.118546  0.091361  0.000323  1.002153  0.001
H  H147  1  0.78647546  0.41189512  0.00292630  1  0.104599  0.001635  0.118508  0.09126  0.000323  1.002159  0.001
H  H148  1  0.50292502  0.58810358  0.28647446  1  0.104557  0.001635  0.118506  0.091241  0.000323  1.002174  0.001
H  H149  1  0.12542079  0.41189503  0.08518313  1  0.094794  0.001637  0.118508  0.091272  0.000323  1.00221  0.001
H  H150  1  0.28647813  0.78941308  0.12540791  1  0.098717  0.001633  0.118569  0.091404  0.000323  1.002065  0.001
H  H151  1  0.08517897  0.21058664  0.50293753  1  0.103986  0.001634  0.118557  0.091406  0.000323  1.002067  0.001
H  H152  1  0.49900649  0.27437181  0.65979456  1  0.082374  0.001619  0.118732  0.091796  0.00026  0.994541  0.001
H  H153  1  0.06583561  0.72562950  0.77536292  1  0.090847  0.001619  0.118711  0.091784  0.00026  0.994539  0.001
H  H154  1  0.77536302  0.84119624  0.49900990  1  0.086969  0.00162  0.11871  0.091798  0.00026  0.994584  0.001
H  H155  1  0.65979420  0.15880720  0.06583413  1  0.114336  0.001615  0.118673  0.091775  0.00026  0.994618  0.001
H  H156  1  0.56583304  0.84119115  0.15979440  1  0.114348  0.001614  0.118686  0.091776  0.000259  0.99469  0.001
H  H157  1  0.99900918  0.15880509  0.27536150  1  0.084853  0.001619  0.118715  0.091776  0.00026  0.994608  0.001
H  H158  1  0.15979529  0.72562813  0.99900628  1  0.082349  0.001618  0.118746  0.0918  0.00026  0.99456  0.001
H  H159  1  0.27536540  0.27437083  0.56583343  1  0.090828  0.001618  0.118725  0.091787  0.00026  0.994623  0.001
H  H160  1  0.41804922  0.25455827  0.76409626  1  0.106396  0.000702  0.110902  0.130075  0.00027  1.03662  0.0
H  H161  1  0.98134721  0.74544073  0.83650850  1  0.110447  0.000701  0.110918  0.130092  0.00027  1.036642  0.0
H  H162  1  0.83650525  0.81785143  0.41805655  1  0.109314  0.0007  0.11087  0.13005  0.00027  1.036756  0.0
H  H163  1  0.76409280  0.18215201  0.98134626  1  0.108201  0.000704  0.110896  0.130117  0.00027  1.036708  0.0
H  H164  1  0.48134711  0.81784839  0.26409271  1  0.108374  0.000704  0.110872  0.130093  0.00027  1.036709  0.0
H  H165  1  0.91805447  0.18215108  0.33650156  1  0.109168  0.000701  0.110919  0.130117  0.00027  1.036711  0.0
H  H166  1  0.26409602  0.74544074  0.91804990  1  0.10639  0.000702  0.110916  0.130084  0.00027  1.036642  0.0
H  H167  1  0.33650924  0.25455897  0.48134483  1  0.110444  0.000701  0.110922  0.130092  0.00027  1.036661  0.0
H  H168  1  0.35028984  0.59590541  0.91742381  1  -0.554138  0.002848  0.028245  -0.082268  0.000861  1.069648  0.002
H  H169  1  0.48667297  0.40409481  0.24561241  1  -0.529974  0.00283  0.028246  -0.082268  0.000861  1.069708  0.002
H  H170  1  0.24561229  0.73228272  0.35029018  1  -0.540698  0.002839  0.028249  -0.082283  0.000861  1.069655  0.002
H  H171  1  0.91742646  0.26772008  0.48666901  1  -0.526813  0.002826  0.028249  -0.082272  0.000861  1.069677  0.002
H  H172  1  0.98667184  0.73228211  0.41742245  1  -0.526885  0.002826  0.028235  -0.082285  0.000861  1.069662  0.002
H  H173  1  0.85029227  0.26771609  0.74561336  1  -0.539746  0.002837  0.028233  -0.082309  0.000861  1.069665  0.002
H  H174  1  0.41742480  0.40409414  0.85028973  1  -0.554154  0.002848  0.028235  -0.082278  0.000861  1.069674  0.002
H  H175  1  0.74561615  0.59590587  0.98667077  1  -0.529985  0.002832  0.028241  -0.082252  0.000861  1.069679  0.002
H  H176  1  0.37723600  0.56575057  0.01205170  1  -0.545629  0.003711  0.022282  -0.094389  0.001133  1.078164  0.002
H  H177  1  0.42219809  0.43424848  0.18851376  1  -0.543257  0.003707  0.022257  -0.094436  0.001133  1.078202  0.002
H  H178  1  0.18851346  0.61071109  0.37723317  1  -0.545281  0.003707  0.022273  -0.094402  0.001133  1.078167  0.002
H  H179  1  0.01205658  0.38929173  0.42219906  1  -0.538635  0.003706  0.022275  -0.094388  0.001133  1.07819  0.002
H  H180  1  0.92220013  0.61070888  0.51205298  1  -0.538678  0.003704  0.022278  -0.094396  0.001132  1.078233  0.002
H  H181  1  0.87723772  0.38929078  0.68851038  1  -0.545375  0.003706  0.022267  -0.094405  0.001132  1.078231  0.002
H  H182  1  0.51205256  0.43425097  0.87723439  1  -0.545631  0.003711  0.022305  -0.094354  0.001133  1.078182  0.002
H  H183  1  0.68851578  0.56575156  0.92219722  1  -0.543232  0.003709  0.02227  -0.094405  0.001133  1.078171  0.002
H  H184  1  0.29078834  0.58208859  0.00641908  1  -0.54759  0.003132  0.021943  -0.092375  0.000964  1.061697  0.002
H  H185  1  0.41149496  0.41791201  0.29129832  1  -0.547045  0.003134  0.021932  -0.092399  0.000963  1.061736  0.002
H  H186  1  0.29130067  0.70279076  0.29079078  1  -0.542337  0.003127  0.021948  -0.092411  0.000964  1.061744  0.002
H  H187  1  0.00642123  0.29721273  0.41149091  1  -0.545567  0.003132  0.021958  -0.092381  0.000964  1.061744  0.002
H  H188  1  0.91149220  0.70278843  0.50641694  1  -0.545539  0.003131  0.021954  -0.092383  0.000964  1.061749  0.002
H  H189  1  0.79079323  0.29721229  0.79129766  1  -0.542413  0.003126  0.021943  -0.092388  0.000964  1.061721  0.002
H  H190  1  0.50642058  0.41791363  0.79078755  1  -0.547565  0.003132  0.021939  -0.092382  0.000964  1.061737  0.002
H  H191  1  0.79129988  0.58208639  0.91149331  1  -0.546987  0.003135  0.02193  -0.092372  0.000964  1.061672  0.002
H  H192  1  0.94952533  0.93564971  0.21279270  1  -0.538496  0.002818  0.020024  -0.095131  0.000873  1.076934  0.001
H  H193  1  0.85156075  0.06434843  0.98612741  1  -0.541801  0.00282  0.02005  -0.095093  0.000873  1.076865  0.001
H  H194  1  0.98613025  0.83768769  0.94952105  1  -0.540531  0.002818  0.020066  -0.095095  0.000873  1.076886  0.001
H  H195  1  0.21279042  0.16230432  0.85156072  1  -0.541744  0.002818  0.02008  -0.095058  0.000873  1.076947  0.001
H  H196  1  0.35155751  0.83769237  0.71279295  1  -0.541804  0.002818  0.020058  -0.095087  0.000873  1.07692  0.001
H  H197  1  0.44951873  0.16231465  0.48613217  1  -0.540421  0.002818  0.020029  -0.095142  0.000873  1.077028  0.001
H  H198  1  0.71278636  0.06434543  0.44952651  1  -0.53846  0.002818  0.020054  -0.095109  0.000873  1.076891  0.001
H  H199  1  0.48612554  0.93565077  0.35155971  1  -0.541645  0.00282  0.020058  -0.095087  0.000873  1.076903  0.001
H  H200  1  0.87175458  0.93736508  0.27091453  1  -0.540125  0.002448  0.023191  -0.087821  0.000742  1.060909  0.001
H  H201  1  0.79171961  0.06263121  0.06561236  1  -0.540315  0.002447  0.023188  -0.087822  0.000742  1.060863  0.001
H  H202  1  0.06562559  0.85734548  0.87175346  1  -0.54737  0.002451  0.023209  -0.087827  0.000742  1.060869  0.001
H  H203  1  0.27090361  0.14265793  0.79171437  1  -0.54277  0.002448  0.023218  -0.087786  0.000742  1.060873  0.001
H  H204  1  0.29171222  0.85734187  0.77090260  1  -0.54274  0.002448  0.023245  -0.087779  0.000742  1.060922  0.001
H  H205  1  0.37175422  0.14266101  0.56562554  1  -0.547345  0.002451  0.023225  -0.087807  0.000742  1.060966  0.001
H  H206  1  0.77091190  0.06263354  0.37175594  1  -0.540119  0.002447  0.023183  -0.087868  0.000742  1.060886  0.001
H  H207  1  0.56561265  0.93736799  0.29172120  1  -0.540312  0.002448  0.023187  -0.087807  0.000742  1.060812  0.001
H  H208  1  0.94513245  0.91335980  0.31647393  1  -0.543239  0.003488  0.030137  -0.082015  0.00108  1.062148  0.002
H  H209  1  0.77016961  0.08663955  0.96822745  1  -0.544141  0.003488  0.030126  -0.082026  0.001079  1.062139  0.002
H  H210  1  0.96824430  0.73840858  0.94511982  1  -0.542104  0.003485  0.03015  -0.082027  0.001079  1.062192  0.002
H  H211  1  0.31647035  0.26158995  0.77016951  1  -0.54509  0.003486  0.030168  -0.081981  0.001079  1.062174  0.002
H  H212  1  0.27016451  0.73840856  0.81647235  1  -0.545203  0.003486  0.030156  -0.081994  0.001079  1.062185  0.002
H  H213  1  0.44512045  0.26159638  0.46824248  1  -0.542179  0.003486  0.03018  -0.081997  0.001079  1.062172  0.002
H  H214  1  0.81647044  0.08664333  0.44513147  1  -0.543208  0.003488  0.030117  -0.082063  0.001079  1.0622  0.002
H  H215  1  0.46822931  0.91336067  0.27016850  1  -0.544091  0.003488  0.030141  -0.08199  0.001079  1.062156  0.002
C  C216  1  0.19131368  0.13154329  0.03430565  1  -0.017688  0.006784  -0.091791  -0.218371  0.002299  3.969718  0.006
C  C217  1  0.83415433  0.86844934  0.94023505  1  -0.067538  0.006789  -0.091904  -0.21843  0.002298  3.969883  0.006
C  C218  1  0.94023841  0.77439243  0.19131459  1  -0.00494  0.006741  -0.091837  -0.218188  0.0023  3.969565  0.006
C  C219  1  0.03429062  0.22560763  0.83415737  1  -0.035672  0.006798  -0.091884  -0.218325  0.0023  3.96952  0.006
C  C220  1  0.33415508  0.77438578  0.53429378  1  -0.035749  0.006797  -0.091856  -0.218369  0.0023  3.969768  0.006
C  C221  1  0.69131547  0.22561346  0.44023221  1  -0.017199  0.006748  -0.091847  -0.218453  0.0023  3.969776  0.006
C  C222  1  0.53429726  0.86845113  0.69131206  1  -0.018474  0.006785  -0.091819  -0.218282  0.002299  3.969764  0.006
C  C223  1  0.44023700  0.13155133  0.33415435  1  -0.067273  0.00679  -0.091865  -0.218323  0.002299  3.969768  0.006
C  C224  1  0.15624730  0.15754833  0.06418390  1  0.463437  -0.011783  0.038481  0.095316  -0.012266  3.966198  -0.007
C  C225  1  0.77826825  0.84245094  0.00129880  1  0.534919  -0.011735  0.038549  0.095337  -0.012268  3.96614  -0.007
C  C226  1  0.00130405  0.77957032  0.15625083  1  0.48926  -0.011765  0.038474  0.095311  -0.012267  3.96632  -0.007
C  C227  1  0.06417858  0.22043032  0.77826703  1  0.487226  -0.011784  0.038527  0.09532  -0.012267  3.966464  -0.007
C  C228  1  0.27826772  0.77956865  0.56417847  1  0.487548  -0.011784  0.038523  0.095338  -0.012266  3.966261  -0.007
C  C229  1  0.65624744  0.22043213  0.50130055  1  0.501816  -0.011773  0.03852  0.095359  -0.01227  3.966237  -0.007
C  C230  1  0.56418335  0.84245185  0.65624524  1  0.466792  -0.01179  0.038503  0.09531  -0.012269  3.96622  -0.007
C  C231  1  0.50130203  0.15754937  0.27826896  1  0.534554  -0.011735  0.038568  0.095414  -0.012268  3.966148  -0.007
C  C232  1  0.27252488  0.26853665  0.04496790  1  0.501008  -0.013051  0.044352  0.102007  -0.01373  3.952139  -0.008
C  C233  1  0.68649729  0.73145964  0.99601174  1  0.49332  -0.013056  0.044422  0.102181  -0.013729  3.952195  -0.008
C  C234  1  0.99601423  0.68251045  0.27252505  1  0.450358  -0.013061  0.044407  0.102148  -0.013735  3.951879  -0.008
C  C235  1  0.04496489  0.31749027  0.68649464  1  0.464643  -0.013042  0.044371  0.101919  -0.013734  3.952004  -0.008
C  C236  1  0.18649324  0.68250923  0.54496590  1  0.469637  -0.01303  0.044382  0.101859  -0.013727  3.952007  -0.008
C  C237  1  0.77252272  0.31749286  0.49601444  1  0.452117  -0.013059  0.04437  0.101988  -0.013731  3.951917  -0.008
C  C238  1  0.54496563  0.73146222  0.77252388  1  0.496869  -0.013053  0.044415  0.102039  -0.013728  3.952088  -0.008
C  C239  1  0.49601452  0.26854010  0.18649708  1  0.493703  -0.013058  0.04439  0.102009  -0.013731  3.952156  -0.008
C  C240  1  0.31267004  0.24716843  0.01391565  1  -0.065697  0.007028  -0.088413  -0.221823  0.002384  3.955846  0.006
C  C241  1  0.73891731  0.75282392  0.93450298  1  -0.034875  0.007064  -0.08846  -0.222026  0.002384  3.955771  0.006
C  C242  1  0.93450100  0.67342015  0.31267382  1  -0.021155  0.007067  -0.088376  -0.221899  0.002386  3.955516  0.006
C  C243  1  0.01390618  0.32658055  0.73891876  1  -0.015478  0.007057  -0.088355  -0.221814  0.002386  3.955552  0.006
C  C244  1  0.23891650  0.67341630  0.51390694  1  -0.021022  0.007051  -0.088381  -0.221767  0.002386  3.955409  0.006
C  C245  1  0.81267225  0.32658553  0.43449930  1  -0.022183  0.007067  -0.088382  -0.221737  0.002386  3.955476  0.006
C  C246  1  0.51390963  0.75282692  0.81266779  1  -0.068829  0.007029  -0.088477  -0.221792  0.002385  3.955719  0.006
C  C247  1  0.43450280  0.24717334  0.23891784  1  -0.033316  0.007064  -0.088493  -0.221835  0.002384  3.955821  0.006
C  C248  1  0.27141164  0.17582188  0.00941350  1  0.359505  -0.019526  0.110391  0.215698  -0.020949  4.026155  -0.014
C  C249  1  0.81476597  0.82417340  0.90441469  1  0.325572  -0.019554  0.110425  0.215742  -0.020952  4.025989  -0.014
C  C250  1  0.90441431  0.71918385  0.27141343  1  0.345761  -0.019534  0.110361  0.215505  -0.020955  4.026125  -0.014
C  C251  1  0.00940518  0.28081993  0.81476696  1  0.333649  -0.019543  0.11034  0.215551  -0.020948  4.026115  -0.014
C  C252  1  0.31476723  0.71917728  0.50940744  1  0.334406  -0.019536  0.110334  0.215596  -0.020942  4.026051  -0.014
C  C253  1  0.77141296  0.28082407  0.40440903  1  0.345284  -0.019531  0.110376  0.215535  -0.020952  4.026038  -0.014
C  C254  1  0.50941004  0.82417659  0.77140840  1  0.367504  -0.019524  0.110369  0.215567  -0.020951  4.026182  -0.014
C  C255  1  0.40441756  0.17582846  0.31476613  1  0.323567  -0.019553  0.110412  0.215633  -0.020951  4.026202  -0.014
C  C256  1  0.27147967  0.06131637  0.01051911  1  0.384985  -0.004022  0.114879  0.22156  -0.004768  4.041963  -0.003
C  C257  1  0.92816757  0.93868105  0.78984007  1  0.359602  -0.004024  0.114896  0.221508  -0.004767  4.042027  -0.003
C  C258  1  0.78983647  0.71800634  0.27148004  1  0.389058  -0.004019  0.114924  0.221412  -0.004761  4.042259  -0.003
C  C259  1  0.01051264  0.28199398  0.92816943  1  0.35621  -0.004029  0.114897  0.221471  -0.004762  4.042358  -0.003
C  C260  1  0.42817092  0.71800469  0.51051522  1  0.356246  -0.004027  0.114882  0.22143  -0.004759  4.042342  -0.003
C  C261  1  0.77147834  0.28200053  0.28983295  1  0.389272  -0.004021  0.114963  0.221537  -0.004763  4.042205  -0.003
C  C262  1  0.51051721  0.93868250  0.77147703  1  0.384947  -0.004022  0.114934  0.221659  -0.004768  4.04195  -0.003
C  C263  1  0.28984133  0.06132271  0.42816538  1  0.359448  -0.004023  0.114913  0.221675  -0.004767  4.042124  -0.003
C  C264  1  0.27576941  0.02959105  0.96635044  1  0.064876  0.002613  -0.089971  -0.225129  0.000958  3.943792  0.002
C  C265  1  0.00405930  0.97040632  0.75382077  1  0.02647  0.002622  -0.089918  -0.2251  0.000958  3.943814  0.002
C  C266  1  0.75382095  0.75787761  0.27577605  1  0.003393  0.002625  -0.089965  -0.225215  0.000958  3.944255  0.002
C  C267  1  0.96634539  0.24211805  0.00405738  1  0.024763  0.002628  -0.089948  -0.225232  0.000958  3.944198  0.002
C  C268  1  0.50405704  0.75788140  0.46634426  1  0.024701  0.002629  -0.0899  -0.22508  0.000959  3.944073  0.002
C  C269  1  0.77577158  0.24212328  0.25382292  1  0.002704  0.002626  -0.090001  -0.225314  0.000958  3.944202  0.002
C  C270  1  0.46635126  0.97040794  0.77577008  1  0.065733  0.002612  -0.090015  -0.225221  0.000958  3.943992  0.002
C  C271  1  0.25382290  0.02959621  0.50405616  1  0.026409  0.002621  -0.089979  -0.225164  0.000958  3.943945  0.002
C  C272  1  0.23566811  0.94074761  0.00197928  1  0.439796  -0.001403  0.050258  0.114171  -0.002219  3.955516  -0.001
C  C273  1  0.05727548  0.05925203  0.70507972  1  0.500455  -0.001448  0.050271  0.114151  -0.00222  3.955538  -0.001
C  C274  1  0.70508113  0.76235577  0.23567338  1  0.489387  -0.00142  0.050336  0.114312  -0.002216  3.955467  -0.001
C  C275  1  0.00197100  0.23764259  0.05727455  1  0.460272  -0.001431  0.050319  0.11423  -0.002217  3.95548  -0.001
C  C276  1  0.55727735  0.76235996  0.50197076  1  0.460397  -0.001431  0.050242  0.114062  -0.002217  3.955617  -0.001
C  C277  1  0.73567109  0.23764581  0.20508243  1  0.489834  -0.001421  0.050314  0.114236  -0.002217  3.955598  -0.001
C  C278  1  0.50197832  0.05925146  0.73566851  1  0.438924  -0.001403  0.050256  0.114171  -0.00222  3.955558  -0.001
C  C279  1  0.20508057  0.94075156  0.55727222  1  0.501494  -0.001448  0.050345  0.114257  -0.00222  3.955553  -0.001
C  C280  1  0.19342624  0.91328932  0.12048173  1  0.482257  -0.00082  0.044397  0.103611  -0.00207  3.97799  0.0
C  C281  1  0.96623093  0.08670927  0.71986388  1  0.475252  -0.000857  0.044407  0.103648  -0.002069  3.978021  0.0
C  C282  1  0.71986514  0.68609428  0.19342820  1  0.477092  -0.000859  0.044408  0.103692  -0.002068  3.977877  0.0
C  C283  1  0.12047631  0.31390374  0.96622886  1  0.483974  -0.000852  0.044418  0.103732  -0.002069  3.978037  0.0
C  C284  1  0.46623216  0.68609485  0.62047853  1  0.483947  -0.000852  0.044363  0.103553  -0.002067  3.97793  0.0
C  C285  1  0.69342334  0.31390665  0.21986583  1  0.477085  -0.000861  0.04442  0.103576  -0.002069  3.977882  0.0
C  C286  1  0.62048052  0.08670940  0.69342830  1  0.481794  -0.00082  0.044422  0.103636  -0.002069  3.978035  0.0
C  C287  1  0.21986727  0.91329668  0.46622615  1  0.475586  -0.000856  0.044364  0.103605  -0.00207  3.978084  0.0
C  C288  1  0.23053581  0.00040117  0.09006187  1  -0.030759  0.001762  -0.095928  -0.238842  0.000451  3.989385  0.002
C  C289  1  0.90953751  0.99959459  0.76987091  1  -0.029658  0.001773  -0.095998  -0.238968  0.000451  3.989469  0.002
C  C290  1  0.76987292  0.67941040  0.23053619  1  -0.030771  0.00177  -0.095959  -0.238873  0.000451  3.989459  0.002
C  C291  1  0.09005313  0.32059405  0.90953701  1  -0.01945  0.001772  -0.095908  -0.238884  0.000451  3.989485  0.002
C  C292  1  0.40953856  0.67940616  0.59005594  1  -0.019394  0.001773  -0.095919  -0.238812  0.000452  3.989347  0.002
C  C293  1  0.73053547  0.32059779  0.26986659  1  -0.030615  0.00177  -0.095907  -0.23877  0.000451  3.98941  0.002
C  C294  1  0.59006053  0.99959641  0.73053250  1  -0.031054  0.001763  -0.095969  -0.238885  0.000451  3.989361  0.002
C  C295  1  0.26987211  0.00041123  0.40953256  1  -0.029573  0.001772  -0.095937  -0.238907  0.000451  3.989616  0.002
C  C296  1  0.36935800  0.21343096  0.90501457  1  0.642522  -0.001194  0.052285  0.028101  -0.001554  3.844  -0.001
C  C297  1  0.88155822  0.78656662  0.84407137  1  0.592788  -0.001196  0.052312  0.027881  -0.001554  3.844333  -0.001
C  C298  1  0.84407195  0.72563291  0.36936206  1  0.619532  -0.001194  0.052255  0.027913  -0.001555  3.844064  -0.001
C  C299  1  0.90500468  0.27437146  0.88155889  1  0.604727  -0.001197  0.052304  0.028016  -0.001555  3.84412  -0.001
C  C300  1  0.38156053  0.72562856  0.40500631  1  0.626897  -0.001197  0.052284  0.027953  -0.001555  3.844153  -0.001
C  C301  1  0.86936218  0.27437313  0.34406899  1  0.617893  -0.001193  0.052329  0.02805  -0.001556  3.844023  -0.001
C  C302  1  0.40501297  0.78656803  0.86935926  1  0.642453  -0.001194  0.052344  0.028041  -0.001554  3.84409  -0.001
C  C303  1  0.34407292  0.21343579  0.38155510  1  0.59356  -0.001196  0.052401  0.028111  -0.001554  3.844251  -0.001
C  C304  1  0.44408336  0.14941193  0.03337336  1  -0.001529  0.004313  -0.084271  -0.211275  0.001292  3.953901  0.004
C  C305  1  0.81721670  0.85058844  0.70532820  1  -0.027314  0.004264  -0.08426  -0.211232  0.001292  3.953637  0.004
C  C306  1  0.70533668  0.52254906  0.44408011  1  -0.02536  0.004275  -0.084337  -0.211345  0.001293  3.953566  0.004
C  C307  1  0.03336932  0.47745643  0.81720550  1  -0.038175  0.004285  -0.084365  -0.211289  0.001292  3.953676  0.004
C  C308  1  0.31721091  0.52254423  0.53337012  1  -0.039741  0.00429  -0.084333  -0.211207  0.001293  3.953473  0.004
C  C309  1  0.94408458  0.47745784  0.20533521  1  -0.025877  0.004275  -0.084315  -0.211206  0.001293  3.953528  0.004
C  C310  1  0.53337430  0.85058792  0.94408253  1  -0.00171  0.004312  -0.084302  -0.211341  0.001292  3.95394  0.004
C  C311  1  0.20532919  0.14941214  0.31721598  1  -0.033205  0.00426  -0.084222  -0.211195  0.001292  3.95383  0.004
C  C312  1  0.48601930  0.16392413  0.07878773  1  0.423539  -0.00804  0.048803  0.101753  -0.008889  3.942775  -0.004
C  C313  1  0.75728701  0.83607411  0.67790511  1  0.449832  -0.008006  0.048797  0.101738  -0.008886  3.942779  -0.004
C  C314  1  0.67791456  0.43519939  0.48601497  1  0.46889  -0.008001  0.048715  0.10177  -0.0089  3.942608  -0.004
C  C315  1  0.07878400  0.56480760  0.75727807  1  0.416774  -0.008031  0.048761  0.101771  -0.008902  3.94249  -0.004
C  C316  1  0.25728395  0.43519456  0.57878550  1  0.418685  -0.008035  0.048786  0.101807  -0.008901  3.942689  -0.004
C  C317  1  0.98602090  0.56480793  0.17791157  1  0.46929  -0.008003  0.048741  0.101753  -0.008903  3.942535  -0.004
C  C318  1  0.57878865  0.83607251  0.98601789  1  0.423589  -0.008036  0.048792  0.101805  -0.008885  3.942768  -0.004
C  C319  1  0.17790558  0.16392493  0.25728864  1  0.450199  -0.008009  0.048789  0.101746  -0.008889  3.942734  -0.004
C  C320  1  0.57710518  0.30583797  0.97841309  1  0.474527  -0.008233  0.049785  0.10277  -0.008864  3.933039  -0.005
C  C321  1  0.71574827  0.69416057  0.72873272  1  0.476835  -0.008187  0.049819  0.102782  -0.008865  3.932935  -0.005
C  C322  1  0.72873218  0.44448088  0.57710557  1  0.478826  -0.008237  0.049832  0.102948  -0.00887  3.932976  -0.005
C  C323  1  0.97841341  0.55552535  0.71574187  1  0.491787  -0.008202  0.049819  0.102905  -0.008872  3.932961  -0.005
C  C324  1  0.21574848  0.44447815  0.47841251  1  0.491724  -0.0082  0.049811  0.102892  -0.00887  3.93292  -0.005
C  C325  1  0.07711175  0.55552465  0.22872744  1  0.478657  -0.00824  0.04981  0.102885  -0.008874  3.932908  -0.005
C  C326  1  0.47841224  0.69415966  0.07710721  1  0.474127  -0.008233  0.049791  0.102852  -0.008863  3.932918  -0.005
C  C327  1  0.22873177  0.30583840  0.21574848  1  0.475973  -0.008185  0.04981  0.102784  -0.008863  3.932983  -0.005
C  C328  1  0.53871295  0.29720915  0.92942613  1  -0.017185  0.004741  -0.074516  -0.194141  0.001514  3.939594  0.004
C  C329  1  0.77336725  0.70279190  0.75849654  1  0.012659  0.004755  -0.074549  -0.194174  0.001514  3.939634  0.004
C  C330  1  0.75849701  0.53186117  0.53871642  1  0.02666  0.004752  -0.074512  -0.194205  0.001514  3.939434  0.004
C  C331  1  0.92942091  0.46814390  0.77335950  1  0.008419  0.004742  -0.074497  -0.19398  0.001515  3.939482  0.004
C  C332  1  0.27336417  0.53185910  0.42942102  1  0.008196  0.004741  -0.074525  -0.194143  0.001514  3.939478  0.004
C  C333  1  0.03872055  0.46814339  0.25849414  1  0.027252  0.004752  -0.074536  -0.194161  0.001514  3.93947  0.004
C  C334  1  0.42942586  0.70279096  0.03871196  1  -0.016766  0.004741  -0.07457  -0.194277  0.001514  3.939685  0.004
C  C335  1  0.25849852  0.29721057  0.27336475  1  0.018709  0.004756  -0.074497  -0.194178  0.001514  3.939584  0.004
C  C336  1  0.47152248  0.21713047  0.95674709  1  0.344332  -0.014659  0.107078  0.212351  -0.015771  4.015669  -0.01
C  C337  1  0.82612212  0.78286825  0.74560844  1  0.356526  -0.014643  0.10705  0.212295  -0.015766  4.015674  -0.01
C  C338  1  0.74561552  0.57173888  0.47151924  1  0.333571  -0.014666  0.107043  0.212306  -0.01579  4.015372  -0.01
C  C339  1  0.95674045  0.42826586  0.82611983  1  0.366552  -0.014679  0.10702  0.212154  -0.015792  4.015616  -0.01
C  C340  1  0.32612477  0.57173562  0.45674155  1  0.366482  -0.014677  0.106976  0.212112  -0.01579  4.015531  -0.01
C  C341  1  0.97152237  0.42826548  0.24561229  1  0.333561  -0.014672  0.106982  0.212153  -0.015796  4.015574  -0.01
C  C342  1  0.45674823  0.78286867  0.97152433  1  0.344579  -0.014653  0.107123  0.212452  -0.015764  4.015788  -0.01
C  C343  1  0.24560705  0.21713006  0.32612268  1  0.360141  -0.014642  0.107059  0.212336  -0.015768  4.015694  -0.01
C  C344  1  0.47658427  0.21908473  0.84245528  1  0.378086  -0.001653  0.11834  0.233335  -0.002124  4.046546  -0.002
C  C345  1  0.93846102  0.78091550  0.74249819  1  0.382079  -0.001654  0.118428  0.23343  -0.002123  4.046341  -0.002
C  C346  1  0.74249723  0.68095757  0.47659186  1  0.367208  -0.001653  0.118391  0.233475  -0.002119  4.046505  -0.002
C  C347  1  0.84245040  0.31904710  0.93845698  1  0.34931  -0.001652  0.118386  0.233483  -0.00212  4.046472  -0.002
C  C348  1  0.43846104  0.68095534  0.34245075  1  0.350626  -0.001651  0.118361  0.233424  -0.002119  4.046476  -0.002
C  C349  1  0.97659332  0.31904526  0.24249513  1  0.367178  -0.001654  0.11834  0.23336  -0.00212  4.046477  -0.002
C  C350  1  0.34245599  0.78091622  0.97658301  1  0.378045  -0.001652  0.11837  0.233435  -0.002123  4.046738  -0.002
C  C351  1  0.24249837  0.21908250  0.43846200  1  0.382058  -0.001654  0.118369  0.233348  -0.002123  4.046439  -0.002
C  C352  1  0.53691066  0.20718413  0.84616812  1  -0.052211  0.003094  -0.10385  -0.24548  0.001256  3.983396  0.002
C  C353  1  0.94665138  0.79282056  0.67027055  1  -0.05391  0.003109  -0.103867  -0.245548  0.001257  3.983505  0.002
C  C354  1  0.67027318  0.61691972  0.53691547  1  -0.010511  0.00309  -0.103824  -0.245563  0.001255  3.983582  0.002
C  C355  1  0.84616518  0.38308687  0.94664141  1  0.002778  0.003073  -0.103814  -0.245572  0.001256  3.983412  0.002
C  C356  1  0.44664205  0.61691386  0.34616388  1  0.001739  0.003073  -0.103846  -0.245622  0.001256  3.983509  0.002
C  C357  1  0.03691877  0.38308476  0.17027359  1  -0.010583  0.00309  -0.103845  -0.245611  0.001255  3.983564  0.002
C  C358  1  0.34617067  0.79282046  0.03690715  1  -0.052185  0.003095  -0.103868  -0.245539  0.001257  3.983394  0.002
C  C359  1  0.17027183  0.20718141  0.44665105  1  -0.054856  0.003109  -0.103866  -0.245508  0.001257  3.983463  0.002
C  C360  1  0.57904288  0.21996319  0.78384418  1  0.478875  -0.000377  0.037904  0.098882  -0.001321  3.996034  0.0
C  C361  1  0.99619537  0.78003979  0.64091790  1  0.494745  -0.000432  0.037899  0.098862  -0.001321  3.996078  0.0
C  C362  1  0.64092226  0.63711153  0.57904898  1  0.445155  -0.000375  0.037828  0.098808  -0.001318  3.996329  0.0
C  C363  1  0.78383882  0.36289224  0.99618883  1  0.464439  -0.000372  0.037913  0.099009  -0.001318  3.99615  0.0
C  C364  1  0.49618773  0.63710698  0.28383961  1  0.464502  -0.00037  0.037945  0.099107  -0.001318  3.996221  0.0
C  C365  1  0.07905106  0.36289285  0.14092143  1  0.44479  -0.000376  0.037945  0.099071  -0.001319  3.996066  0.0
C  C366  1  0.28384307  0.78003783  0.07904228  1  0.478859  -0.000378  0.037886  0.09885  -0.001321  3.996045  0.0
C  C367  1  0.14091912  0.21996049  0.49619574  1  0.495926  -0.000433  0.037942  0.098862  -0.001321  3.996151  0.0
C  C368  1  0.50860815  0.25500119  0.71379194  1  0.486523  -0.000279  0.041725  0.105822  -0.001266  3.978187  0.0
C  C369  1  0.03120784  0.74499875  0.74639082  1  0.488798  -0.000288  0.041786  0.105907  -0.001266  3.978081  0.0
C  C370  1  0.74639858  0.77760068  0.50860948  1  0.481245  -0.000277  0.041687  0.105703  -0.001263  3.978033  0.0
C  C371  1  0.71379081  0.22240165  0.03120386  1  0.448902  -0.000256  0.041793  0.105846  -0.001264  3.977968  0.0
C  C372  1  0.53120308  0.77759802  0.21378948  1  0.448915  -0.000256  0.041804  0.105882  -0.001263  3.978063  0.0
C  C373  1  0.00860847  0.22240017  0.24639513  1  0.483372  -0.000278  0.04172  0.105846  -0.001263  3.978165  0.0
C  C374  1  0.21379036  0.74499946  0.00860615  1  0.475298  -0.000274  0.041739  0.105872  -0.001266  3.977967  0.0
C  C375  1  0.24639173  0.25499888  0.53120984  1  0.487472  -0.000285  0.041729  0.105826  -0.001266  3.978214  0.0
C  C376  1  0.46263450  0.24311276  0.77332165  1  -0.000332  0.002929  -0.099485  -0.243352  0.00131  3.951805  0.002
C  C377  1  0.98356679  0.75688759  0.78047851  1  -0.015611  0.002928  -0.099498  -0.243386  0.00131  3.951647  0.002
C  C378  1  0.78047990  0.76403763  0.46263823  1  -0.005863  0.002925  -0.099476  -0.243292  0.001309  3.951941  0.002
C  C379  1  0.77332585  0.23596736  0.98355587  1  0.009381  0.002917  -0.099506  -0.243425  0.00131  3.952019  0.002
C  C380  1  0.48355868  0.76403422  0.27332586  1  0.009227  0.002917  -0.099497  -0.243433  0.001309  3.952031  0.002
C  C381  1  0.96263871  0.23596148  0.28047727  1  -0.005661  0.002926  -0.099533  -0.243399  0.001309  3.951972  0.002
C  C382  1  0.27332329  0.75688649  0.96263401  1  0.010934  0.002925  -0.099528  -0.243422  0.00131  3.951807  0.002
C  C383  1  0.28047761  0.24311237  0.48356589  1  -0.014306  0.002925  -0.099495  -0.243363  0.00131  3.95178  0.002
C  C384  1  0.26781411  0.46010042  0.02247557  1  0.537628  0.022659  0.22602  0.283216  0.012371  3.8291  0.023
C  C385  1  0.51742710  0.53990230  0.19228286  1  0.551784  0.022302  0.226038  0.283237  0.012368  3.82901  0.023
C  C386  1  0.19228859  0.70971089  0.26780690  1  0.550473  0.02238  0.226121  0.283363  0.012369  3.829147  0.023
C  C387  1  0.02248155  0.29029095  0.51742378  1  0.525927  0.022674  0.226118  0.283328  0.012369  3.828994  0.023
C  C388  1  0.01742573  0.70970976  0.52247816  1  0.525848  0.02267  0.226075  0.28331  0.012366  3.829252  0.023
C  C389  1  0.76781081  0.29029186  0.69228407  1  0.550525  0.022374  0.226128  0.28339  0.012367  3.829053  0.023
C  C390  1  0.52247557  0.53990036  0.76781162  1  0.537695  0.022659  0.226062  0.283302  0.012371  3.828915  0.023
C  C391  1  0.69228629  0.46010015  0.01742434  1  0.551705  0.022311  0.226012  0.283205  0.012373  3.829104  0.023
C  C392  1  0.99569182  0.05018030  0.22125497  1  0.575319  0.021667  0.223419  0.279709  0.012019  3.830335  0.022
C  C393  1  0.72856731  0.94981770  0.05448796  1  0.55039  0.021769  0.223456  0.279611  0.012015  3.830481  0.022
C  C394  1  0.05449450  0.78305882  0.99569306  1  0.534875  0.022021  0.223383  0.279646  0.012014  3.830691  0.022
C  C395  1  0.22124802  0.21694454  0.72856737  1  0.540397  0.021986  0.223449  0.279616  0.012014  3.830769  0.022
C  C396  1  0.22856493  0.78305505  0.72124781  1  0.540081  0.021989  0.223428  0.279595  0.012015  3.83063  0.022
C  C397  1  0.49569359  0.21694527  0.55449276  1  0.534344  0.022025  0.2234  0.27953  0.012014  3.830756  0.022
C  C398  1  0.72125092  0.94981913  0.49569283  1  0.57519  0.021667  0.22339  0.279514  0.012018  3.830443  0.022
C  C399  1  0.55448828  0.05018201  0.22856705  1  0.550383  0.021771  0.223429  0.279631  0.012016  3.830473  0.022
C  C400  1  0.93221626  0.99992185  0.06777533  1  2.155057  5.8e-05  0.377706  0.722108  4.1e-05  4.127688  0.0
C  C401  1  0.06771303  0.99999942  0.93223399  1  2.134088  5.9e-05  0.377553  0.721894  4.1e-05  4.128185  0.0
C  C402  1  0.43221337  0.99999097  0.56772980  1  2.13236  5.9e-05  0.377914  0.722404  4.1e-05  4.127375  0.0
C  C403  1  0.56772204  0.99996445  0.43227640  1  2.154755  5.8e-05  0.377587  0.721995  4.1e-05  4.128409  0.0
C  C404  1  0.00000507  0.50003925  0.49997213  1  2.079287  7e-06  0.367482  0.694097  3.3e-05  4.128762  0.0
C  C405  1  0.50007975  0.49999588  0.00007395  1  2.081967  7e-06  0.36868  0.695962  3.3e-05  4.127933  0.0
N  N406  1  0.19540975  0.22449388  0.07092993  1  -1.261896  0.054958  -0.334582  -0.258697  0.025674  3.570674  0.044
N  N407  1  0.70457559  0.77550335  0.02908304  1  -1.246687  0.054894  -0.334659  -0.258821  0.025673  3.570639  0.044
N  N408  1  0.02909162  0.73366145  0.19540857  1  -1.230633  0.054945  -0.334621  -0.258845  0.025677  3.570643  0.044
N  N409  1  0.07092728  0.26633533  0.70457311  1  -1.258858  0.05495  -0.334576  -0.258716  0.025676  3.570757  0.044
N  N410  1  0.20457420  0.73366553  0.57092588  1  -1.259115  0.054948  -0.334603  -0.258673  0.025678  3.570634  0.044
N  N411  1  0.69540630  0.26633500  0.52909135  1  -1.231077  0.054949  -0.334582  -0.258722  0.025677  3.570599  0.044
N  N412  1  0.57093216  0.77550645  0.69540843  1  -1.265001  0.054963  -0.334609  -0.258752  0.025675  3.570513  0.044
N  N413  1  0.52908367  0.22449364  0.20457529  1  -1.246831  0.054896  -0.334592  -0.258742  0.025674  3.570541  0.044
N  N414  1  0.30739216  0.14906044  0.97957081  1  -1.202111  -0.000777  -0.263718  -0.139572  -0.000584  3.637543  0.001
N  N415  1  0.87137217  0.85093615  0.84167065  1  -1.192119  -0.000766  -0.263698  -0.139238  -0.000584  3.637337  0.001
N  N416  1  0.84166728  0.71304506  0.30739321  1  -1.200817  -0.00078  -0.263576  -0.139016  -0.000584  3.637015  0.001
N  N417  1  0.97956346  0.28695792  0.87137611  1  -1.190151  -0.000752  -0.263546  -0.139099  -0.000584  3.636945  0.001
N  N418  1  0.37137636  0.71304032  0.47956439  1  -1.190217  -0.000752  -0.263551  -0.139158  -0.000584  3.636968  0.001
N  N419  1  0.80739343  0.28696337  0.34166279  1  -1.200897  -0.00078  -0.263676  -0.139157  -0.000584  3.637041  0.001
N  N420  1  0.47956869  0.85093838  0.80738984  1  -1.20187  -0.000777  -0.263739  -0.139493  -0.000584  3.637555  0.001
N  N421  1  0.34167366  0.14906643  0.37137054  1  -1.192714  -0.000768  -0.263727  -0.139498  -0.000585  3.637572  0.001
N  N422  1  0.19427790  0.88258880  0.07747709  1  -1.242944  0.057929  -0.338626  -0.252763  0.027728  3.56553  0.042
N  N423  1  0.03993569  0.11741088  0.68831156  1  -1.24613  0.057845  -0.338648  -0.25274  0.02773  3.565608  0.042
N  N424  1  0.68831656  0.72824666  0.19428483  1  -1.245536  0.057816  -0.338607  -0.252799  0.027731  3.565462  0.042
N  N425  1  0.07746901  0.27175341  0.03993109  1  -1.238069  0.057905  -0.338628  -0.252798  0.027731  3.565486  0.042
N  N426  1  0.53993316  0.72825235  0.57746745  1  -1.238133  0.057908  -0.338559  -0.252637  0.027731  3.565554  0.042
N  N427  1  0.69428104  0.27175378  0.18831726  1  -1.24564  0.057819  -0.338685  -0.252819  0.027731  3.565307  0.042
N  N428  1  0.57747760  0.11741089  0.69427882  1  -1.243069  0.057929  -0.338671  -0.25279  0.027728  3.565539  0.042
N  N429  1  0.18831229  0.88259483  0.53992961  1  -1.247012  0.057845  -0.338647  -0.252804  0.027727  3.565325  0.042
N  N430  1  0.55207671  0.24018403  0.05194491  1  -1.237518  0.053771  -0.32628  -0.235833  0.025403  3.560241  0.039
N  N431  1  0.70787237  0.75981689  0.68810632  1  -1.242008  0.05376  -0.326273  -0.235754  0.025403  3.560327  0.039
N  N432  1  0.68810903  0.39597276  0.55207882  1  -1.234976  0.053857  -0.32622  -0.235915  0.025398  3.560111  0.039
N  N433  1  0.05194762  0.60403413  0.70785708  1  -1.242226  0.053789  -0.326217  -0.235861  0.025399  3.560144  0.039
N  N434  1  0.20786311  0.39596976  0.55194756  1  -1.241981  0.053791  -0.326201  -0.235849  0.025399  3.560306  0.039
N  N435  1  0.05208432  0.60403454  0.18810494  1  -1.234813  0.053856  -0.326224  -0.235814  0.0254  3.560116  0.039
N  N436  1  0.55194565  0.75981510  0.05207593  1  -1.237529  0.05377  -0.326217  -0.235805  0.025403  3.560228  0.039
N  N437  1  0.18810505  0.24018332  0.20787249  1  -1.241973  0.053757  -0.326296  -0.235789  0.025402  3.560281  0.039
N  N438  1  0.43466105  0.20624446  0.90506230  1  -1.193153  0.000905  -0.270114  -0.158898  0.000305  3.622476  0.002
N  N439  1  0.88869555  0.79375522  0.77158225  1  -1.200238  0.000893  -0.27013  -0.158802  0.000306  3.622176  0.002
N  N440  1  0.77158423  0.66028292  0.43466371  1  -1.200103  0.000895  -0.270139  -0.158865  0.000306  3.62212  0.002
N  N441  1  0.90505339  0.33972132  0.88869421  1  -1.190142  0.000918  -0.270161  -0.15887  0.000305  3.622194  0.002
N  N442  1  0.38869851  0.66028034  0.40505387  1  -1.190442  0.000919  -0.270106  -0.158695  0.000306  3.622099  0.002
N  N443  1  0.93466539  0.33972080  0.27158250  1  -1.200389  0.000895  -0.270116  -0.158783  0.000305  3.62215  0.002
N  N444  1  0.40506421  0.79375594  0.93466191  1  -1.193391  0.000905  -0.270135  -0.158921  0.000306  3.62263  0.002
N  N445  1  0.27158262  0.20624541  0.38869307  1  -1.200481  0.000892  -0.270196  -0.158948  0.000305  3.622456  0.002
N  N446  1  0.56656110  0.24440094  0.71717641  1  -1.242195  0.054439  -0.342325  -0.276435  0.025614  3.577124  0.041
N  N447  1  0.03842531  0.75560210  0.67783675  1  -1.258913  0.054517  -0.34241  -0.276536  0.025614  3.577278  0.041
N  N448  1  0.67784557  0.71626144  0.56656059  1  -1.237334  0.054479  -0.342146  -0.27622  0.025611  3.577296  0.041
N  N449  1  0.71717942  0.28374211  0.03841582  1  -1.270579  0.054481  -0.342272  -0.276378  0.025612  3.577259  0.041
N  N450  1  0.53841608  0.71625660  0.21717898  1  -1.270522  0.054479  -0.342326  -0.276473  0.025613  3.577345  0.041
N  N451  1  0.06656162  0.28374211  0.17784455  1  -1.236874  0.054482  -0.342219  -0.276362  0.025612  3.577117  0.041
N  N452  1  0.21717712  0.75560006  0.06655936  1  -1.242187  0.054445  -0.342307  -0.276447  0.025616  3.57722  0.041
N  N453  1  0.17783784  0.24439733  0.53842476  1  -1.259248  0.054521  -0.34235  -0.276423  0.025615  3.577245  0.041
N  N454  1  0.22255549  0.38584928  0.05167565  1  -1.406599  0.058167  -0.374131  -0.447693  0.026853  3.319972  0.026
N  N455  1  0.56247735  0.61414932  0.16329357  1  -1.421145  0.05838  -0.374174  -0.447729  0.026854  3.320036  0.026
N  N456  1  0.16329975  0.72576865  0.22255206  1  -1.418301  0.058275  -0.374251  -0.447839  0.026863  3.320279  0.026
N  N457  1  0.05167663  0.27423057  0.56247181  1  -1.39345  0.057982  -0.374238  -0.447778  0.026861  3.320137  0.026
N  N458  1  0.06247253  0.72577276  0.55167131  1  -1.393367  0.057985  -0.374177  -0.447707  0.026863  3.32034  0.026
N  N459  1  0.72255673  0.27423329  0.66329695  1  -1.418702  0.058279  -0.374234  -0.447828  0.026863  3.320284  0.026
N  N460  1  0.55167642  0.61415247  0.72255291  1  -1.406669  0.058165  -0.374191  -0.447803  0.026854  3.319906  0.026
N  N461  1  0.66329389  0.38584820  0.06247581  1  -1.421128  0.058384  -0.374162  -0.447731  0.026854  3.319989  0.026
N  N462  1  0.04234347  0.12360545  0.19399441  1  -1.44347  0.056806  -0.372259  -0.445126  0.026051  3.322996  0.025
N  N463  1  0.68240296  0.87639549  0.08125960  1  -1.416306  0.056525  -0.372316  -0.445064  0.026051  3.323075  0.025
N  N464  1  0.08125814  0.76366498  0.04234413  1  -1.397891  0.05628  -0.372233  -0.445036  0.026059  3.323355  0.025
N  N465  1  0.19399082  0.23633804  0.68240831  1  -1.402986  0.056358  -0.372268  -0.444983  0.026058  3.32336  0.025
N  N466  1  0.18240796  0.76366357  0.69398800  1  -1.402619  0.05635  -0.372285  -0.44499  0.026057  3.323213  0.025
N  N467  1  0.54234500  0.23633895  0.58125712  1  -1.397383  0.056271  -0.372224  -0.444926  0.026056  3.32334  0.025
N  N468  1  0.69399567  0.87639735  0.54234360  1  -1.443333  0.056809  -0.372228  -0.444977  0.026052  3.323145  0.025
N  N469  1  0.58125990  0.12360385  0.18240264  1  -1.416291  0.056527  -0.372264  -0.44505  0.026051  3.323058  0.025
O  O470  1  0.88483923  0.92766781  0.09131750  1  -1.091746  0.00021  -0.165928  -0.348011  4.7e-05  2.216835  0.0
O  O471  1  0.98092903  0.07217100  0.04289378  1  -1.094437  0.000211  -0.166227  -0.348321  4.7e-05  2.215707  0.0
O  O472  1  0.04283669  0.02383707  0.88485941  1  -1.082591  0.00021  -0.16592  -0.348026  4.7e-05  2.21651  0.0
O  O473  1  0.09124817  0.97616713  0.98094834  1  -1.082277  0.00021  -0.166074  -0.348059  4.7e-05  2.216421  0.0
O  O474  1  0.48092363  0.02382847  0.59127253  1  -1.081064  0.00021  -0.166346  -0.348461  4.7e-05  2.215916  0.0
O  O475  1  0.38484743  0.97615089  0.54284954  1  -1.082116  0.00021  -0.166021  -0.348162  4.7e-05  2.216346  0.0
O  O476  1  0.59127562  0.07220807  0.38489804  1  -1.089369  0.00021  -0.166145  -0.348167  4.7e-05  2.216763  0.0
O  O477  1  0.54282261  0.92770373  0.48100890  1  -1.096499  0.000211  -0.165895  -0.348036  4.7e-05  2.216439  0.0
O  O478  1  0.03810275  0.57617629  0.46192571  1  -1.04801  5.8e-05  -0.163586  -0.33194  -1e-05  2.172476  0.0
O  O479  1  0.96191083  0.42390751  0.53801325  1  -1.048172  5.8e-05  -0.163873  -0.331864  -1e-05  2.172516  0.0
O  O480  1  0.53814192  0.49998723  0.03813990  1  -1.048902  5.7e-05  -0.163972  -0.332907  -1e-05  2.173474  0.0
O  O481  1  0.46200911  0.50000941  0.96199976  1  -1.049573  5.7e-05  -0.164702  -0.332752  -1e-05  2.170802  0.0
