# generated using pymatgen
data_Co5H68C106N8O19
_symmetry_space_group_name_H-M   'P 1'
_cell_length_a   16.20382875
_cell_length_b   16.14712120
_cell_length_c   29.59162853
_cell_angle_alpha   73.23588899
_cell_angle_beta   73.24519521
_cell_angle_gamma   63.36806718
_symmetry_Int_Tables_number   1
_chemical_formula_structural   Co5H68C106N8O19
_chemical_formula_sum   'Co10 H136 C212 N16 O38'
_cell_volume   6511.59346160
_cell_formula_units_Z   2
loop_
 _symmetry_equiv_pos_site_id
 _symmetry_equiv_pos_as_xyz
  1  'x, y, z'
loop_
 _atom_site_type_symbol
 _atom_site_label
 _atom_site_symmetry_multiplicity
 _atom_site_fract_x
 _atom_site_fract_y
 _atom_site_fract_z
 _atom_site_occupancy
 _atom_site_pbe_bader_charge
 _atom_site_pbe_bader_spin_density
 _atom_site_pbe_cm5_charge
 _atom_site_pbe_ddec_charge
 _atom_site_pbe_ddec_spin_density
 _atom_site_pbe_ddec_sum_bond_order
 _atom_site_pbe_magmom
Co  Co0  1  0.79177147  0.12834796  0.51639539  1  1.192352  1.136985  0.651851  0.788404  1.230729  2.971434  1.122
Co  Co1  1  0.05341167  0.81786567  0.57893379  1  1.226175  2.475095  0.632253  0.830401  2.671279  2.580208  2.448
Co  Co2  1  0.86871601  0.20745888  0.98861337  1  1.256134  2.510176  0.653826  0.868706  2.719575  2.651623  2.486
Co  Co3  1  0.18279678  0.94699626  0.92096509  1  1.244239  2.508206  0.640271  0.855535  2.711086  2.570637  2.481
Co  Co4  1  0.20486657  0.86897273  0.48911028  1  1.250465  2.499421  0.651398  0.861592  2.708068  2.665384  2.475
Co  Co5  1  0.94767485  0.17718070  0.42051780  1  1.22443  2.356917  0.630114  0.829601  2.548786  2.623359  2.331
Co  Co6  1  0.13145757  0.79060076  0.01181797  1  1.263879  2.521743  0.65667  0.876416  2.733834  2.646094  2.498
Co  Co7  1  0.81718512  0.05433392  0.07924292  1  1.234501  2.496607  0.635616  0.842062  2.696701  2.566631  2.469
Co  Co8  1  0.99486179  0.00347860  0.50104332  1  1.314495  1.530422  0.643895  1.051561  1.677901  2.823257  1.52
Co  Co9  1  0.00094801  0.99859170  0.00023324  1  1.332826  1.589801  0.651173  1.081683  1.743109  2.827893  1.578
H  H10  1  0.73677219  0.01021706  0.60547975  1  0.10444  1e-05  0.117676  0.08944  -0.000211  1.028402  0.0
H  H11  1  0.64643663  0.03625981  0.68750792  1  0.068474  3.3e-05  0.106562  0.113122  5.6e-05  0.994545  0.0
H  H12  1  0.54064605  0.33483405  0.62935323  1  0.036791  0.000113  0.103672  0.10896  0.000108  1.001183  0.0
H  H13  1  0.63643710  0.29621200  0.55065321  1  0.104261  -1.7e-05  0.116498  0.081664  -0.000233  1.035429  0.0
H  H14  1  0.48042948  0.10274306  0.73235407  1  0.070659  2.6e-05  0.102048  0.107642  -5e-06  1.009927  0.0
H  H15  1  0.37146135  0.29199076  0.83270149  1  0.127836  -7.9e-05  0.107714  0.129272  -0.000124  1.020874  0.0
H  H16  1  0.57566880  0.32617102  0.70685763  1  0.114694  -3.5e-05  0.111161  0.132805  -5.8e-05  0.993371  0.0
H  H17  1  0.48252578  0.00364904  0.82450584  1  0.098956  0.000644  0.106244  0.113918  0.000315  0.992715  0.0
H  H18  1  0.38468760  0.91833747  0.87867826  1  0.10419  0.00019  0.113597  0.080473  -0.000494  1.039786  0.001
H  H19  1  0.13977588  0.15726578  0.86914221  1  0.114725  0.001066  0.116524  0.086609  0.00023  1.016301  0.001
H  H20  1  0.22789129  0.25658239  0.81866373  1  0.08813  0.00075  0.106729  0.114914  0.000348  0.991442  0.0
H  H21  1  0.39395014  0.45864236  0.86357628  1  0.096593  -0.000218  0.105364  0.118785  -0.000408  1.029265  0.0
H  H22  1  0.16884763  0.69473830  0.80113770  1  0.06723  2.7e-05  0.098242  0.096557  -9e-05  1.042509  0.0
H  H23  1  0.38111130  0.48860645  0.71705519  1  0.074182  -0.000463  0.102804  0.11386  -0.00059  1.024194  0.0
H  H24  1  0.37552769  0.55964927  0.90480558  1  0.079017  0.000937  0.103483  0.107928  0.000506  1.006786  0.0
H  H25  1  0.31280087  0.63743304  0.97543563  1  0.089417  0.001836  0.114232  0.082213  0.000324  1.008588  0.001
H  H26  1  0.04319607  0.76426978  0.94709518  1  0.113807  0.002064  0.123223  0.101441  0.000402  0.989812  0.001
H  H27  1  0.09339246  0.69139758  0.87511706  1  0.058564  0.000965  0.107032  0.113398  0.000545  0.998571  0.0
H  H28  1  0.13988798  0.78489487  0.73751150  1  0.07677  0.000701  0.10199  0.104469  0.000429  1.021864  0.0
H  H29  1  0.06721120  0.86891223  0.66553177  1  0.130355  0.001662  0.117839  0.095567  0.000221  1.017182  0.001
H  H30  1  0.21581682  0.63625085  0.60002125  1  0.066222  0.001578  0.115181  0.084029  7.7e-05  1.013089  0.001
H  H31  1  0.29035547  0.53956002  0.66989677  1  0.045703  0.00081  0.103517  0.109579  0.000502  1.006388  0.0
H  H32  1  0.96065616  0.73917477  0.52318814  1  0.117575  7.5e-05  0.108047  0.119417  -7.7e-05  1.018777  0.0
H  H33  1  0.91019567  0.60550973  0.54429051  1  0.078736  4e-06  0.104823  0.118348  5e-06  1.001213  0.0
H  H34  1  0.62051851  0.80064999  0.56747588  1  0.061296  6.5e-05  0.106515  0.123241  3.4e-05  0.989704  0.0
H  H35  1  0.67236765  0.93482933  0.54634233  1  0.115249  -6.8e-05  0.105213  0.112183  -0.000143  0.996465  0.0
H  H36  1  0.83709758  0.59613266  0.48473069  1  0.090755  4.9e-05  0.103464  0.119353  4.9e-05  1.010405  0.0
H  H37  1  0.88102317  0.45215909  0.45269635  1  0.079706  0.000115  0.100965  0.10221  -6e-06  1.011057  0.0
H  H38  1  0.73036726  0.34272345  0.58262393  1  0.07232  -3.1e-05  0.100645  0.097023  -0.000129  1.051647  0.0
H  H39  1  0.69094083  0.48376411  0.61665281  1  0.090862  0.000143  0.102384  0.117423  0.000112  1.0183  0.0
H  H40  1  0.10799990  0.04861193  0.30030809  1  0.049822  0.000186  0.101135  0.103909  -1.2e-05  1.007861  0.0
H  H41  1  0.17713459  0.95261411  0.23511535  1  0.06907  0.000111  0.105362  0.121428  6.1e-05  0.991432  0.0
H  H42  1  0.21395255  0.69945489  0.34191046  1  0.054095  0.000135  0.102459  0.11875  7e-05  1.009178  0.0
H  H43  1  0.14564039  0.79691853  0.40712977  1  0.113373  3.8e-05  0.107545  0.115884  -0.000149  1.01917  0.0
H  H44  1  0.98933090  0.26776601  0.89280726  1  0.128211  0.00089  0.115894  0.088398  8.8e-05  1.019792  0.001
H  H45  1  0.96375585  0.35593174  0.80989495  1  0.074187  0.000739  0.105951  0.112628  0.000364  0.994217  0.0
H  H46  1  0.66598772  0.46000322  0.86734662  1  0.056224  0.000713  0.103342  0.108668  0.000359  1.002405  0.0
H  H47  1  0.70459202  0.36707393  0.94676861  1  0.096831  0.000829  0.115182  0.082797  0.000113  1.028414  0.001
H  H48  1  0.89666593  0.52160483  0.76466852  1  0.055634  6.8e-05  0.101506  0.107065  1.4e-05  1.010666  0.0
H  H49  1  0.70661245  0.63173427  0.66501822  1  0.091913  -0.00011  0.108059  0.129197  -0.000155  1.017486  0.0
H  H50  1  0.67510184  0.42453859  0.79021790  1  0.074197  -2.8e-05  0.111227  0.133881  -5.3e-05  0.992321  0.0
H  H51  1  0.99475837  0.52000513  0.67351667  1  0.052538  0.000693  0.106736  0.114185  0.000341  0.993885  0.0
H  H52  1  0.08050672  0.61799585  0.62038542  1  0.09696  0.000225  0.113461  0.077704  -0.000506  1.045196  0.001
H  H53  1  0.84251435  0.86405270  0.62929304  1  0.081793  0.001082  0.115946  0.085179  0.000185  1.019928  0.001
H  H54  1  0.74278850  0.77574210  0.67854075  1  0.085117  0.000797  0.106833  0.114989  0.000381  0.992126  0.0
H  H55  1  0.54020690  0.60885231  0.63479127  1  0.070063  -0.000285  0.105584  0.119627  -0.00043  1.027181  0.0
H  H56  1  0.30433560  0.83281613  0.69829728  1  0.058315  -9e-06  0.098377  0.09665  -0.000119  1.042856  0.0
H  H57  1  0.51129097  0.61970544  0.78153657  1  0.069015  -0.000534  0.102852  0.114459  -0.000647  1.024507  0.0
H  H58  1  0.43927758  0.62624267  0.59424941  1  0.03884  0.000942  0.103197  0.1075  0.000516  1.007265  0.0
H  H59  1  0.35947053  0.68824066  0.52452397  1  0.075278  0.001826  0.114357  0.082678  0.000305  1.007131  0.001
H  H60  1  0.23089399  0.95861653  0.55329913  1  0.128275  0.002119  0.123861  0.102359  0.000403  0.98882  0.001
H  H61  1  0.30556237  0.90908802  0.62448664  1  0.062918  0.000937  0.10646  0.111861  0.000541  0.998785  0.0
H  H62  1  0.21512213  0.86196934  0.76181329  1  0.061226  0.000754  0.10157  0.104524  0.000463  1.022339  0.0
H  H63  1  0.13166404  0.93400006  0.83403940  1  0.155035  0.001727  0.117668  0.095123  0.000225  1.014743  0.001
H  H64  1  0.36346102  0.78361350  0.89949002  1  0.105697  0.001696  0.115339  0.084137  0.000133  1.015004  0.001
H  H65  1  0.45971528  0.70961926  0.82935273  1  0.056294  0.000806  0.103214  0.108563  0.000501  1.007694  0.0
H  H66  1  0.26737746  0.03742538  0.97371701  1  0.106059  0.000143  0.106948  0.117388  -4.2e-05  1.024056  0.0
H  H67  1  0.39980702  0.09038264  0.95025766  1  0.08674  0.000138  0.104262  0.117663  5.7e-05  1.000092  0.0
H  H68  1  0.20216162  0.37998154  0.93005651  1  0.058782  0.000115  0.105257  0.121815  4.4e-05  0.991512  0.0
H  H69  1  0.06935721  0.32540878  0.95308467  1  0.114423  0.000246  0.104481  0.111541  2.7e-05  0.999595  0.0
H  H70  1  0.39969827  0.16703656  0.01218106  1  0.096875  0.000135  0.103815  0.11954  8.8e-05  1.012622  0.0
H  H71  1  0.53985138  0.12263162  0.04721711  1  0.07788  0.000176  0.100962  0.102199  1.5e-05  1.006726  0.0
H  H72  1  0.65599849  0.27196232  0.91919109  1  0.118441  9.6e-05  0.101055  0.097756  -6.6e-05  1.049582  0.0
H  H73  1  0.51953799  0.31045462  0.88182118  1  0.087279  0.000151  0.102892  0.117701  0.000119  1.016532  0.0
H  H74  1  0.95254100  0.88845948  0.20020666  1  0.087684  0.000213  0.101069  0.103114  1.2e-05  1.00878  0.0
H  H75  1  0.04912292  0.82184108  0.26487353  1  0.079933  0.000106  0.10534  0.121717  5.5e-05  0.992589  0.0
H  H76  1  0.29967586  0.78799172  0.15714419  1  0.107106  0.000144  0.102995  0.118934  7.2e-05  1.011  0.0
H  H77  1  0.20172809  0.85382587  0.09248315  1  0.13749  4.8e-05  0.108064  0.11629  -0.000144  1.016878  0.0
H  H78  1  0.26293667  0.99052427  0.39300633  1  0.085413  0.000947  0.115553  0.086503  0.000122  1.022447  0.001
H  H79  1  0.35199178  0.96541601  0.31020503  1  0.068894  0.000791  0.105637  0.11149  0.000389  0.995762  0.0
H  H80  1  0.45915044  0.66665457  0.36775924  1  0.050764  0.000764  0.102793  0.108095  0.000382  1.001805  0.0
H  H81  1  0.36524640  0.70482552  0.44709175  1  0.095872  0.000883  0.114744  0.082765  0.00014  1.028408  0.001
H  H82  1  0.51977694  0.89824214  0.26537449  1  0.05694  7e-05  0.101611  0.10723  1.7e-05  1.010384  0.0
H  H83  1  0.63128246  0.70623958  0.16621955  1  0.127995  -9.3e-05  0.108066  0.129134  -0.000153  1.021572  0.0
H  H84  1  0.42328493  0.67577541  0.29076231  1  0.0719  -1.6e-05  0.111039  0.13266  -4.3e-05  0.992974  0.0
H  H85  1  0.51950270  0.99580395  0.17420707  1  0.075314  0.000676  0.106437  0.114134  0.000329  0.992972  0.0
H  H86  1  0.61723305  0.08165919  0.12092381  1  0.109635  0.000259  0.113934  0.078276  -0.000463  1.043674  0.001
H  H87  1  0.86230105  0.84272642  0.12992025  1  0.143747  0.001094  0.117173  0.087802  0.000223  1.015605  0.001
H  H88  1  0.77429201  0.74292635  0.17960839  1  0.089462  0.000776  0.107472  0.115834  0.000364  0.992114  0.0
H  H89  1  0.60766859  0.54039057  0.13565081  1  0.0825  -0.000338  0.1054  0.11907  -0.000524  1.028833  0.0
H  H90  1  0.83252336  0.30502666  0.19858693  1  0.053206  1.3e-05  0.098119  0.096812  -0.000104  1.041875  0.0
H  H91  1  0.61945814  0.51152921  0.28223562  1  0.080799  -0.000497  0.103004  0.115182  -0.000641  1.021698  0.0
H  H92  1  0.62565610  0.43925512  0.09507850  1  0.064156  0.00089  0.103332  0.108249  0.000485  1.007398  0.0
H  H93  1  0.68781634  0.36049402  0.02481391  1  0.065372  0.001832  0.114996  0.082829  0.000321  1.006641  0.001
H  H94  1  0.95759474  0.23339643  0.05290979  1  0.118672  0.00211  0.123848  0.102213  0.000413  0.99022  0.001
H  H95  1  0.90798416  0.30720664  0.12456168  1  0.060481  0.000949  0.107402  0.114365  0.000542  0.997385  0.0
H  H96  1  0.85923370  0.21474186  0.26215007  1  0.065537  0.000772  0.100844  0.103499  0.00049  1.023722  0.0
H  H97  1  0.92953709  0.12916069  0.33457747  1  0.140654  0.001662  0.116215  0.093286  0.000138  1.017349  0.001
H  H98  1  0.78439536  0.36212619  0.39995082  1  0.101557  0.001572  0.114632  0.084189  0.000128  1.017301  0.001
H  H99  1  0.71141068  0.46019184  0.32967949  1  0.059143  0.000709  0.102351  0.108263  0.000458  1.007506  0.0
H  H100  1  0.03541874  0.26839538  0.47369067  1  0.112821  9.8e-05  0.107396  0.117259  -6.6e-05  1.020896  0.0
H  H101  1  0.08991202  0.40017698  0.45072264  1  0.06386  0.000136  0.104072  0.117155  5.8e-05  1.001384  0.0
H  H102  1  0.37754506  0.19946805  0.43150995  1  0.077016  0.000101  0.105762  0.122643  5e-05  0.989818  0.0
H  H103  1  0.32145704  0.06744372  0.45412105  1  0.093941  0.000233  0.105115  0.111912  1.3e-05  1.000453  0.0
H  H104  1  0.16590353  0.39904701  0.51270293  1  0.081763  0.000131  0.104229  0.120941  8.6e-05  1.010446  0.0
H  H105  1  0.12054716  0.54090225  0.54705749  1  0.082894  0.00016  0.101647  0.103163  2e-06  1.00708  0.0
H  H106  1  0.27084510  0.65579051  0.41904609  1  0.112809  8.8e-05  0.101163  0.098499  -7.6e-05  1.04816  0.0
H  H107  1  0.31015346  0.51767580  0.38227663  1  0.091391  0.000151  0.102893  0.118237  0.000116  1.018446  0.0
H  H108  1  0.88819343  0.95160945  0.70241182  1  0.090663  0.000232  0.100772  0.102976  2.8e-05  1.007813  0.0
H  H109  1  0.81993012  0.04858896  0.76724418  1  0.069417  0.000146  0.105276  0.121821  6.2e-05  0.992177  0.0
H  H110  1  0.78547409  0.30048886  0.65978225  1  0.051564  0.000142  0.102566  0.118883  6.2e-05  1.00869  0.0
H  H111  1  0.85285560  0.20205908  0.59494962  1  0.118353  5.8e-05  0.107575  0.11624  -8.3e-05  1.023342  0.0
H  H112  1  0.01218344  0.73109844  0.10737739  1  0.069781  0.000845  0.116368  0.088467  7.1e-05  1.019398  0.001
H  H113  1  0.03740743  0.64350201  0.19041731  1  0.074848  0.00073  0.105829  0.112007  0.000361  0.996106  0.0
H  H114  1  0.33534431  0.53994801  0.13339404  1  0.038485  0.000692  0.103184  0.108076  0.000344  1.001585  0.0
H  H115  1  0.29704230  0.63244325  0.05379035  1  0.115726  0.000819  0.115294  0.083536  0.000111  1.028649  0.001
H  H116  1  0.10331403  0.47891813  0.23528935  1  0.055601  6.7e-05  0.101747  0.107439  2.1e-05  1.010532  0.0
H  H117  1  0.29223809  0.36684710  0.33564907  1  0.124012  -6.6e-05  0.108233  0.129431  -0.000115  1.022541  0.0
H  H118  1  0.32599652  0.57390524  0.21085439  1  0.119386  -6e-06  0.111569  0.13397  -4.4e-05  0.992404  0.0
H  H119  1  0.00426090  0.48050585  0.32642714  1  0.046364  0.000525  0.106424  0.114067  0.000241  0.993631  0.0
H  H120  1  0.91770753  0.38271430  0.37943316  1  0.084682  0.000127  0.114456  0.078476  -0.000591  1.041957  0.001
H  H121  1  0.15492474  0.13627232  0.37029273  1  0.096241  0.001095  0.116705  0.085464  0.00027  1.017645  0.001
H  H122  1  0.25530110  0.22391017  0.32109219  1  0.098235  0.000761  0.106904  0.114961  0.000334  0.991812  0.0
H  H123  1  0.46124107  0.39174680  0.36609457  1  0.112292  -0.000174  0.105814  0.119729  -0.000349  1.026504  0.0
H  H124  1  0.69841601  0.16912428  0.30231831  1  0.06308  2.7e-05  0.098053  0.095598  -7.4e-05  1.044912  0.0
H  H125  1  0.48785659  0.37818718  0.22006648  1  0.080098  -0.000358  0.103035  0.114113  -0.000462  1.025598  0.0
H  H126  1  0.56210751  0.37594661  0.40656125  1  0.070404  0.001181  0.10394  0.108281  0.000542  1.006761  0.0
H  H127  1  0.63862842  0.31390218  0.47735730  1  0.073921  0.002326  0.11502  0.080522  0.000722  1.007961  0.001
H  H128  1  0.77105681  0.04418821  0.44762563  1  0.132298  0.002535  0.12314  0.100023  0.000803  0.993128  0.001
H  H129  1  0.69860887  0.09348995  0.37589508  1  0.0703  0.001135  0.107352  0.113432  0.000533  0.998568  0.0
H  H130  1  0.78600926  0.13727078  0.23884266  1  0.066044  0.000737  0.101846  0.105605  0.000448  1.020951  0.0
H  H131  1  0.86877953  0.06592319  0.16641701  1  0.120647  0.001663  0.117568  0.095085  0.000215  1.017557  0.001
H  H132  1  0.63608809  0.21665757  0.10165066  1  0.091611  0.001642  0.116044  0.085557  0.000123  1.012096  0.001
H  H133  1  0.54061096  0.29013655  0.17192418  1  0.066828  0.000812  0.103423  0.109587  0.000501  1.007171  0.0
H  H134  1  0.73416429  0.96139880  0.02598430  1  0.119505  0.000145  0.106947  0.116988  -3.4e-05  1.021478  0.0
H  H135  1  0.60115163  0.90928102  0.04934615  1  0.05961  0.000138  0.104396  0.117991  5.5e-05  0.99983  0.0
H  H136  1  0.79764974  0.61923203  0.06976020  1  0.047947  0.000109  0.105625  0.122169  3.8e-05  0.990803  0.0
H  H137  1  0.93102869  0.67295401  0.04689848  1  0.108644  0.000254  0.104908  0.1121  3.2e-05  0.999506  0.0
H  H138  1  0.60015116  0.83311128  0.98771756  1  0.094756  0.00013  0.103937  0.119677  8.3e-05  1.012537  0.0
H  H139  1  0.45971551  0.87775880  0.95284652  1  0.077182  0.000193  0.100985  0.102539  3.1e-05  1.007045  0.0
H  H140  1  0.34383127  0.72831706  0.08094999  1  0.118678  8.4e-05  0.100781  0.097166  -7.3e-05  1.049751  0.0
H  H141  1  0.48052900  0.68968726  0.11816469  1  0.08803  0.000149  0.102547  0.117361  0.000117  1.017453  0.0
H  H142  1  0.04740198  0.11315295  0.80017878  1  0.086905  0.000236  0.100653  0.103224  2.3e-05  1.008178  0.0
H  H143  1  0.94950587  0.18069827  0.73599417  1  0.068118  0.000115  0.105314  0.120862  6.4e-05  0.992544  0.0
H  H144  1  0.70052641  0.21194831  0.84456930  1  0.05614  0.00015  0.102911  0.11891  7.3e-05  1.011827  0.0
H  H145  1  0.79965621  0.14525993  0.90876059  1  0.131372  3.4e-05  0.108363  0.11724  -0.000157  1.017923  0.0
C  C146  1  0.69225389  0.08096153  0.61264794  1  0.439701  -0.00772  0.042538  0.085632  -0.007788  3.941074  -0.004
C  C147  1  0.64075280  0.09642479  0.65809044  1  -0.023672  0.001484  -0.08722  -0.177531  0.000176  3.965784  0.002
C  C148  1  0.58691375  0.18891726  0.66625525  1  0.046725  -0.012128  0.003956  0.102061  -0.0125  3.997629  -0.008
C  C149  1  0.58425541  0.26148281  0.62605700  1  -0.001546  0.001179  -0.090764  -0.184637  -1.2e-05  3.99107  0.001
C  C150  1  0.63635283  0.24046634  0.58169683  1  0.435465  -0.007487  0.03793  0.083134  -0.007843  3.973528  -0.004
C  C151  1  0.53342189  0.21190040  0.71363512  1  -0.034555  8.2e-05  -0.006925  0.089281  -0.000373  4.032064  0.001
C  C152  1  0.47983343  0.16181953  0.74353673  1  -0.049591  -0.003169  -0.094769  -0.201666  -0.003252  3.94519  -0.002
C  C153  1  0.42008432  0.19098248  0.78599102  1  -0.020613  0.000383  -0.007178  0.091361  -9.2e-05  4.031863  0.001
C  C154  1  0.41579911  0.26945136  0.79933763  1  -0.005941  -0.004235  -0.098002  -0.248125  -0.004407  3.934305  -0.003
C  C155  1  0.47355776  0.31555486  0.77078241  1  0.387711  0.000624  0.082792  0.270174  0.000286  4.071508  0.001
C  C156  1  0.53143444  0.28856570  0.72810102  1  -0.01864  -0.004066  -0.095538  -0.241714  -0.004177  3.935568  -0.002
C  C157  1  0.36323717  0.13801012  0.81677697  1  0.014183  -0.00993  0.008879  0.111509  -0.010236  3.996387  -0.006
C  C158  1  0.40652197  0.04088084  0.83358658  1  -0.141535  0.003659  -0.089865  -0.187616  0.001496  3.971468  0.003
C  C159  1  0.35226143  0.99274063  0.86337114  1  0.557816  -0.005986  0.042854  0.092168  -0.006556  3.970242  -0.003
C  C160  1  0.21605495  0.12679116  0.85909135  1  0.506203  -0.005048  0.050558  0.102874  -0.005417  3.953876  -0.003
C  C161  1  0.26544660  0.18121787  0.83062317  1  -0.086649  0.003207  -0.086575  -0.182348  0.001295  3.955577  0.003
C  C162  1  0.39327022  0.46723113  0.79007820  1  0.409803  0.00343  0.079995  0.267535  0.001414  4.080676  0.004
C  C163  1  0.35860640  0.49962594  0.83326912  1  -0.008228  -0.022191  -0.100388  -0.246097  -0.022826  3.945897  -0.013
C  C164  1  0.27657547  0.58237048  0.83747646  1  -0.001917  0.00207  -0.009208  0.086721  -0.000194  4.030307  0.004
C  C165  1  0.23165197  0.63004916  0.79781263  1  -0.065231  -0.016654  -0.09284  -0.191208  -0.016914  3.938114  -0.01
C  C166  1  0.26721770  0.59827882  0.75383000  1  -0.027532  0.000868  -0.00904  0.086854  -0.001037  4.019114  0.003
C  C167  1  0.34912573  0.51511689  0.75055552  1  -0.019214  -0.023587  -0.100018  -0.245262  -0.024391  3.949095  -0.014
C  C168  1  0.24044901  0.61991484  0.88228386  1  0.035952  -0.032729  0.001468  0.096414  -0.033656  3.98849  -0.021
C  C169  1  0.30067469  0.60294963  0.91296315  1  -0.045041  0.00624  -0.091536  -0.180018  0.002137  3.98023  0.006
C  C170  1  0.26629790  0.64617118  0.95258638  1  0.462963  -0.017119  0.037719  0.079923  -0.017747  3.99082  -0.01
C  C171  1  0.11617509  0.71832330  0.93615249  1  0.482294  -0.020042  0.045746  0.1018  -0.020842  3.933763  -0.012
C  C172  1  0.14533955  0.67773174  0.89588175  1  -0.069251  0.006591  -0.087437  -0.180126  0.002327  3.966929  0.006
C  C173  1  0.22232953  0.65217998  0.71161051  1  0.001319  -0.036775  -0.000807  0.096875  -0.037917  3.982153  -0.023
C  C174  1  0.15838686  0.74733596  0.70843888  1  0.024934  0.00456  -0.093042  -0.184351  0.000837  3.973368  0.005
C  C175  1  0.11815694  0.79599564  0.66801511  1  0.370025  -0.019117  0.03814  0.090024  -0.019533  3.946132  -0.011
C  C176  1  0.20015496  0.66611535  0.63167113  1  0.503208  -0.020542  0.03355  0.074737  -0.021066  3.998548  -0.012
C  C177  1  0.24221705  0.61270663  0.67112750  1  -0.053884  0.007147  -0.094745  -0.186383  0.002472  3.978932  0.007
C  C178  1  0.85080620  0.92388889  0.52408339  1  1.532445  -0.005118  0.211627  0.552987  -0.006141  4.182418  -0.003
C  C179  1  0.81964212  0.84526668  0.53313943  1  -0.021439  0.002485  -0.027462  -0.060637  0.000929  3.999244  0.002
C  C180  1  0.88621318  0.75243055  0.53189911  1  -0.027476  -0.002677  -0.08084  -0.065445  -0.002863  3.959333  -0.002
C  C181  1  0.85805951  0.67773493  0.54389457  1  -0.003457  0.000772  -0.105384  -0.21075  0.000217  4.004115  0.001
C  C182  1  0.76205217  0.69639443  0.55668056  1  0.333001  -0.003564  0.080182  0.252677  -0.003858  4.053092  -0.002
C  C183  1  0.69471999  0.78864955  0.55730118  1  0.057103  0.000671  -0.107645  -0.209736  0.000203  4.022109  0.001
C  C184  1  0.72369669  0.86258922  0.54558119  1  -0.10308  -0.002463  -0.089021  -0.082661  -0.002639  4.010574  -0.001
C  C185  1  0.76086455  0.54830077  0.55273088  1  0.403561  -0.004962  0.084578  0.268524  -0.005326  4.044575  -0.003
C  C186  1  0.81492626  0.54005923  0.50654747  1  -0.054364  0.001218  -0.112689  -0.22646  0.000405  4.017338  0.001
C  C187  1  0.83879671  0.45965867  0.48854334  1  -0.032681  -0.004243  -0.087814  -0.07026  -0.004429  4.001162  -0.003
C  C188  1  0.80825710  0.38801029  0.51524606  1  -0.029636  0.008341  -0.032346  -0.066016  0.00408  3.993231  0.007
C  C189  1  0.75429982  0.39792594  0.56151121  1  0.002577  -0.003689  -0.089414  -0.077712  -0.003878  4.007084  -0.002
C  C190  1  0.73171190  0.47635569  0.58048604  1  -0.058976  0.001401  -0.110805  -0.214553  0.00056  4.006298  0.001
C  C191  1  0.82992079  0.30449788  0.49439537  1  1.552819  -0.011337  0.213222  0.570017  -0.013122  4.164814  -0.008
C  C192  1  0.07508128  0.98670414  0.39591173  1  1.540073  -0.002255  0.210427  0.568763  -0.003255  4.184989  -0.001
C  C193  1  0.12151474  0.92821668  0.35753880  1  0.074806  0.007504  -0.029526  -0.057657  0.003797  3.994553  0.006
C  C194  1  0.13146930  0.97210506  0.30902252  1  -0.009318  -0.001341  -0.091024  -0.08374  -0.001608  4.018822  -0.001
C  C195  1  0.17022241  0.91909494  0.27290416  1  -0.080535  0.000793  -0.107923  -0.213141  0.000286  4.027148  0.001
C  C196  1  0.19849667  0.82104623  0.28531201  1  0.42029  -0.003209  0.080146  0.258207  -0.003475  4.054855  -0.002
C  C197  1  0.19182466  0.77581711  0.33331624  1  -0.000936  0.000986  -0.105771  -0.210678  0.000365  3.999913  0.001
C  C198  1  0.15331213  0.82979512  0.36929553  1  -0.105616  -0.002355  -0.081791  -0.066863  -0.002667  3.964047  -0.001
C  C199  1  0.91883530  0.31137611  0.88518512  1  0.50678  -0.007903  0.047462  0.098487  -0.008365  3.951839  -0.004
C  C200  1  0.90383090  0.36136424  0.83929350  1  -0.022708  0.003797  -0.087102  -0.180426  0.001426  3.956156  0.004
C  C201  1  0.81168584  0.41422997  0.83093903  1  -0.089815  -0.014782  0.007577  0.108912  -0.015253  3.991967  -0.01
C  C202  1  0.73907011  0.41724836  0.87098466  1  0.020055  0.003764  -0.091525  -0.187954  0.00134  3.981096  0.003
C  C203  1  0.76021406  0.36664099  0.91563298  1  0.455995  -0.00801  0.039833  0.092082  -0.008479  3.979663  -0.004
C  C204  1  0.78861562  0.46752511  0.78343841  1  -0.010177  0.000122  -0.005809  0.090214  -0.000444  4.025232  0.001
C  C205  1  0.83781696  0.52197446  0.75358629  1  -0.051971  -0.004023  -0.093918  -0.200312  -0.004127  3.94412  -0.003
C  C206  1  0.80810462  0.58243981  0.71132555  1  -0.035615  0.000412  -0.006671  0.090773  -0.000186  4.032292  0.001
C  C207  1  0.72972037  0.58672157  0.69817896  1  0.046215  -0.005518  -0.097822  -0.246209  -0.005765  3.934633  -0.003
C  C208  1  0.68433700  0.52821661  0.72671876  1  0.379017  0.000872  0.082706  0.268759  0.000414  4.075962  0.001
C  C209  1  0.71216992  0.46936718  0.76910298  1  0.030872  -0.005079  -0.094064  -0.241112  -0.005236  3.934623  -0.003
C  C210  1  0.86075546  0.63972413  0.68075170  1  0.006387  -0.013083  0.007783  0.11098  -0.013488  3.996351  -0.008
C  C211  1  0.95773715  0.59627606  0.66442286  1  -0.002064  0.003949  -0.0914  -0.189511  0.001524  3.975739  0.003
C  C212  1  0.00617876  0.65063264  0.63523150  1  0.449216  -0.007519  0.042416  0.095062  -0.008057  3.969181  -0.004
C  C213  1  0.87263188  0.78745912  0.63905962  1  0.504671  -0.007106  0.048899  0.102068  -0.007448  3.951379  -0.004
C  C214  1  0.81797213  0.73791052  0.66690899  1  -0.015337  0.00381  -0.087134  -0.182989  0.001483  3.955048  0.003
C  C215  1  0.53227691  0.60873139  0.70831879  1  0.336868  0.00355  0.080129  0.26882  0.001546  4.079943  0.004
C  C216  1  0.49949670  0.64385363  0.66526546  1  0.040042  -0.023459  -0.101077  -0.248449  -0.02423  3.948817  -0.014
C  C217  1  0.41652162  0.72569385  0.66146478  1  -0.018201  0.001934  -0.009407  0.087075  -0.000396  4.032383  0.004
C  C218  1  0.36916225  0.77013357  0.70134404  1  -0.076292  -0.017709  -0.093992  -0.19267  -0.017987  3.937374  -0.011
C  C219  1  0.40126040  0.73412618  0.74521454  1  0.046492  0.001233  -0.008523  0.089695  -0.000936  4.014132  0.003
C  C220  1  0.48458086  0.65222984  0.74812032  1  0.032756  -0.02532  -0.100433  -0.247447  -0.026329  3.947899  -0.015
C  C221  1  0.37820556  0.76174855  0.61696162  1  0.01961  -0.03621  0.00038  0.094486  -0.037181  3.992062  -0.023
C  C222  1  0.39516964  0.70117031  0.58635367  1  -0.072712  0.006488  -0.090993  -0.178109  0.002166  3.98178  0.007
C  C223  1  0.35081752  0.73513417  0.54723387  1  0.512826  -0.018757  0.03591  0.075134  -0.019441  3.993739  -0.011
C  C224  1  0.27768600  0.88566250  0.56393649  1  0.460281  -0.021556  0.044669  0.09993  -0.022397  3.935262  -0.013
C  C225  1  0.31930901  0.85689339  0.60373935  1  -0.03653  0.006409  -0.087708  -0.178376  0.002081  3.969318  0.006
C  C226  1  0.34748306  0.77859817  0.78762959  1  -0.000193  -0.037187  -0.000334  0.095439  -0.038243  3.980198  -0.024
C  C227  1  0.25267827  0.84291505  0.79089943  1  -0.056815  0.005404  -0.093056  -0.185037  0.00143  3.974801  0.006
C  C228  1  0.20432663  0.88282764  0.83148028  1  0.435234  -0.019827  0.037907  0.088545  -0.020398  3.947112  -0.012
C  C229  1  0.33369888  0.79976303  0.86779024  1  0.498447  -0.020197  0.034484  0.075008  -0.020761  4.002164  -0.012
C  C230  1  0.38684743  0.75802888  0.82818660  1  -0.112179  0.006936  -0.093073  -0.182581  0.002404  3.976527  0.007
C  C231  1  0.08130578  0.14743789  0.97545938  1  1.558011  -0.000622  0.209252  0.565138  -0.001125  4.194872  0.0
C  C232  1  0.16052609  0.17848007  0.96512177  1  -0.04036  0.009469  -0.02814  -0.059246  0.004951  3.990072  0.008
C  C233  1  0.25349447  0.11230465  0.96501643  1  -0.004949  -0.000877  -0.082373  -0.066369  -0.001242  3.965839  0.0
C  C234  1  0.32727398  0.14173396  0.95175340  1  -0.015152  0.000728  -0.105968  -0.21227  0.000262  4.012466  0.001
C  C235  1  0.30721840  0.23835766  0.93941076  1  0.323658  -0.002066  0.078411  0.251248  -0.002268  4.059762  -0.001
C  C236  1  0.21497824  0.30529890  0.93998012  1  0.024687  0.000337  -0.10905  -0.211012  7.9e-05  4.026306  0.0
C  C237  1  0.14200745  0.27497334  0.95276361  1  -0.058796  -0.000872  -0.088636  -0.081145  -0.00118  4.009826  -0.001
C  C238  1  0.45180203  0.24173649  0.94483634  1  0.382919  -0.004994  0.08532  0.270041  -0.00535  4.047967  -0.003
C  C239  1  0.45653272  0.18871755  0.99147383  1  -0.022048  0.001698  -0.113019  -0.225686  0.00064  4.017611  0.001
C  C240  1  0.53467062  0.16469097  0.01114492  1  -0.027657  -0.003825  -0.087243  -0.069746  -0.004093  4.00265  -0.002
C  C241  1  0.60683554  0.19490325  0.98566296  1  -0.088253  0.010332  -0.033675  -0.06477  0.00519  3.999991  0.009
C  C242  1  0.60005974  0.24848727  0.93910000  1  -0.124726  -0.003535  -0.090344  -0.078207  -0.003742  4.007301  -0.002
C  C243  1  0.52432712  0.27064587  0.91836510  1  0.071374  0.001553  -0.111535  -0.215887  0.000627  4.009406  0.001
C  C244  1  0.68871792  0.17363751  0.00718279  1  1.544844  -0.011125  0.209537  0.574721  -0.01308  4.189614  -0.007
C  C245  1  0.01223461  0.92087664  0.10440917  1  1.548678  -0.000642  0.21319  0.57612  -0.00148  4.166073  0.0
C  C246  1  0.07149750  0.87617159  0.14248562  1  -0.016977  0.008194  -0.028273  -0.057284  0.004157  3.988385  0.007
C  C247  1  0.02862239  0.86619067  0.19114260  1  -0.063294  -0.001171  -0.092097  -0.084544  -0.001401  4.020226  -0.001
C  C248  1  0.08197334  0.82885260  0.22700283  1  0.010056  0.000672  -0.10921  -0.215781  0.000238  4.027846  0.001
C  C249  1  0.17947413  0.80186358  0.21418458  1  0.321378  -0.00252  0.079621  0.258791  -0.002737  4.053454  -0.002
C  C250  1  0.22376535  0.80885535  0.16606299  1  -0.038261  0.000783  -0.105817  -0.21052  0.000303  3.997832  0.001
C  C251  1  0.16941592  0.84603592  0.13038130  1  -0.045141  -0.001452  -0.081734  -0.065997  -0.001783  3.960012  -0.001
C  C252  1  0.30745734  0.91991812  0.38545910  1  0.58249  -0.008184  0.046045  0.097004  -0.008649  3.952396  -0.005
C  C253  1  0.35797063  0.90521789  0.33963515  1  -0.060545  0.004004  -0.087011  -0.179184  0.001541  3.959845  0.004
C  C254  1  0.41207397  0.81288643  0.33137251  1  -0.040582  -0.015226  0.007124  0.108458  -0.015733  3.996179  -0.01
C  C255  1  0.41556937  0.73986299  0.37139503  1  -0.058107  0.00385  -0.090711  -0.18717  0.001386  3.980477  0.004
C  C256  1  0.36439319  0.76077475  0.41597562  1  0.491888  -0.008228  0.040016  0.091648  -0.008751  3.977875  -0.005
C  C257  1  0.46593706  0.78977995  0.28398713  1  0.021553  0.000101  -0.005411  0.09044  -0.000458  4.030774  0.001
C  C258  1  0.52051777  0.83896108  0.25431888  1  -0.037436  -0.003846  -0.095057  -0.201929  -0.003953  3.94669  -0.002
C  C259  1  0.58144322  0.80866746  0.21228011  1  -0.008909  0.000475  -0.006434  0.091372  -9.7e-05  4.030875  0.001
C  C260  1  0.58595179  0.72982596  0.19920330  1  -0.066423  -0.005254  -0.096136  -0.243429  -0.00545  3.93125  -0.003
C  C261  1  0.52721409  0.68462840  0.22753301  1  0.400796  0.000846  0.082243  0.268997  0.000385  4.073545  0.001
C  C262  1  0.46804261  0.71292305  0.26970275  1  0.030457  -0.004832  -0.095014  -0.241337  -0.004997  3.938183  -0.003
C  C263  1  0.63875147  0.86135320  0.18173303  1  -0.028491  -0.011094  0.008022  0.108766  -0.011422  3.996453  -0.007
C  C264  1  0.59550849  0.95862637  0.16523096  1  -0.045151  0.003804  -0.090962  -0.188446  0.001531  3.973209  0.003
C  C265  1  0.64970491  0.00713580  0.13592464  1  0.462653  -0.006444  0.041945  0.094907  -0.006988  3.967852  -0.003
C  C266  1  0.78600098  0.87309409  0.13988690  1  0.420793  -0.005793  0.049463  0.101835  -0.006162  3.951693  -0.003
C  C267  1  0.73659333  0.81836803  0.16793081  1  0.004167  0.0035  -0.086746  -0.182165  0.001411  3.954997  0.003
C  C268  1  0.60792755  0.53234130  0.20910586  1  0.384676  0.003921  0.079614  0.268628  0.001642  4.083924  0.005
C  C269  1  0.64287410  0.49966325  0.16601567  1  -0.028124  -0.02615  -0.101378  -0.247497  -0.026925  3.950849  -0.015
C  C270  1  0.72494575  0.41695448  0.16201191  1  0.012355  0.00228  -0.009865  0.085727  -0.000189  4.035939  0.004
C  C271  1  0.76966663  0.36971196  0.20173743  1  -0.041029  -0.018608  -0.093556  -0.192954  -0.018939  3.935096  -0.011
C  C272  1  0.73379381  0.40174355  0.24566496  1  0.004549  0.000286  -0.009233  0.090069  -0.001801  4.015264  0.003
C  C273  1  0.65175553  0.48491927  0.24876496  1  -0.013245  -0.027107  -0.101355  -0.249899  -0.028057  3.948212  -0.016
C  C274  1  0.76094286  0.37893602  0.11740320  1  -0.052652  -0.033956  0.00151  0.098614  -0.034846  3.991648  -0.022
C  C275  1  0.70045106  0.39573108  0.08691094  1  0.049434  0.006384  -0.09184  -0.182093  0.002144  3.982135  0.006
C  C276  1  0.73447963  0.35198193  0.04751385  1  0.416419  -0.017789  0.036257  0.078083  -0.018443  3.992022  -0.01
C  C277  1  0.88476213  0.27966069  0.06383560  1  0.431393  -0.020674  0.045843  0.102994  -0.02146  3.936164  -0.012
C  C278  1  0.85593179  0.32073360  0.10389651  1  0.036132  0.006666  -0.087826  -0.182208  0.002277  3.968679  0.006
C  C279  1  0.77823430  0.34762717  0.28797603  1  -0.037767  -0.04393  -0.002524  0.092749  -0.045136  3.986464  -0.028
C  C280  1  0.84106433  0.25207779  0.29126852  1  -0.032924  0.00597  -0.094802  -0.185143  0.00141  3.980956  0.007
C  C281  1  0.88000189  0.20262148  0.33198913  1  0.422992  -0.02358  0.033905  0.080567  -0.024027  3.957313  -0.014
C  C282  1  0.79975783  0.33260016  0.36822778  1  0.403916  -0.022256  0.033269  0.075375  -0.022794  3.998013  -0.013
C  C283  1  0.75866548  0.38675130  0.32855927  1  -0.002556  0.005581  -0.095225  -0.187239  0.001176  3.98195  0.006
C  C284  1  0.14420800  0.08131885  0.47533626  1  1.540482  -0.001509  0.210226  0.566033  -0.002091  4.188026  -0.001
C  C285  1  0.17542107  0.16027968  0.46550047  1  -0.028178  0.008706  -0.028239  -0.061504  0.004496  3.995799  0.007
C  C286  1  0.11016206  0.25381133  0.46527322  1  -0.02651  -0.001364  -0.081967  -0.065947  -0.001729  3.966473  -0.001
C  C287  1  0.14043631  0.32712918  0.45227902  1  -0.000842  0.000862  -0.105474  -0.211403  0.000315  4.012188  0.001
C  C288  1  0.23695323  0.30591478  0.44027111  1  0.35288  -0.002635  0.078476  0.250289  -0.002885  4.059285  -0.002
C  C289  1  0.30296346  0.21305155  0.44110453  1  -0.023433  0.000382  -0.107986  -0.210083  7.4e-05  4.02899  0.0
C  C290  1  0.27183182  0.14058911  0.45363658  1  -0.018781  -0.00134  -0.089017  -0.08113  -0.001629  4.012116  -0.001
C  C291  1  0.24092366  0.45070764  0.44537567  1  0.449778  -0.005332  0.08547  0.270939  -0.005731  4.048072  -0.004
C  C292  1  0.18745611  0.45603970  0.49184342  1  0.00142  0.001749  -0.112631  -0.227594  0.000651  4.019252  0.001
C  C293  1  0.16293998  0.53499341  0.51113159  1  -0.036772  -0.00408  -0.088948  -0.071667  -0.00435  4.004328  -0.002
C  C294  1  0.19320916  0.60717579  0.48542854  1  -0.042666  0.010084  -0.032584  -0.062702  0.005035  4.003328  0.008
C  C295  1  0.24730923  0.59978916  0.43905288  1  -0.0412  -0.003787  -0.0899  -0.078789  -0.004038  4.00733  -0.002
C  C296  1  0.26990056  0.52322365  0.41865988  1  -0.130704  0.001591  -0.112129  -0.216797  0.000641  4.010278  0.001
C  C297  1  0.17159239  0.68943598  0.50685540  1  1.5632  -0.012215  0.208961  0.574116  -0.014309  4.19924  -0.008
C  C298  1  0.92070730  0.01280379  0.60646476  1  1.544096  0.004159  0.210461  0.571651  0.002722  4.176713  0.004
C  C299  1  0.87569834  0.07140264  0.64489570  1  -0.052671  0.008808  -0.028971  -0.058816  0.004613  3.99426  0.007
C  C300  1  0.86544273  0.02804852  0.69347408  1  -0.022278  0.000382  -0.091715  -0.083396  2e-06  4.022438  0.0
C  C301  1  0.82719324  0.08159219  0.72937945  1  0.003274  0.000336  -0.109322  -0.215641  0.000121  4.028032  0.0
C  C302  1  0.79972544  0.17952301  0.71664080  1  0.29985  -0.001059  0.080285  0.259211  -0.001185  4.053988  -0.001
C  C303  1  0.80684856  0.22421401  0.66856966  1  0.01504  0.000418  -0.106032  -0.210771  0.000159  4.000557  0.0
C  C304  1  0.84491493  0.16973995  0.63285001  1  -0.000937  -0.000329  -0.082522  -0.066952  -0.000673  3.962336  0.0
C  C305  1  0.08260645  0.68773189  0.11513430  1  0.595985  -0.007831  0.046383  0.09863  -0.008324  3.949553  -0.004
C  C306  1  0.09741843  0.63809277  0.16107875  1  -0.145144  0.003697  -0.086125  -0.179343  0.001391  3.957452  0.003
C  C307  1  0.18949779  0.58537724  0.16954604  1  0.027047  -0.014576  0.007198  0.107589  -0.015088  3.996122  -0.009
C  C308  1  0.26229589  0.58247409  0.12962354  1  0.048373  0.003632  -0.09142  -0.18595  0.001275  3.981044  0.003
C  C309  1  0.24137333  0.63276257  0.08489679  1  0.41245  -0.007942  0.040436  0.091371  -0.008432  3.980518  -0.004
C  C310  1  0.21212052  0.53187574  0.21706657  1  -0.015297  -3e-05  -0.005182  0.090881  -0.000504  4.028275  0.001
C  C311  1  0.16222133  0.47789319  0.24662635  1  -0.059354  -0.00323  -0.093947  -0.200908  -0.003317  3.945961  -0.002
C  C312  1  0.19124585  0.41709921  0.28893203  1  -0.022869  0.000369  -0.00665  0.091469  -5.1e-05  4.026888  0.001
C  C313  1  0.26967095  0.41200832  0.30242073  1  -0.063557  -0.004697  -0.097157  -0.245615  -0.00487  3.928882  -0.003
C  C314  1  0.31563668  0.47022210  0.27422800  1  0.427592  0.000821  0.082214  0.267709  0.000383  4.071373  0.001
C  C315  1  0.28852885  0.52932213  0.23175401  1  -0.006306  -0.004207  -0.094671  -0.241027  -0.004327  3.935433  -0.003
C  C316  1  0.13783391  0.36027089  0.31917416  1  0.000457  -0.006654  0.009007  0.111952  -0.006872  3.992986  -0.004
C  C317  1  0.04086374  0.40415622  0.33542767  1  0.016322  0.002387  -0.090464  -0.18925  0.000963  3.969112  0.002
C  C318  1  0.99205011  0.35001606  0.36455503  1  0.49254  -0.003838  0.043767  0.096605  -0.004514  3.967345  -0.002
C  C319  1  0.12509286  0.21288375  0.36049119  1  0.52036  -0.002709  0.049598  0.102046  -0.00305  3.952794  -0.001
C  C320  1  0.18017970  0.26200906  0.33272496  1  -0.073593  0.002269  -0.086045  -0.18187  0.000922  3.953675  0.002
C  C321  1  0.46796276  0.39051634  0.29289286  1  0.39419  0.002784  0.080568  0.268743  0.001159  4.079158  0.003
C  C322  1  0.50181463  0.35664302  0.33564310  1  -0.071817  -0.018173  -0.099979  -0.246438  -0.018665  3.947414  -0.011
C  C323  1  0.58561149  0.27581808  0.33922542  1  -0.014992  0.00201  -0.007966  0.089217  0.000313  4.024381  0.003
C  C324  1  0.63293700  0.23104255  0.29944490  1  -0.012654  -0.012802  -0.092467  -0.190736  -0.013048  3.932506  -0.008
C  C325  1  0.59983918  0.26577534  0.25584404  1  0.00287  0.000313  -0.008045  0.088456  -0.001345  4.010131  0.002
C  C326  1  0.51556221  0.34667445  0.25321875  1  0.000889  -0.018297  -0.100324  -0.245774  -0.018996  3.946046  -0.011
C  C327  1  0.62414379  0.24050501  0.38373730  1  0.045528  -0.017012  0.003002  0.099313  -0.017487  3.990537  -0.011
C  C328  1  0.60617344  0.30103667  0.41455805  1  -0.006112  0.004609  -0.090842  -0.181413  0.001939  3.982906  0.004
C  C329  1  0.64903705  0.26679258  0.45432830  1  0.425371  -0.007462  0.039602  0.076292  -0.008135  3.989743  -0.005
C  C330  1  0.72389856  0.11702451  0.43720829  1  0.49526  -0.009885  0.048184  0.102805  -0.010497  3.927028  -0.006
C  C331  1  0.68357747  0.14569754  0.39691303  1  -0.083943  0.005446  -0.086982  -0.180676  0.002332  3.967734  0.005
C  C332  1  0.65328383  0.22118630  0.21338558  1  -0.004892  -0.036524  0.000332  0.098543  -0.037569  3.978077  -0.023
C  C333  1  0.74808739  0.15673544  0.20986401  1  -0.083518  0.004764  -0.092327  -0.185581  0.001081  3.972074  0.005
C  C334  1  0.79610956  0.11711803  0.16916208  1  0.474838  -0.019021  0.037933  0.088772  -0.019584  3.94738  -0.011
C  C335  1  0.66629473  0.20030382  0.13322678  1  0.475918  -0.019935  0.032991  0.073873  -0.020443  4.001267  -0.012
C  C336  1  0.61353516  0.24177254  0.17295002  1  -0.078155  0.00685  -0.094993  -0.186934  0.002322  3.978982  0.007
C  C337  1  0.91999944  0.85050061  0.02453613  1  1.541691  -0.001243  0.208885  0.566387  -0.00174  4.198434  -0.001
C  C338  1  0.84046937  0.82002148  0.03473541  1  -0.055648  0.009452  -0.028421  -0.059422  0.004938  3.990461  0.008
C  C339  1  0.74767093  0.88660318  0.03471685  1  -0.043606  -0.000906  -0.081312  -0.064748  -0.001302  3.964763  0.0
C  C340  1  0.67356550  0.85765889  0.04791712  1  0.016854  0.000752  -0.10593  -0.213005  0.000273  4.011049  0.001
C  C341  1  0.69315178  0.76112518  0.06032458  1  0.369694  -0.002116  0.079126  0.252738  -0.002321  4.056297  -0.001
C  C342  1  0.78521972  0.69381360  0.05982971  1  -0.050116  0.000387  -0.109172  -0.211089  0.000105  4.024826  0.0
C  C343  1  0.85850232  0.72364802  0.04711680  1  0.027471  -0.000982  -0.08871  -0.081666  -0.001275  4.010431  -0.001
C  C344  1  0.54813346  0.75837852  0.05508184  1  0.395513  -0.00455  0.085459  0.271293  -0.00488  4.047063  -0.003
C  C345  1  0.54328138  0.81151706  0.00847980  1  -0.018758  0.001586  -0.112681  -0.225892  0.000607  4.017948  0.001
C  C346  1  0.46501579  0.83564412  0.98890346  1  -0.020667  -0.003321  -0.087624  -0.070328  -0.003606  4.003079  -0.002
C  C347  1  0.39293342  0.80533629  0.01442018  1  -0.090343  0.010404  -0.033171  -0.065297  0.005238  4.000132  0.009
C  C348  1  0.39974913  0.75178087  0.06097942  1  -0.116137  -0.003272  -0.090052  -0.077869  -0.003485  4.007115  -0.002
C  C349  1  0.47558010  0.72958525  0.08165119  1  0.042849  0.001485  -0.11139  -0.215801  0.000611  4.008209  0.001
C  C350  1  0.31129485  0.82639551  0.99274116  1  1.549085  -0.010365  0.211713  0.579802  -0.012203  4.184627  -0.007
C  C351  1  0.98896030  0.07863156  0.89609471  1  1.555409  -0.001501  0.213411  0.576106  -0.002296  4.166668  -0.001
C  C352  1  0.92923368  0.12399209  0.85827295  1  -0.054483  0.008342  -0.028795  -0.05853  0.004202  3.99173  0.007
C  C353  1  0.97137617  0.13504175  0.80953437  1  -0.066553  -0.001388  -0.091797  -0.08552  -0.0016  4.02077  -0.001
C  C354  1  0.91731898  0.17291901  0.77395769  1  -0.002739  0.0008  -0.108713  -0.212123  0.000302  4.024236  0.001
C  C355  1  0.81993099  0.19928676  0.78720068  1  0.387363  -0.002717  0.08008  0.25676  -0.002936  4.055741  -0.002
C  C356  1  0.77637437  0.19145304  0.83541218  1  0.023515  0.000925  -0.106357  -0.209806  0.000366  3.998894  0.001
C  C357  1  0.83137971  0.15372584  0.87080158  1  -0.042146  -0.001709  -0.081524  -0.066246  -0.00203  3.960704  -0.001
N  N358  1  0.69324801  0.15152005  0.57460130  1  -1.172481  -0.004319  -0.334571  -0.206753  -0.004136  3.595237  -0.003
N  N359  1  0.25811268  0.03386592  0.87584519  1  -1.237945  0.04239  -0.314944  -0.227994  0.023596  3.518427  0.033
N  N360  1  0.17572021  0.70500331  0.96405453  1  -1.208189  0.054052  -0.335406  -0.247422  0.027509  3.628942  0.052
N  N361  1  0.13693195  0.75668753  0.62945743  1  -1.193854  0.043656  -0.335677  -0.253521  0.022058  3.604181  0.042
N  N362  1  0.84863828  0.31142520  0.92308315  1  -1.217727  0.041603  -0.319783  -0.238476  0.023541  3.512442  0.033
N  N363  1  0.96548838  0.74521909  0.62280130  1  -1.225987  0.042879  -0.316608  -0.224427  0.023862  3.521502  0.033
N  N364  1  0.29085025  0.82564286  0.53619843  1  -1.202386  0.052498  -0.336777  -0.247465  0.026707  3.633822  0.05
N  N365  1  0.24355666  0.86332485  0.87008313  1  -1.198225  0.045272  -0.333565  -0.252405  0.022774  3.600587  0.045
N  N366  1  0.30820327  0.84933054  0.42336862  1  -1.208645  0.042613  -0.319149  -0.235666  0.024059  3.507395  0.034
N  N367  1  0.74392176  0.96622112  0.12349924  1  -1.221226  0.043769  -0.315484  -0.226656  0.024333  3.520686  0.034
N  N368  1  0.82493814  0.29282910  0.03612579  1  -1.193529  0.053535  -0.337594  -0.248844  0.027246  3.637963  0.051
N  N369  1  0.86154674  0.24142737  0.37070167  1  -1.187879  0.040655  -0.333393  -0.248295  0.020535  3.586483  0.041
N  N370  1  0.15296997  0.68750665  0.07730361  1  -1.203984  0.040683  -0.320227  -0.23931  0.023064  3.515797  0.032
N  N371  1  0.03242589  0.25554412  0.37689624  1  -1.245493  0.037756  -0.315089  -0.227425  0.021291  3.520858  0.029
N  N372  1  0.70837394  0.17643266  0.46572844  1  -1.191521  0.063772  -0.321195  -0.214157  0.032852  3.578061  0.057
N  N373  1  0.75657719  0.13692930  0.13061345  1  -1.189079  0.044261  -0.334057  -0.252956  0.022318  3.600694  0.043
O  O374  1  0.47681912  0.38747972  0.78634957  1  -1.106639  0.000648  -0.170098  -0.237475  0.000376  2.509914  0.001
O  O375  1  0.72730081  0.62644048  0.57345387  1  -1.104778  -0.001609  -0.153188  -0.219724  -0.001289  2.598699  -0.001
O  O376  1  0.78485577  0.00590968  0.52712293  1  -1.129939  0.008992  -0.302313  -0.534249  0.004687  2.506842  0.008
O  O377  1  0.93821032  0.90415168  0.51550141  1  -1.127979  0.043094  -0.2811  -0.514839  0.023491  2.407826  0.035
O  O378  1  0.88478185  0.29548045  0.45400510  1  -1.176669  0.050139  -0.304697  -0.553852  0.027031  2.439115  0.046
O  O379  1  0.78808282  0.25039006  0.51913784  1  -1.132465  0.008341  -0.297866  -0.523973  0.004076  2.514807  0.009
O  O380  1  0.03787017  0.07592298  0.38142842  1  -1.160439  0.053608  -0.314486  -0.563717  0.028793  2.454683  0.045
O  O381  1  0.07499286  0.94456336  0.43941774  1  -1.145141  0.04847  -0.287217  -0.538336  0.026093  2.415243  0.039
O  O382  1  0.90042469  0.10073038  0.47156539  1  -0.903516  0.187892  -0.508701  -0.760269  0.100562  2.412257  0.162
O  O383  1  0.61216091  0.52513919  0.71152895  1  -1.11102  0.000727  -0.170263  -0.238615  0.000413  2.513355  0.001
O  O384  1  0.37670516  0.27363008  0.92233900  1  -1.110298  -0.0014  -0.153605  -0.221723  -0.00114  2.601822  -0.001
O  O385  1  0.00010856  0.21356822  0.97266562  1  -1.170882  0.065019  -0.313334  -0.570239  0.034457  2.428402  0.057
O  O386  1  0.10113016  0.05936432  0.98502376  1  -1.140816  0.054632  -0.287063  -0.532706  0.029057  2.358845  0.045
O  O387  1  0.70077873  0.11367647  0.04621821  1  -1.176826  0.057852  -0.309779  -0.563849  0.031037  2.438394  0.051
O  O388  1  0.74017213  0.21902511  0.98482240  1  -1.169425  0.057864  -0.310759  -0.568024  0.031169  2.491749  0.051
O  O389  1  0.92364387  0.95785557  0.11884790  1  -1.17095  0.05919  -0.309543  -0.562374  0.031138  2.40221  0.051
O  O390  1  0.05512342  0.91868489  0.06088674  1  -1.141632  0.045494  -0.288613  -0.539877  0.024727  2.434953  0.037
O  O391  1  0.90663127  0.09004971  0.03100994  1  -0.954982  0.374713  -0.525095  -0.806605  0.201275  2.371612  0.323
O  O392  1  0.52423909  0.61205791  0.21247016  1  -1.091579  0.000738  -0.171281  -0.239957  0.000424  2.513529  0.001
O  O393  1  0.27327062  0.37467114  0.42333536  1  -1.113006  -0.001552  -0.153804  -0.220849  -0.001253  2.60366  -0.001
O  O394  1  0.21014044  0.99988496  0.47300365  1  -1.170852  0.064441  -0.311237  -0.564984  0.03416  2.448963  0.056
O  O395  1  0.05630927  0.10140590  0.48397968  1  -1.127948  0.046257  -0.28686  -0.530128  0.024846  2.380426  0.038
O  O396  1  0.11070673  0.70225880  0.54544352  1  -1.183265  0.056974  -0.310203  -0.562987  0.030628  2.446826  0.051
O  O397  1  0.21768147  0.74040288  0.48496532  1  -1.175917  0.057389  -0.312962  -0.570657  0.030996  2.506136  0.051
O  O398  1  0.95760589  0.92373132  0.62025707  1  -1.161978  0.060817  -0.309517  -0.563064  0.031848  2.398711  0.053
O  O399  1  0.91831830  0.05700321  0.56314970  1  -1.146542  0.058065  -0.289387  -0.53635  0.031041  2.436072  0.046
O  O400  1  0.08734470  0.90900346  0.53096684  1  -0.951978  0.370512  -0.524484  -0.798578  0.198794  2.372181  0.32
O  O401  1  0.38721516  0.47321711  0.29001492  1  -1.105237  0.000582  -0.168655  -0.236531  0.000333  2.51558  0.0
O  O402  1  0.62343824  0.72619159  0.07745329  1  -1.112761  -0.001331  -0.154358  -0.223313  -0.001079  2.60427  -0.001
O  O403  1  0.00089752  0.78399888  0.02799688  1  -1.170545  0.066295  -0.3146  -0.573304  0.035179  2.430131  0.057
O  O404  1  0.90090804  0.93836006  0.01443910  1  -1.12763  0.053214  -0.286753  -0.532375  0.028315  2.357214  0.044
O  O405  1  0.29845551  0.88788482  0.95424463  1  -1.177093  0.059876  -0.3102  -0.564706  0.032149  2.436915  0.052
O  O406  1  0.26125317  0.77921400  0.01427068  1  -1.170167  0.058313  -0.311067  -0.569802  0.031393  2.480573  0.052
O  O407  1  0.07763507  0.04268883  0.88141080  1  -1.179026  0.061634  -0.310738  -0.564602  0.032516  2.409841  0.053
O  O408  1  0.94652355  0.07907633  0.93971486  1  -1.132089  0.046423  -0.287114  -0.535944  0.025232  2.438785  0.038
O  O409  1  0.09569574  0.90747790  0.96898459  1  -0.959549  0.372131  -0.526419  -0.81107  0.199862  2.363654  0.32
O  O410  1  0.23388055  0.76716621  0.24957310  1  -1.095565  -0.000906  -0.168047  -0.238035  -0.000699  2.512924  0.0
O  O411  1  0.76484773  0.23391152  0.75213804  1  -1.098993  -0.00054  -0.168718  -0.239247  -0.000399  2.511554  0.0
