# generated using pymatgen
data_InH14C25(NO3)3
_symmetry_space_group_name_H-M   'P 1'
_cell_length_a   17.50758952
_cell_length_b   18.00489787
_cell_length_c   18.47751114
_cell_angle_alpha   89.99985830
_cell_angle_beta   90.00000360
_cell_angle_gamma   101.61896877
_symmetry_Int_Tables_number   1
_chemical_formula_structural   InH14C25(NO3)3
_chemical_formula_sum   'In8 H112 C200 N24 O72'
_cell_volume   5705.17217580
_cell_formula_units_Z   8
loop_
 _symmetry_equiv_pos_site_id
 _symmetry_equiv_pos_as_xyz
  1  'x, y, z'
loop_
 _atom_site_type_symbol
 _atom_site_label
 _atom_site_symmetry_multiplicity
 _atom_site_fract_x
 _atom_site_fract_y
 _atom_site_fract_z
 _atom_site_occupancy
 _atom_site_pbe_bader_charge
 _atom_site_pbe_bader_spin_density
 _atom_site_pbe_cm5_charge
 _atom_site_pbe_ddec_charge
 _atom_site_pbe_ddec_spin_density
 _atom_site_pbe_ddec_sum_bond_order
 _atom_site_pbe_magmom
In  In0  1  0.91480913  0.78854603  0.95421417  1  1.830291  0  0.735725  1.228461  0  2.652637  0
In  In1  1  0.58519078  0.71145407  0.45421347  1  1.830362  0  0.735719  1.228397  0  2.652683  0
In  In2  1  0.08519148  0.21146662  0.04577864  1  1.830335  0  0.735698  1.228348  0  2.652662  0
In  In3  1  0.41480919  0.28853307  0.54577880  1  1.830308  0  0.735756  1.228473  0  2.652583  0
In  In4  1  0.03336182  0.67965907  0.45338113  1  1.828426  0  0.73591  1.230728  0  2.647072  0
In  In5  1  0.46663660  0.82034080  0.95337797  1  1.828554  0  0.735861  1.230612  0  2.647197  0
In  In6  1  0.96663853  0.32034110  0.54661926  1  1.828565  0  0.735899  1.23067  0  2.647107  0
In  In7  1  0.53336306  0.17965881  0.04662188  1  1.828611  0  0.735862  1.230616  0  2.647192  0
H  H8  1  0.67401184  0.83440849  0.83215871  1  0.139304  0  0.109389  0.108926  0  1.035224  0
H  H9  1  0.82598904  0.66559080  0.33215922  1  0.139362  0  0.109381  0.10894  0  1.035211  0
H  H10  1  0.32599068  0.16559112  0.16783897  1  0.139318  0  0.109398  0.108946  0  1.035195  0
H  H11  1  0.17401004  0.33440881  0.66784009  1  0.139343  0  0.109381  0.108913  0  1.035245  0
H  H12  1  0.88199176  0.00778381  0.82192727  1  0.162463  0  0.123208  0.139526  0  0.981536  0
H  H13  1  0.61800900  0.49221480  0.32192860  1  0.162458  0  0.123201  0.139502  0  0.98155  0
H  H14  1  0.11800962  0.99221863  0.17807582  1  0.162499  0  0.123199  0.139528  0  0.981616  0
H  H15  1  0.38199179  0.50778197  0.67807557  1  0.16247  0  0.123221  0.139554  0  0.981574  0
H  H16  1  0.60270779  0.91472036  0.75764370  1  0.122959  0  0.122567  0.147373  0  0.963012  0
H  H17  1  0.89729198  0.58527912  0.25764387  1  0.12296  0  0.122569  0.147368  0  0.963036  0
H  H18  1  0.39729381  0.08528038  0.24235398  1  0.122926  0  0.122571  0.147364  0  0.963059  0
H  H19  1  0.10270711  0.41472048  0.74235544  1  0.122933  0  0.122577  0.147362  0  0.963028  0
H  H20  1  0.58796299  0.11784841  0.61694877  1  0.090287  0  0.110136  0.12759  0  0.998007  0
H  H21  1  0.91203867  0.38215188  0.11694768  1  0.090269  0  0.110144  0.12759  0  0.998016  0
H  H22  1  0.41203895  0.88215121  0.38305000  1  0.090341  0  0.110129  0.127571  0  0.998041  0
H  H23  1  0.08796076  0.61784942  0.88305325  1  0.090247  0  0.110127  0.127563  0  0.998026  0
H  H24  1  0.63629265  0.08052600  0.84180377  1  0.113081  0  0.106625  0.116736  0  1.045536  0
H  H25  1  0.86370833  0.41947370  0.34180367  1  0.113109  0  0.106572  0.11659  0  1.045491  0
H  H26  1  0.36370792  0.91947531  0.15819553  1  0.113084  0  0.106621  0.116692  0  1.045554  0
H  H27  1  0.13629109  0.58052478  0.65819780  1  0.113134  0  0.106564  0.116526  0  1.045592  0
H  H28  1  0.48147768  0.22913191  0.78432561  1  0.146495  0  0.114478  0.127519  0  1.000668  0
H  H29  1  0.01852298  0.27086772  0.28432476  1  0.146483  0  0.114473  0.127513  0  1.00066  0
H  H30  1  0.51852117  0.77086656  0.21567316  1  0.146492  0  0.114463  0.127521  0  1.000653  0
H  H31  1  0.98147724  0.72913189  0.71567454  1  0.146492  0  0.114464  0.127494  0  1.000632  0
H  H32  1  0.81008756  0.88820897  0.15899926  1  0.083998  0  0.104484  0.11387  0  1.046627  0
H  H33  1  0.68991215  0.61179021  0.65899875  1  0.083963  0  0.104475  0.113855  0  1.046678  0
H  H34  1  0.18991267  0.11179064  0.84100004  1  0.083964  0  0.104497  0.113904  0  1.04665  0
H  H35  1  0.31008740  0.38820883  0.34100109  1  0.083969  0  0.104495  0.113907  0  1.046619  0
H  H36  1  0.96907976  0.74272274  0.21450746  1  0.140127  0  0.11242  0.126965  0  0.999615  0
H  H37  1  0.53092015  0.75727742  0.71450551  1  0.140181  0  0.112431  0.127005  0  0.999568  0
H  H38  1  0.03092047  0.25727687  0.78549293  1  0.140129  0  0.112432  0.127  0  0.999608  0
H  H39  1  0.46907962  0.24272275  0.28549326  1  0.140166  0  0.112444  0.12704  0  0.999554  0
H  H40  1  0.86493283  0.85484448  0.38249640  1  0.103379  0  0.108705  0.119481  0  1.035546  0
H  H41  1  0.63506528  0.64515523  0.88249580  1  0.103413  0  0.10869  0.119459  0  1.035534  0
H  H42  1  0.13506580  0.14515569  0.61750291  1  0.103363  0  0.108685  0.119439  0  1.035564  0
H  H43  1  0.36493392  0.35484494  0.11750405  1  0.103377  0  0.108687  0.119463  0  1.035578  0
H  H44  1  0.64889293  0.87634019  0.24542379  1  0.095718  0  0.118429  0.142327  0  0.981472  0
H  H45  1  0.85110696  0.62365989  0.74542542  1  0.095705  0  0.118427  0.142327  0  0.981473  0
H  H46  1  0.35110661  0.12365885  0.75457551  1  0.09573  0  0.118426  0.142318  0  0.981481  0
H  H47  1  0.14889235  0.37634085  0.25457550  1  0.095715  0  0.118426  0.142331  0  0.981489  0
H  H48  1  0.57474457  0.95127312  0.16741536  1  0.126929  0  0.108163  0.111438  0  1.020183  0
H  H49  1  0.92525594  0.54872717  0.66741718  1  0.126968  0  0.10821  0.111513  0  1.020207  0
H  H50  1  0.42525509  0.04872649  0.83258395  1  0.126934  0  0.108163  0.111453  0  1.020179  0
H  H51  1  0.07474407  0.45127414  0.33258321  1  0.126934  0  0.108184  0.111501  0  1.020173  0
H  H52  1  0.76777987  0.14154981  0.17545584  1  0.144073  0  0.122885  0.138634  0  0.984027  0
H  H53  1  0.73221972  0.35845145  0.67545528  1  0.144092  0  0.122883  0.138655  0  0.984019  0
H  H54  1  0.23221979  0.85844979  0.82454509  1  0.14406  0  0.122868  0.138593  0  0.984051  0
H  H55  1  0.26778074  0.64154929  0.32454511  1  0.144062  0  0.122871  0.138614  0  0.984033  0
H  H56  1  0.23289222  0.21038065  0.53052521  1  0.15201  0  0.128651  0.107926  0  1.007121  0
H  H57  1  0.26710857  0.28961964  0.03052487  1  0.152025  0  0.128616  0.107817  0  1.007164  0
H  H58  1  0.76710789  0.78961839  0.46947410  1  0.151992  0  0.128657  0.107932  0  1.007117  0
H  H59  1  0.73289292  0.71038053  0.96947497  1  0.152  0  0.128681  0.108027  0  1.007082  0
H  H60  1  0.43154730  0.12132736  0.50780689  1  0.1128  0  0.126768  0.107231  0  1.007427  0
H  H61  1  0.06845362  0.37867356  0.00780633  1  0.112816  0  0.126782  0.10725  0  1.007377  0
H  H62  1  0.56845305  0.87867282  0.49219187  1  0.11278  0  0.126775  0.107243  0  1.00741  0
H  H63  1  0.93154661  0.62132605  0.99219405  1  0.112796  0  0.126771  0.107223  0  1.0074  0
H  H64  1  0.14595525  0.08528983  0.50461656  1  0.048727  0  0.117014  0.124785  0  0.98606  0
H  H65  1  0.35404624  0.41471110  0.00461647  1  0.048707  0  0.117019  0.124752  0  0.986114  0
H  H66  1  0.85404498  0.91470978  0.49538328  1  0.04872  0  0.117018  0.124799  0  0.986052  0
H  H67  1  0.64595548  0.58529021  0.99538445  1  0.048715  0  0.117029  0.124779  0  0.986102  0
H  H68  1  0.35354879  0.99087934  0.48636410  1  0.110866  0  0.114092  0.12198  0  0.990325  0
H  H69  1  0.14645281  0.50912215  0.98636438  1  0.110856  0  0.114095  0.121994  0  0.990377  0
H  H70  1  0.64645132  0.00911970  0.51363628  1  0.110905  0  0.114092  0.12197  0  0.990257  0
H  H71  1  0.85354822  0.49087859  0.01363601  1  0.110854  0  0.114084  0.12197  0  0.990368  0
H  H72  1  0.27275119  0.91374134  0.40608769  1  0.119327  0  0.105991  0.112555  0  1.052781  0
H  H73  1  0.22725057  0.58626093  0.90608832  1  0.119402  0  0.105972  0.112548  0  1.052835  0
H  H74  1  0.72724813  0.08625940  0.59391161  1  0.119434  0  0.105958  0.112512  0  1.052792  0
H  H75  1  0.77274920  0.41373924  0.09391261  1  0.119399  0  0.105974  0.112548  0  1.052818  0
H  H76  1  0.10282706  0.96297521  0.55962670  1  0.068935  0  0.113864  0.124341  0  0.990389  0
H  H77  1  0.39717566  0.53702628  0.05962698  1  0.069198  0  0.113893  0.124358  0  0.990453  0
H  H78  1  0.89717397  0.03702554  0.44037531  1  0.068919  0  0.113874  0.124325  0  0.990471  0
H  H79  1  0.60282400  0.46297333  0.94037394  1  0.069212  0  0.113852  0.124317  0  0.990448  0
H  H80  1  0.19340022  0.78265367  0.39670292  1  0.170019  0  0.126906  0.109689  0  1.016045  0
H  H81  1  0.30660189  0.71734749  0.89670162  1  0.170041  0  0.126911  0.109688  0  1.016056  0
H  H82  1  0.80659898  0.21734650  0.60329692  1  0.169984  0  0.126923  0.109712  0  1.016039  0
H  H83  1  0.69339846  0.28265268  0.10329822  1  0.17006  0  0.126916  0.109682  0  1.016056  0
H  H84  1  0.02946758  0.83023761  0.54155895  1  0.154312  0  0.129301  0.11199  0  0.996073  0
H  H85  1  0.47053446  0.66976336  0.04155783  1  0.154628  0  0.129323  0.111979  0  0.996038  0
H  H86  1  0.97053322  0.16976200  0.45844252  1  0.154679  0  0.129304  0.111991  0  0.996074  0
H  H87  1  0.52946588  0.33023682  0.95844147  1  0.154604  0  0.129331  0.111995  0  0.995976  0
H  H88  1  0.08079827  0.78286295  0.02054295  1  0.154636  0  0.128881  0.111648  0  0.986112  0
H  H89  1  0.41920115  0.71713636  0.52054382  1  0.15464  0  0.128871  0.111633  0  0.986129  0
H  H90  1  0.91920207  0.21713723  0.97945635  1  0.154606  0  0.128892  0.111701  0  0.986083  0
H  H91  1  0.58079874  0.28286438  0.47945657  1  0.154213  0  0.128863  0.111632  0  0.986121  0
H  H92  1  0.00384675  0.96086789  0.92251540  1  0.171613  0  0.125329  0.107671  0  1.017895  0
H  H93  1  0.49615270  0.53913150  0.42251677  1  0.171626  0  0.125346  0.107674  0  1.017894  0
H  H94  1  0.99615347  0.03913172  0.07748390  1  0.171625  0  0.125329  0.10768  0  1.017896  0
H  H95  1  0.50384695  0.46086810  0.57748362  1  0.171632  0  0.125335  0.107668  0  1.017903  0
H  H96  1  0.21331181  0.85989984  0.03864433  1  0.091489  0  0.116115  0.128183  0  0.989047  0
H  H97  1  0.28668760  0.64009942  0.53864592  1  0.091451  0  0.116119  0.128152  0  0.989077  0
H  H98  1  0.78668819  0.14010146  0.96135606  1  0.091475  0  0.11611  0.128168  0  0.989022  0
H  H99  1  0.71331263  0.35990019  0.46135609  1  0.091432  0  0.116121  0.128203  0  0.989006  0
H  H100  1  0.13131507  0.04770302  0.93958266  1  0.164329  0  0.108692  0.12085  0  1.05874  0
H  H101  1  0.36868392  0.45229676  0.43958194  1  0.164356  0  0.10872  0.120869  0  1.058733  0
H  H102  1  0.86868379  0.95229829  0.06041935  1  0.164439  0  0.108722  0.120893  0  1.058724  0
H  H103  1  0.63131631  0.54770285  0.56041845  1  0.164426  0  0.108705  0.120849  0  1.058768  0
H  H104  1  0.23283385  0.11727482  0.96602391  1  0.14049  0  0.110337  0.128012  0  1.052164  0
H  H105  1  0.26716570  0.38272489  0.46602497  1  0.140516  0  0.110352  0.128031  0  1.052128  0
H  H106  1  0.76716592  0.88272535  0.03397540  1  0.140506  0  0.110356  0.12803  0  1.052134  0
H  H107  1  0.73283476  0.61727585  0.53397541  1  0.140525  0  0.110354  0.128036  0  1.052117  0
H  H108  1  0.32189103  0.92057076  0.03621698  1  0.12572  0  0.110618  0.123675  0  1.045848  0
H  H109  1  0.17810770  0.57942794  0.53621871  1  0.12572  0  0.110642  0.123711  0  1.045825  0
H  H110  1  0.67810851  0.07942828  0.96378232  1  0.125708  0  0.110623  0.123696  0  1.0459  0
H  H111  1  0.82189276  0.42057280  0.46378222  1  0.125742  0  0.110599  0.123617  0  1.045956  0
H  H112  1  0.44740625  0.00513831  0.05684478  1  0.164486  0  0.123524  0.102979  0  1.035394  0
H  H113  1  0.05259246  0.49486021  0.55684550  1  0.164791  0  0.123537  0.102995  0  1.035405  0
H  H114  1  0.55259341  0.99486130  0.94315452  1  0.164487  0  0.123531  0.103009  0  1.035368  0
H  H115  1  0.94740788  0.50513997  0.44315542  1  0.1648  0  0.123549  0.103013  0  1.035382  0
H  H116  1  0.36524599  0.19304144  0.98708239  1  0.145568  0  0.126745  0.107845  0  0.990725  0
H  H117  1  0.13475390  0.30695991  0.48708147  1  0.14555  0  0.126752  0.107866  0  0.990724  0
H  H118  1  0.63475378  0.80695873  0.01291745  1  0.145572  0  0.126753  0.107847  0  0.99076  0
H  H119  1  0.86524656  0.69304083  0.51291730  1  0.145572  0  0.126764  0.107876  0  0.990747  0
C  C120  1  0.82275934  0.86745311  0.87781147  1  1.572517  0  0.213685  0.567199  0  4.203178  0
C  C121  1  0.67724049  0.63254662  0.37781151  1  1.572449  0  0.213717  0.567194  0  4.203006  0
C  C122  1  0.17723952  0.13254819  0.12218784  1  1.572501  0  0.213671  0.567027  0  4.203047  0
C  C123  1  0.32276077  0.36745242  0.62218780  1  1.572521  0  0.21371  0.567118  0  4.203076  0
C  C124  1  0.78149171  0.91615232  0.83286975  1  -0.043504  0  -0.009018  -0.024142  0  3.961298  0
C  C125  1  0.71850928  0.58384753  0.33287153  1  -0.043451  0  -0.009141  -0.024294  0  3.961315  0
C  C126  1  0.21850886  0.08384899  0.16713064  1  -0.04348  0  -0.009078  -0.02412  0  3.961007  0
C  C127  1  0.28149186  0.41615094  0.66713048  1  -0.043493  0  -0.009051  -0.024125  0  3.961151  0
C  C128  1  0.70302504  0.89052016  0.81428935  1  0.014914  0  -0.063516  -0.042915  0  3.925059  0
C  C129  1  0.79697505  0.60947803  0.31429054  1  0.014789  0  -0.063482  -0.04293  0  3.92522  0
C  C130  1  0.29697657  0.10948058  0.18570941  1  0.014831  0  -0.063483  -0.042909  0  3.925091  0
C  C131  1  0.20302449  0.39052100  0.68571039  1  0.014897  0  -0.063548  -0.043006  0  3.925248  0
C  C132  1  0.82065618  0.98724175  0.80914677  1  0.029386  0  -0.065176  -0.114132  0  3.936269  0
C  C133  1  0.67934391  0.51275646  0.30914818  1  0.029366  0  -0.065108  -0.114051  0  3.936121  0
C  C134  1  0.17934394  0.01276012  0.19085578  1  0.029241  0  -0.065134  -0.114084  0  3.936341  0
C  C135  1  0.32065688  0.48724032  0.69085599  1  0.029243  0  -0.0652  -0.114201  0  3.93636  0
C  C136  1  0.66342378  0.93522688  0.77298179  1  -0.011811  0  -0.081875  -0.173934  0  3.944129  0
C  C137  1  0.83657667  0.56477313  0.27298254  1  -0.011739  0  -0.081875  -0.173904  0  3.944179  0
C  C138  1  0.33657691  0.06477500  0.22701698  1  -0.01182  0  -0.081885  -0.173941  0  3.94438  0
C  C139  1  0.16342332  0.43522534  0.72701839  1  -0.01184  0  -0.08181  -0.173778  0  3.944232  0
C  C140  1  0.78067421  0.03244714  0.76873663  1  0.184858  0  0.071752  -0.035441  0  3.932162  0
C  C141  1  0.71932567  0.46755275  0.26873803  1  0.185015  0  0.071653  -0.035492  0  3.932036  0
C  C142  1  0.21932648  0.96755474  0.23126484  1  0.184603  0  0.071705  -0.035527  0  3.932202  0
C  C143  1  0.28067479  0.53244516  0.73126560  1  0.184796  0  0.071722  -0.035445  0  3.932183  0
C  C144  1  0.70185970  0.00684578  0.74988510  1  0.484933  0  0.098626  0.218449  0  4.032828  0
C  C145  1  0.79813996  0.49315302  0.24988536  1  0.484946  0  0.098678  0.218477  0  4.032714  0
C  C146  1  0.29814190  0.99315496  0.25011583  1  0.485375  0  0.098607  0.218419  0  4.032921  0
C  C147  1  0.20185947  0.50684545  0.75011665  1  0.485156  0  0.098613  0.218355  0  4.032892  0
C  C148  1  0.61680369  0.09348685  0.72725045  1  0.397642  0  0.086094  0.261573  0  4.05871  0
C  C149  1  0.88319689  0.40651372  0.22724984  1  0.397636  0  0.086088  0.261493  0  4.058745  0
C  C150  1  0.38319653  0.90651276  0.27274832  1  0.397809  0  0.086015  0.261417  0  4.05867  0
C  C151  1  0.11680151  0.59348532  0.77275109  1  0.397239  0  0.086089  0.261486  0  4.058806  0
C  C152  1  0.57918113  0.12786216  0.67420592  1  0.028144  0  -0.08502  -0.191404  0  3.920297  0
C  C153  1  0.92082074  0.37213912  0.17420540  1  0.02815  0  -0.085033  -0.191411  0  3.920309  0
C  C154  1  0.42081967  0.87213745  0.32579230  1  0.028025  0  -0.085033  -0.19143  0  3.92025  0
C  C155  1  0.07917903  0.62786105  0.82579553  1  0.028173  0  -0.085023  -0.191376  0  3.920205  0
C  C156  1  0.53005570  0.17640745  0.69499708  1  -0.038133  0  -0.014556  -0.00783  0  4.005946  0
C  C157  1  0.96994617  0.32359377  0.19499722  1  -0.038144  0  -0.014587  -0.007863  0  4.005856  0
C  C158  1  0.46994556  0.82359159  0.30500060  1  -0.038552  0  -0.014507  -0.007644  0  4.005728  0
C  C159  1  0.03005258  0.67640697  0.80500262  1  -0.038164  0  -0.014557  -0.007838  0  4.005782  0
C  C160  1  0.49032885  0.21358002  0.63854734  1  1.519884  0  0.210887  0.548996  0  4.209002  0
C  C161  1  0.00967257  0.28642056  0.13854645  1  1.519889  0  0.210902  0.549012  0  4.208905  0
C  C162  1  0.50967252  0.78641959  0.36145143  1  1.519827  0  0.210945  0.549017  0  4.209011  0
C  C163  1  0.99032731  0.71358018  0.86145339  1  1.519851  0  0.210915  0.549017  0  4.208955  0
C  C164  1  0.60644208  0.10695833  0.80044102  1  0.021858  0  -0.087591  -0.200642  0  3.93125  0
C  C165  1  0.89355892  0.39304148  0.30043991  1  0.021854  0  -0.087552  -0.200415  0  3.931097  0
C  C166  1  0.39355757  0.89304128  0.19955828  1  0.021812  0  -0.08752  -0.200443  0  3.931168  0
C  C167  1  0.10644119  0.60695756  0.69956210  1  0.021831  0  -0.087525  -0.200359  0  3.931145  0
C  C168  1  0.51874039  0.19049464  0.76811243  1  -0.012872  0  -0.074604  -0.113895  0  3.929868  0
C  C169  1  0.98126144  0.30950639  0.26811152  1  -0.012811  0  -0.074629  -0.113928  0  3.929858  0
C  C170  1  0.48125973  0.80950440  0.23188579  1  -0.012462  0  -0.074643  -0.114025  0  3.92979  0
C  C171  1  0.01873879  0.69049322  0.73188832  1  -0.012874  0  -0.074614  -0.113901  0  3.929829  0
C  C172  1  0.55699590  0.15577875  0.82054540  1  0.008874  0  -0.011245  -0.001472  0  3.980834  0
C  C173  1  0.94300545  0.34422271  0.32054387  1  0.008832  0  -0.011214  -0.001463  0  3.980838  0
C  C174  1  0.44300330  0.84422143  0.17945336  1  0.008905  0  -0.0113  -0.001489  0  3.98081  0
C  C175  1  0.05699547  0.65577747  0.67945598  1  0.008966  0  -0.011228  -0.001442  0  3.980741  0
C  C176  1  0.54375553  0.17132114  0.89831235  1  1.516069  0  0.213083  0.55333  0  4.203356  0
C  C177  1  0.95624326  0.32867897  0.39831193  1  1.516044  0  0.213128  0.553366  0  4.203328  0
C  C178  1  0.45624355  0.82867847  0.10168641  1  1.516014  0  0.2131  0.553229  0  4.203449  0
C  C179  1  0.04375811  0.67132064  0.60168791  1  1.516033  0  0.213101  0.553348  0  4.203344  0
C  C180  1  0.90287109  0.79907779  0.10109872  1  1.519433  0  0.211051  0.552903  0  4.19823  0
C  C181  1  0.59712876  0.70092210  0.60109744  1  1.519402  0  0.211063  0.552933  0  4.198337  0
C  C182  1  0.09713017  0.20092125  0.89890059  1  1.519723  0  0.210998  0.552833  0  4.198477  0
C  C183  1  0.40286999  0.29907863  0.39890186  1  1.519394  0  0.210997  0.552839  0  4.198576  0
C  C184  1  0.89070561  0.81385406  0.17913356  1  -0.066637  0  -0.014927  -0.003493  0  3.990891  0
C  C185  1  0.60929305  0.68614563  0.67913232  1  -0.066952  0  -0.014914  -0.003478  0  3.990944  0
C  C186  1  0.10929393  0.18614498  0.82086574  1  -0.067077  0  -0.014913  -0.003467  0  3.990909  0
C  C187  1  0.39070615  0.31385454  0.32086644  1  -0.067099  0  -0.014927  -0.003479  0  3.990932  0
C  C188  1  0.84120194  0.86255531  0.19995719  1  0.026862  0  -0.092745  -0.214031  0  3.939543  0
C  C189  1  0.65879705  0.63744319  0.69995607  1  0.026972  0  -0.092715  -0.213984  0  3.939535  0
C  C190  1  0.15879760  0.13744373  0.80004265  1  0.02687  0  -0.092774  -0.214134  0  3.939591  0
C  C191  1  0.34120192  0.36255585  0.30004377  1  0.026927  0  -0.092769  -0.214125  0  3.939558  0
C  C192  1  0.93032710  0.77982701  0.23107079  1  -0.015679  0  -0.076574  -0.115867  0  3.921833  0
C  C193  1  0.56967189  0.72017141  0.73106893  1  -0.015401  0  -0.07665  -0.116036  0  3.921924  0
C  C194  1  0.06967199  0.22017260  0.76892851  1  -0.015306  0  -0.076592  -0.115935  0  3.921792  0
C  C195  1  0.43032777  0.27982820  0.26892983  1  -0.015361  0  -0.076594  -0.115953  0  3.921849  0
C  C196  1  0.83314454  0.87763963  0.27315047  1  0.403564  0  0.089112  0.272934  0  4.046597  0
C  C197  1  0.66685465  0.62235981  0.77315047  1  0.403735  0  0.089106  0.272903  0  4.046715  0
C  C198  1  0.16685557  0.12235941  0.72684829  1  0.403672  0  0.089106  0.273  0  4.046624  0
C  C199  1  0.33314398  0.37764036  0.22684937  1  0.40358  0  0.089096  0.272942  0  4.046602  0
C  C200  1  0.87189834  0.84359550  0.32540972  1  0.036669  0  -0.079648  -0.17615  0  3.907551  0
C  C201  1  0.62810083  0.65640380  0.82540855  1  0.036365  0  -0.079668  -0.17616  0  3.907588  0
C  C202  1  0.12810132  0.15640410  0.67458959  1  0.036377  0  -0.079655  -0.176121  0  3.907516  0
C  C203  1  0.37189780  0.34359637  0.17459021  1  0.036679  0  -0.079619  -0.176101  0  3.907537  0
C  C204  1  0.91994430  0.79434344  0.30432685  1  0.040374  0  -0.010691  -0.003973  0  3.99668  0
C  C205  1  0.58005488  0.70565591  0.80432503  1  0.040737  0  -0.010682  -0.003878  0  3.996647  0
C  C206  1  0.08005479  0.20565616  0.69567245  1  0.040664  0  -0.010673  -0.003927  0  3.996557  0
C  C207  1  0.41994478  0.29434369  0.19567374  1  0.040481  0  -0.010686  -0.003964  0  3.996694  0
C  C208  1  0.95807731  0.75629780  0.36146068  1  1.511649  0  0.209983  0.548873  0  4.210727  0
C  C209  1  0.54192333  0.74370311  0.86145821  1  1.51153  0  0.20998  0.54876  0  4.211011  0
C  C210  1  0.04192246  0.24370237  0.63853863  1  1.511629  0  0.20999  0.548855  0  4.210752  0
C  C211  1  0.45807576  0.25629650  0.13854055  1  1.511506  0  0.209992  0.548841  0  4.211011  0
C  C212  1  0.75035281  0.96555001  0.25113225  1  0.453843  0  0.100431  0.223591  0  4.034745  0
C  C213  1  0.74964719  0.53445062  0.75113247  1  0.453864  0  0.10046  0.223676  0  4.034674  0
C  C214  1  0.24964673  0.03444903  0.74886706  1  0.453867  0  0.100465  0.223574  0  4.034817  0
C  C215  1  0.25035281  0.46555068  0.24886738  1  0.453848  0  0.100466  0.22362  0  4.034793  0
C  C216  1  0.67485045  0.93379124  0.22808643  1  0.023221  0  -0.085091  -0.179684  0  3.948865  0
C  C217  1  0.82514945  0.56620888  0.72808712  1  0.02322  0  -0.085113  -0.179701  0  3.948888  0
C  C218  1  0.32514921  0.06620836  0.77191287  1  0.023239  0  -0.085087  -0.17963  0  3.948881  0
C  C219  1  0.17484986  0.43379186  0.27191327  1  0.023255  0  -0.08507  -0.179661  0  3.948897  0
C  C220  1  0.78333735  0.04062584  0.23113825  1  0.236449  0  0.072218  -0.034597  0  3.925468  0
C  C221  1  0.71666221  0.45937528  0.73113690  1  0.236381  0  0.072264  -0.034468  0  3.925357  0
C  C222  1  0.21666220  0.95937320  0.76886268  1  0.236413  0  0.072238  -0.034521  0  3.925469  0
C  C223  1  0.28333665  0.54062603  0.26886187  1  0.236451  0  0.072226  -0.034574  0  3.925454  0
C  C224  1  0.63370631  0.97578096  0.18520561  1  0.054303  0  -0.064915  -0.044316  0  3.923377  0
C  C225  1  0.86629487  0.52421985  0.68520640  1  0.054244  0  -0.065008  -0.044506  0  3.923502  0
C  C226  1  0.36629392  0.02421865  0.81479424  1  0.054308  0  -0.064934  -0.044387  0  3.923372  0
C  C227  1  0.13370445  0.47578089  0.31479399  1  0.054242  0  -0.064989  -0.044445  0  3.923432  0
C  C228  1  0.74178373  0.08308255  0.18908924  1  -0.005261  0  -0.063937  -0.112352  0  3.938971  0
C  C229  1  0.75821574  0.41691811  0.68908962  1  -0.005247  0  -0.064  -0.112519  0  3.938987  0
C  C230  1  0.25821593  0.91691706  0.81091006  1  -0.005262  0  -0.063939  -0.112332  0  3.938966  0
C  C231  1  0.24178381  0.58308376  0.31090968  1  -0.005255  0  -0.063924  -0.112337  0  3.938902  0
C  C232  1  0.66692297  0.05048622  0.16519104  1  -0.027986  0  -0.010271  -0.025111  0  3.961505  0
C  C233  1  0.83307765  0.44951450  0.66519188  1  -0.027982  0  -0.01021  -0.024982  0  3.961467  0
C  C234  1  0.33307726  0.94951338  0.83480881  1  -0.027983  0  -0.010293  -0.025113  0  3.961429  0
C  C235  1  0.16692236  0.55048680  0.33480796  1  -0.027985  0  -0.010258  -0.025092  0  3.961431  0
C  C236  1  0.62195450  0.09593727  0.12030940  1  1.559346  0  0.213121  0.565112  0  4.204006  0
C  C237  1  0.87804431  0.40406301  0.62030873  1  1.559415  0  0.213141  0.565139  0  4.203986  0
C  C238  1  0.37804527  0.90406290  0.87969153  1  1.559404  0  0.213168  0.565183  0  4.203982  0
C  C239  1  0.12195558  0.59593773  0.37969111  1  1.559425  0  0.213196  0.565291  0  4.203765  0
C  C240  1  0.25682323  0.16024739  0.51922126  1  0.540286  0  0.064406  0.106693  0  3.918016  0
C  C241  1  0.24317768  0.33975350  0.01922134  1  0.540285  0  0.06443  0.106819  0  3.917921  0
C  C242  1  0.74317586  0.83975222  0.48077805  1  0.540326  0  0.064411  0.106693  0  3.918037  0
C  C243  1  0.75682427  0.66024895  0.98077850  1  0.540288  0  0.064331  0.106523  0  3.91798  0
C  C244  1  0.36809997  0.11009670  0.50705843  1  0.491016  0  0.059872  0.104186  0  3.934965  0
C  C245  1  0.13190175  0.38990536  0.00705893  1  0.491035  0  0.059817  0.104148  0  3.935001  0
C  C246  1  0.63190071  0.88990234  0.49293979  1  0.491075  0  0.059832  0.104119  0  3.935067  0
C  C247  1  0.86809940  0.61009595  0.99294146  1  0.491039  0  0.059887  0.104267  0  3.934984  0
C  C248  1  0.20899203  0.09000393  0.50596577  1  0.036508  0  -0.074778  -0.167458  0  3.924439  0
C  C249  1  0.29100877  0.40999643  0.00596569  1  0.036289  0  -0.074791  -0.167437  0  3.924353  0
C  C250  1  0.79100751  0.90999511  0.49403408  1  0.03649  0  -0.074793  -0.16752  0  3.924424  0
C  C251  1  0.70899203  0.59000318  0.99403470  1  0.036461  0  -0.074761  -0.167391  0  3.924383  0
C  C252  1  0.32416792  0.03812454  0.49446807  1  -0.035979  0  -0.076625  -0.166653  0  3.933788  0
C  C253  1  0.17583311  0.46187680  0.99446834  1  -0.035999  0  -0.076652  -0.166719  0  3.933845  0
C  C254  1  0.67583265  0.96187393  0.50553123  1  -0.03596  0  -0.076578  -0.166611  0  3.933682  0
C  C255  1  0.82416678  0.53812394  0.00553259  1  -0.035979  0  -0.076657  -0.166732  0  3.933843  0
C  C256  1  0.24250715  0.02651317  0.49461421  1  -0.053247  0  0.018023  0.112837  0  3.977142  0
C  C257  1  0.25749456  0.47348874  0.99461445  1  -0.052996  0  0.018073  0.112874  0  3.977052  0
C  C258  1  0.75749308  0.97348644  0.50538564  1  -0.053254  0  0.018026  0.112899  0  3.977126  0
C  C259  1  0.74250590  0.52651200  0.00538594  1  -0.053149  0  0.018052  0.112885  0  3.977126  0
C  C260  1  0.19505351  0.94971347  0.48456899  1  -0.093138  0  0.014918  0.107856  0  3.985681  0
C  C261  1  0.30494867  0.55028803  0.98456972  1  -0.09346  0  0.014918  0.107896  0  3.985748  0
C  C262  1  0.80494615  0.05028613  0.51543139  1  -0.093102  0  0.014921  0.107811  0  3.985654  0
C  C263  1  0.69505179  0.44971272  0.01543121  1  -0.093468  0  0.014929  0.107865  0  3.985688  0
C  C264  1  0.22014163  0.89752283  0.43856448  1  0.00163  0  -0.085062  -0.179951  0  3.937833  0
C  C265  1  0.27986069  0.60247935  0.93856454  1  0.001969  0  -0.085071  -0.180064  0  3.938025  0
C  C266  1  0.77985838  0.10247847  0.56143428  1  0.001524  0  -0.085014  -0.179879  0  3.937869  0
C  C267  1  0.72013909  0.39752082  0.06143531  1  0.002008  0  -0.085056  -0.180013  0  3.937962  0
C  C268  1  0.12471588  0.92555397  0.52196854  1  0.035475  0  -0.077662  -0.169993  0  3.924552  0
C  C269  1  0.37528663  0.57444648  0.02196873  1  0.035178  0  -0.077712  -0.169953  0  3.924686  0
C  C270  1  0.87528561  0.07444621  0.47803239  1  0.035509  0  -0.077671  -0.169886  0  3.924638  0
C  C271  1  0.62471372  0.42555369  0.97803166  1  0.035195  0  -0.077696  -0.169929  0  3.924594  0
C  C272  1  0.17593703  0.82454969  0.43220062  1  0.464747  0  0.059405  0.106319  0  3.919231  0
C  C273  1  0.32406369  0.67545024  0.93220050  1  0.464611  0  0.05941  0.106373  0  3.91933  0
C  C274  1  0.82406160  0.17545048  0.56779923  1  0.464657  0  0.059345  0.106194  0  3.919298  0
C  C275  1  0.67593597  0.32454936  0.06780043  1  0.464585  0  0.059426  0.106399  0  3.919243  0
C  C276  1  0.08368720  0.85164811  0.51284781  1  0.456048  0  0.061647  0.110386  0  3.922819  0
C  C277  1  0.41631600  0.64835294  0.01284674  1  0.455571  0  0.061645  0.110337  0  3.922801  0
C  C278  1  0.91631315  0.14835207  0.48715366  1  0.455703  0  0.061647  0.110296  0  3.922883  0
C  C279  1  0.58368365  0.35164667  0.98715310  1  0.455575  0  0.06164  0.110325  0  3.922777  0
C  C280  1  0.09520780  0.84164518  0.00288087  1  0.425667  0  0.056728  0.101941  0  3.940374  0
C  C281  1  0.40479106  0.65835417  0.50288134  1  0.425662  0  0.05676  0.101942  0  3.940463  0
C  C282  1  0.90479209  0.15835556  0.99711898  1  0.425713  0  0.056707  0.101826  0  3.940394  0
C  C283  1  0.59520940  0.34164657  0.49711905  1  0.426156  0  0.056745  0.101919  0  3.940428  0
C  C284  1  0.05211332  0.94138556  0.94833763  1  0.417441  0  0.054198  0.093835  0  3.927082  0
C  C285  1  0.44788498  0.55861376  0.44833786  1  0.417145  0  0.054209  0.093897  0  3.927087  0
C  C286  1  0.94788599  0.05861518  0.05166276  1  0.417191  0  0.054164  0.093795  0  3.927183  0
C  C287  1  0.55211399  0.44138528  0.55166253  1  0.417215  0  0.054211  0.093889  0  3.927112  0
C  C288  1  0.16919398  0.88571048  0.01281993  1  0.023865  0  -0.076869  -0.16604  0  3.920643  0
C  C289  1  0.33080556  0.61428942  0.51282050  1  0.023867  0  -0.076916  -0.166029  0  3.920781  0
C  C290  1  0.83080591  0.11429026  0.98718100  1  0.023887  0  -0.076891  -0.166019  0  3.920664  0
C  C291  1  0.66919478  0.38571075  0.48718097  1  0.023889  0  -0.076942  -0.166177  0  3.920857  0
C  C292  1  0.12439559  0.98905845  0.95721377  1  -0.042191  0  -0.079091  -0.164286  0  3.920873  0
C  C293  1  0.37560351  0.51094198  0.45721303  1  -0.041987  0  -0.079112  -0.164356  0  3.921001  0
C  C294  1  0.87560396  0.01094342  0.04278824  1  -0.042075  0  -0.079122  -0.164365  0  3.920914  0
C  C295  1  0.62439683  0.48905819  0.54278736  1  -0.042046  0  -0.079145  -0.164426  0  3.920998  0
C  C296  1  0.18558416  0.96169012  0.98988379  1  -0.044749  0  0.015851  0.108036  0  3.964787  0
C  C297  1  0.31441481  0.53830966  0.48988298  1  -0.044886  0  0.015845  0.108046  0  3.964843  0
C  C298  1  0.81441470  0.03831118  0.01011877  1  -0.044845  0  0.015859  0.108066  0  3.964726  0
C  C299  1  0.68558542  0.46168995  0.51011849  1  -0.044899  0  0.015896  0.1082  0  3.964896  0
C  C300  1  0.26347898  0.01067428  0.00019916  1  -0.032453  0  0.012602  0.101986  0  3.972626  0
C  C301  1  0.23651999  0.48932552  0.50019882  1  -0.031818  0  0.012604  0.101923  0  3.972673  0
C  C302  1  0.73652079  0.98932589  0.99980177  1  -0.031832  0  0.012576  0.101956  0  3.972614  0
C  C303  1  0.76348047  0.51067522  0.49980265  1  -0.031766  0  0.012568  0.101893  0  3.972664  0
C  C304  1  0.27826659  0.08881498  0.98530630  1  0.009905  0  -0.080661  -0.171302  0  3.909663  0
C  C305  1  0.22173307  0.41118525  0.48530621  1  0.009456  0  -0.080677  -0.17128  0  3.909654  0
C  C306  1  0.72173262  0.91118519  0.01469354  1  0.009476  0  -0.080647  -0.171241  0  3.909659  0
C  C307  1  0.77826842  0.58881493  0.51469417  1  0.009451  0  -0.08065  -0.171217  0  3.909642  0
C  C308  1  0.32621547  0.98064278  0.02569385  1  0.027535  0  -0.08394  -0.179436  0  3.940674  0
C  C309  1  0.17378304  0.51935765  0.52569356  1  0.027541  0  -0.083963  -0.179446  0  3.940622  0
C  C310  1  0.67378396  0.01935853  0.97430546  1  0.027521  0  -0.083921  -0.179435  0  3.94071  0
C  C311  1  0.82621800  0.48064309  0.47430629  1  0.027522  0  -0.083921  -0.17937  0  3.940742  0
C  C312  1  0.39837832  0.02771167  0.03670135  1  0.399234  0  0.055998  0.10429  0  3.923432  0
C  C313  1  0.10162075  0.47228860  0.53670105  1  0.398888  0  0.055979  0.104338  0  3.923444  0
C  C314  1  0.60162191  0.97228794  0.96329795  1  0.399563  0  0.055958  0.104238  0  3.923489  0
C  C315  1  0.89837913  0.52771214  0.46329934  1  0.398898  0  0.055978  0.104356  0  3.923444  0
C  C316  1  0.35210987  0.13234321  0.99745832  1  0.434854  0  0.05731  0.106664  0  3.922629  0
C  C317  1  0.14788978  0.36765698  0.49745779  1  0.434498  0  0.057285  0.106626  0  3.922603  0
C  C318  1  0.64788990  0.86765696  0.00254152  1  0.434841  0  0.05728  0.106592  0  3.922712  0
C  C319  1  0.85211011  0.63234376  0.50254151  1  0.434474  0  0.057306  0.106604  0  3.922515  0
N  N320  1  0.82387470  0.10733195  0.74598402  1  0.359934  0  0.056372  0.522352  0  4.22084  0
N  N321  1  0.67612439  0.39266686  0.24598668  1  0.360209  0  0.056347  0.522374  0  4.220845  0
N  N322  1  0.17612416  0.89266936  0.25401745  1  0.359913  0  0.056351  0.522377  0  4.220835  0
N  N323  1  0.32387606  0.60733105  0.75401749  1  0.35995  0  0.056369  0.522419  0  4.220917  0
N  N324  1  0.86135557  0.07781650  0.25609557  1  0.365854  0  0.056683  0.525295  0  4.21583  0
N  N325  1  0.63864432  0.42218342  0.75609593  1  0.365855  0  0.056627  0.525179  0  4.216048  0
N  N326  1  0.13864340  0.92218254  0.74390482  1  0.365868  0  0.056657  0.525217  0  4.215903  0
N  N327  1  0.36135614  0.57781732  0.24390446  1  0.365867  0  0.056641  0.525267  0  4.215822  0
N  N328  1  0.33502811  0.17000196  0.52077936  1  -1.247367  0  -0.293933  -0.235204  0  3.492656  0
N  N329  1  0.16497280  0.32999893  0.02077946  1  -1.247305  0  -0.293879  -0.235167  0  3.492656  0
N  N330  1  0.66497132  0.82999652  0.47921886  1  -1.247435  0  -0.29398  -0.235232  0  3.492747  0
N  N331  1  0.83502961  0.67000295  0.97922038  1  -1.247309  0  -0.293943  -0.23525  0  3.492667  0
N  N332  1  0.10917556  0.80172878  0.46926570  1  -1.234402  0  -0.293123  -0.233833  0  3.48545  0
N  N333  1  0.39082696  0.69827163  0.96926499  1  -1.234306  0  -0.293115  -0.233808  0  3.485442  0
N  N334  1  0.89082502  0.19827253  0.53073469  1  -1.234405  0  -0.293126  -0.233744  0  3.485337  0
N  N335  1  0.60917281  0.30172854  0.03073485  1  -1.234391  0  -0.293141  -0.233843  0  3.485449  0
N  N336  1  0.03721987  0.86870745  0.97083263  1  -1.24725  0  -0.297814  -0.240603  0  3.487831  0
N  N337  1  0.46277968  0.63129238  0.47083269  1  -1.247196  0  -0.297813  -0.240592  0  3.487767  0
N  N338  1  0.96278128  0.13129386  0.02916776  1  -1.247297  0  -0.29776  -0.240521  0  3.487805  0
N  N339  1  0.53721941  0.36870722  0.52916716  1  -1.247277  0  -0.29779  -0.240545  0  3.487762  0
N  N340  1  0.41140312  0.10272183  0.02361508  1  -1.240088  0  -0.298934  -0.247001  0  3.496388  0
N  N341  1  0.08859539  0.39727848  0.52361387  1  -1.23972  0  -0.298932  -0.247059  0  3.496342  0
N  N342  1  0.58859608  0.89727835  0.97638476  1  -1.240415  0  -0.298919  -0.246975  0  3.496374  0
N  N343  1  0.91140450  0.60272226  0.47638597  1  -1.239803  0  -0.298979  -0.247135  0  3.496278  0
O  O344  1  0.89211691  0.89607895  0.89952161  1  -1.165998  0  -0.29654  -0.552173  0  2.241102  0
O  O345  1  0.60788291  0.60392072  0.39952117  1  -1.166008  0  -0.296549  -0.552136  0  2.24103  0
O  O346  1  0.10788310  0.10392236  0.10047661  1  -1.166041  0  -0.296577  -0.552153  0  2.241022  0
O  O347  1  0.39211754  0.39607718  0.60047705  1  -1.166049  0  -0.296568  -0.552146  0  2.241028  0
O  O348  1  0.78951599  0.80043108  0.89388568  1  -1.167594  0  -0.295392  -0.543942  0  2.171001  0
O  O349  1  0.71048384  0.69956861  0.39388502  1  -1.167581  0  -0.295373  -0.543872  0  2.170873  0
O  O350  1  0.21048459  0.19957023  0.10611417  1  -1.167635  0  -0.295383  -0.543858  0  2.170826  0
O  O351  1  0.28951559  0.30042986  0.60611483  1  -1.167631  0  -0.295408  -0.543908  0  2.170855  0
O  O352  1  0.89344708  0.11265310  0.72962521  1  -0.430228  0  -0.122579  -0.321274  0  1.902536  0
O  O353  1  0.60655293  0.38734462  0.22962842  1  -0.430668  0  -0.122538  -0.321245  0  1.902515  0
O  O354  1  0.10655373  0.88734934  0.27037626  1  -0.43025  0  -0.122591  -0.321293  0  1.902546  0
O  O355  1  0.39344729  0.61265215  0.77037575  1  -0.430289  0  -0.122601  -0.32132  0  1.90258  0
O  O356  1  0.78825714  0.16037375  0.74541083  1  -0.437332  0  -0.124556  -0.324524  0  1.905099  0
O  O357  1  0.71174401  0.33962677  0.24541740  1  -0.437335  0  -0.124536  -0.324552  0  1.90522  0
O  O358  1  0.21174298  0.83962813  0.25459010  1  -0.437244  0  -0.124515  -0.324504  0  1.905136  0
O  O359  1  0.28825667  0.66037227  0.75458948  1  -0.437258  0  -0.124531  -0.324531  0  1.905127  0
O  O360  1  0.66510539  0.04690298  0.70189374  1  -1.107103  0  -0.155288  -0.226524  0  2.620293  0
O  O361  1  0.83489452  0.45309708  0.20189301  1  -1.107109  0  -0.155299  -0.226518  0  2.620331  0
O  O362  1  0.33489564  0.95309776  0.29810611  1  -1.107104  0  -0.155287  -0.226506  0  2.620327  0
O  O363  1  0.16510502  0.54690196  0.79810846  1  -1.106751  0  -0.155326  -0.226516  0  2.620352  0
O  O364  1  0.43987335  0.25251545  0.65805046  1  -1.134233  0  -0.292396  -0.526603  0  2.176863  0
O  O365  1  0.06012761  0.24748564  0.15805075  1  -1.134253  0  -0.292389  -0.52658  0  2.176856  0
O  O366  1  0.56012745  0.74748416  0.34194723  1  -1.134318  0  -0.292428  -0.526656  0  2.176969  0
O  O367  1  0.93987308  0.75251623  0.84194855  1  -1.134261  0  -0.292424  -0.52664  0  2.176927  0
O  O368  1  0.50633436  0.20652814  0.57194476  1  -1.167076  0  -0.299543  -0.56212  0  2.217276  0
O  O369  1  0.99366607  0.29347170  0.07194551  1  -1.167075  0  -0.29951  -0.562075  0  2.21731  0
O  O370  1  0.49366633  0.79347090  0.42805292  1  -1.166946  0  -0.299524  -0.562066  0  2.217204  0
O  O371  1  0.00633325  0.70652904  0.92805433  1  -1.167049  0  -0.299539  -0.56209  0  2.217255  0
O  O372  1  0.58206873  0.14091466  0.94620683  1  -1.163656  0  -0.295373  -0.550105  0  2.268894  0
O  O373  1  0.91792878  0.35908475  0.44620471  1  -1.163701  0  -0.295381  -0.550093  0  2.268834  0
O  O374  1  0.41793035  0.85908495  0.05379194  1  -1.163675  0  -0.295334  -0.550054  0  2.268819  0
O  O375  1  0.08207214  0.64091542  0.55379514  1  -1.163641  0  -0.29535  -0.550069  0  2.268847  0
O  O376  1  0.49599946  0.21181607  0.91638779  1  -1.154955  0  -0.293762  -0.543681  0  2.179403  0
O  O377  1  0.00399886  0.28818320  0.41638798  1  -1.154913  0  -0.293758  -0.543691  0  2.179435  0
O  O378  1  0.50400008  0.78818297  0.08361098  1  -1.154985  0  -0.293732  -0.543583  0  2.179509  0
O  O379  1  0.99600194  0.71181641  0.58361132  1  -1.154864  0  -0.293768  -0.543731  0  2.179455  0
O  O380  1  0.94982590  0.75828997  0.08118646  1  -1.149134  0  -0.29609  -0.541868  0  2.163722  0
O  O381  1  0.55017452  0.74170998  0.58118508  1  -1.149165  0  -0.296104  -0.541896  0  2.163816  0
O  O382  1  0.05017673  0.24171021  0.91881393  1  -1.149383  0  -0.296037  -0.541811  0  2.163869  0
O  O383  1  0.44982342  0.25828963  0.41881477  1  -1.149061  0  -0.296057  -0.541845  0  2.163953  0
O  O384  1  0.86441976  0.83032035  0.05372758  1  -1.169779  0  -0.29872  -0.557712  0  2.27454  0
O  O385  1  0.63558011  0.66967966  0.55372693  1  -1.169772  0  -0.298711  -0.557675  0  2.274549  0
O  O386  1  0.13558035  0.16967869  0.94627064  1  -1.169715  0  -0.298674  -0.557612  0  2.274624  0
O  O387  1  0.36441898  0.33031994  0.44627184  1  -1.169737  0  -0.29868  -0.557618  0  2.274612  0
O  O388  1  0.00097762  0.70940103  0.34208364  1  -1.138165  0  -0.294847  -0.535199  0  2.190323  0
O  O389  1  0.49902348  0.79060084  0.84208001  1  -1.138231  0  -0.29484  -0.535121  0  2.190349  0
O  O390  1  0.99902215  0.29059914  0.65791675  1  -1.138182  0  -0.294851  -0.535171  0  2.190333  0
O  O391  1  0.50097560  0.20939876  0.15791930  1  -1.138199  0  -0.294828  -0.53515  0  2.19039  0
O  O392  1  0.94645769  0.76873392  0.42785597  1  -1.162432  0  -0.299748  -0.55966  0  2.194802  0
O  O393  1  0.55354213  0.73126851  0.92785353  1  -1.162464  0  -0.299716  -0.559606  0  2.194953  0
O  O394  1  0.05354163  0.23126682  0.57214388  1  -1.162442  0  -0.299744  -0.559672  0  2.19485  0
O  O395  1  0.44645719  0.26873223  0.07214577  1  -1.162359  0  -0.299751  -0.559661  0  2.194968  0
O  O396  1  0.78712159  0.92596605  0.29926865  1  -1.101776  0  -0.155287  -0.220774  0  2.588379  0
O  O397  1  0.71287839  0.57403446  0.79926877  1  -1.101964  0  -0.155288  -0.220796  0  2.588383  0
O  O398  1  0.21287806  0.07403356  0.70073011  1  -1.101823  0  -0.155271  -0.220807  0  2.588513  0
O  O399  1  0.28712081  0.42596571  0.20073108  1  -1.101798  0  -0.155305  -0.220813  0  2.588446  0
O  O400  1  0.91140531  0.03835460  0.26279349  1  -0.444653  0  -0.130384  -0.331182  0  1.903125  0
O  O401  1  0.58859400  0.46164530  0.76279321  1  -0.44467  0  -0.130397  -0.331183  0  1.903144  0
O  O402  1  0.08859446  0.96164557  0.73720690  1  -0.444655  0  -0.130347  -0.331134  0  1.903065  0
O  O403  1  0.41140554  0.53835374  0.23720718  1  -0.444677  0  -0.130374  -0.331181  0  1.903008  0
O  O404  1  0.87201799  0.14685733  0.26861882  1  -0.436234  0  -0.126492  -0.327242  0  1.906603  0
O  O405  1  0.62798338  0.35314426  0.76862043  1  -0.436192  0  -0.126415  -0.32715  0  1.90676  0
O  O406  1  0.12798121  0.85314284  0.73138157  1  -0.436239  0  -0.126501  -0.327233  0  1.906715  0
O  O407  1  0.37201879  0.64685649  0.23138158  1  -0.436213  0  -0.12646  -0.327214  0  1.906754  0
O  O408  1  0.55093037  0.06772855  0.10489664  1  -1.171072  0  -0.296487  -0.548467  0  2.215405  0
O  O409  1  0.94906788  0.43227176  0.60489537  1  -1.171134  0  -0.296529  -0.548549  0  2.215345  0
O  O410  1  0.44906826  0.93227162  0.89510375  1  -1.171155  0  -0.296538  -0.548532  0  2.215454  0
O  O411  1  0.05093201  0.56772898  0.39510448  1  -1.171127  0  -0.296569  -0.548631  0  2.215223  0
O  O412  1  0.65474528  0.16175383  0.09860401  1  -1.163553  0  -0.296541  -0.546232  0  2.184353  0
O  O413  1  0.84525285  0.33824593  0.59860567  1  -1.163532  0  -0.296548  -0.54624  0  2.184355  0
O  O414  1  0.34525426  0.83824521  0.90139475  1  -1.163542  0  -0.296546  -0.546261  0  2.184368  0
O  O415  1  0.15474795  0.66175368  0.40139634  1  -1.163582  0  -0.296556  -0.546299  0  2.184356  0
