# generated using pymatgen
data_Zn2BH19C23(N5O2)2
_symmetry_space_group_name_H-M   'P 1'
_cell_length_a   12.98270399
_cell_length_b   12.98272288
_cell_length_c   53.72468757
_cell_angle_alpha   90.00002022
_cell_angle_beta   89.99996426
_cell_angle_gamma   89.99961188
_symmetry_Int_Tables_number   1
_chemical_formula_structural   Zn2BH19C23(N5O2)2
_chemical_formula_sum   'Zn16 B8 H152 C184 N80 O32'
_cell_volume   9055.34165386
_cell_formula_units_Z   8
loop_
 _symmetry_equiv_pos_site_id
 _symmetry_equiv_pos_as_xyz
  1  'x, y, z'
loop_
 _atom_site_type_symbol
 _atom_site_label
 _atom_site_symmetry_multiplicity
 _atom_site_fract_x
 _atom_site_fract_y
 _atom_site_fract_z
 _atom_site_occupancy
 _atom_site_pbe_bader_charge
 _atom_site_pbe_bader_spin_density
 _atom_site_pbe_cm5_charge
 _atom_site_pbe_ddec_charge
 _atom_site_pbe_ddec_spin_density
 _atom_site_pbe_ddec_sum_bond_order
 _atom_site_pbe_magmom
Zn  Zn0  1  0.14923622  0.12650288  0.88586722  1  1.218118  0  0.705138  0.696059  0  2.513534  0
Zn  Zn1  1  0.32929392  0.06965273  0.68656628  1  1.219536  0  0.704398  0.697992  0  2.498969  0
Zn  Zn2  1  0.85076230  0.87349752  0.38586746  1  1.218163  0  0.705099  0.69599  0  2.513647  0
Zn  Zn3  1  0.67070666  0.93034738  0.18656636  1  1.219539  0  0.704407  0.697977  0  2.498968  0
Zn  Zn4  1  0.37352151  0.64926248  0.13585561  1  1.218054  0  0.705201  0.696371  0  2.513306  0
Zn  Zn5  1  0.43036550  0.82925516  0.93654765  1  1.219272  0  0.704275  0.697632  0  2.498917  0
Zn  Zn6  1  0.62647920  0.35073678  0.63585532  1  1.218016  0  0.705218  0.696374  0  2.513284  0
Zn  Zn7  1  0.56963366  0.17074762  0.43654769  1  1.219364  0  0.704286  0.697596  0  2.498984  0
Zn  Zn8  1  0.35073713  0.62647860  0.36414451  1  1.218014  0  0.705231  0.696389  0  2.513301  0
Zn  Zn9  1  0.17074606  0.56963149  0.56345215  1  1.219327  0  0.7042  0.697451  0  2.49909  0
Zn  Zn10  1  0.64926375  0.37352100  0.86414478  1  1.218042  0  0.705235  0.696418  0  2.513237  0
Zn  Zn11  1  0.82925406  0.43036767  0.06345254  1  1.219268  0  0.704253  0.697566  0  2.498968  0
Zn  Zn12  1  0.12650304  0.14923799  0.11413282  1  1.218122  0  0.705158  0.696096  0  2.513504  0
Zn  Zn13  1  0.06965423  0.32929378  0.31343338  1  1.219503  0  0.704345  0.697884  0  2.49901  0
Zn  Zn14  1  0.87349772  0.85076355  0.61413235  1  1.218173  0  0.705109  0.695971  0  2.513695  0
Zn  Zn15  1  0.93034601  0.67070728  0.81343326  1  1.219487  0  0.704386  0.697981  0  2.498908  0
B  B16  1  0.25431312  0.53383232  0.87249517  1  2.207497  0  0.112778  0.527547  0  3.328608  0
B  B17  1  0.74568698  0.46616729  0.37249520  1  2.207746  0  0.112777  0.527475  0  3.328733  0
B  B18  1  0.96616273  0.75432394  0.12251719  1  2.207211  0  0.112827  0.52799  0  3.327586  0
B  B19  1  0.03383877  0.24567608  0.62251773  1  2.207211  0  0.112763  0.527909  0  3.327652  0
B  B20  1  0.24567703  0.03383749  0.37748268  1  2.207214  0  0.112828  0.528044  0  3.327553  0
B  B21  1  0.75432305  0.96616213  0.87748261  1  2.207212  0  0.112765  0.52791  0  3.327649  0
B  B22  1  0.53383307  0.25431320  0.12750485  1  2.207743  0  0.112825  0.527555  0  3.328596  0
B  B23  1  0.46616766  0.74568606  0.62750481  1  2.207854  0  0.112742  0.527486  0  3.328738  0
H  H24  1  0.04533434  0.53150377  0.85328669  1  0.138025  0  0.135492  0.093188  0  1.028012  0
H  H25  1  0.31425539  0.70969428  0.84208382  1  0.117146  0  0.126548  0.119744  0  0.993944  0
H  H26  1  0.15613789  0.78289361  0.81169520  1  0.159918  0  0.12584  0.128516  0  1.013739  0
H  H27  1  0.27475030  0.31173785  0.86587473  1  0.195212  0  0.136135  0.111393  0  1.040828  0
H  H28  1  0.99295655  0.31568916  0.90503005  1  0.18573  0  0.117294  0.121953  0  1.032468  0
H  H29  1  0.06107220  0.51598389  0.89979641  1  0.110206  0  0.127225  0.120875  0  0.988876  0
H  H30  1  0.46122317  0.48320974  0.88965709  1  0.158662  0  0.139013  0.103829  0  1.008963  0
H  H31  1  0.29755861  0.47446015  0.82141343  1  0.116896  0  0.131418  0.128369  0  0.984641  0
H  H32  1  0.49242432  0.39061575  0.81492515  1  0.119462  0  0.123471  0.114402  0  0.992386  0
H  H33  1  0.31431844  0.95223589  0.88907303  1  0.079913  0  0.120327  0.076139  0  1.010252  0
H  H34  1  0.34702887  0.01615023  0.96554510  1  0.133241  0  0.11512  0.114938  0  1.014605  0
H  H35  1  0.21665649  0.16177419  0.94394759  1  0.053078  0  0.109112  0.099561  0  1.011987  0
H  H36  1  0.31274012  0.74709325  0.88547431  1  0.12507  0  0.13221  0.084951  0  1.020677  0
H  H37  1  0.38546498  0.60020938  0.95313109  1  0.159683  0  0.126934  0.132121  0  1.003348  0
H  H38  1  0.28950012  0.45887185  0.92164351  1  0.115969  0  0.129601  0.125197  0  0.997932  0
H  H39  1  0.37515285  0.18526477  0.80800207  1  0.068029  0  0.092873  0.089289  0  1.036553  0
H  H40  1  0.38424203  0.15409174  0.76182591  1  0.086128  0  0.098739  0.10339  0  1.010905  0
H  H41  1  0.13299894  0.93905736  0.76775973  1  0.14243  0  0.101352  0.115252  0  1.04582  0
H  H42  1  0.12361167  0.97179940  0.81329764  1  0.083865  0  0.097827  0.0998  0  1.02277  0
H  H43  1  0.95466580  0.46849582  0.35328669  1  0.138025  0  0.135464  0.093156  0  1.027969  0
H  H44  1  0.68574401  0.29030760  0.34208329  1  0.117146  0  0.126558  0.119778  0  0.993929  0
H  H45  1  0.84386236  0.21710668  0.31169520  1  0.159921  0  0.125846  0.128523  0  1.013748  0
H  H46  1  0.72524904  0.68826098  0.36587460  1  0.195205  0  0.136157  0.111462  0  1.040772  0
H  H47  1  0.00704269  0.68431204  0.40502965  1  0.185731  0  0.117293  0.121927  0  1.032518  0
H  H48  1  0.93892783  0.48401807  0.39979604  1  0.110205  0  0.127204  0.120867  0  0.988938  0
H  H49  1  0.53877611  0.51678990  0.38965716  1  0.158665  0  0.139008  0.10386  0  1.008937  0
H  H50  1  0.70244238  0.52553938  0.32141366  1  0.116891  0  0.131407  0.128334  0  0.984677  0
H  H51  1  0.50757669  0.60938223  0.31492467  1  0.119465  0  0.123476  0.11443  0  0.992359  0
H  H52  1  0.68568469  0.04776760  0.38907341  1  0.079894  0  0.120322  0.076137  0  1.010315  0
H  H53  1  0.65297098  0.98385568  0.46554537  1  0.133498  0  0.115106  0.114958  0  1.014552  0
H  H54  1  0.78334111  0.83822861  0.44394839  1  0.053129  0  0.109057  0.099396  0  1.012063  0
H  H55  1  0.68725840  0.25290715  0.38547433  1  0.125083  0  0.132236  0.084962  0  1.020663  0
H  H56  1  0.61453337  0.39979266  0.45313094  1  0.159681  0  0.126885  0.132015  0  1.003444  0
H  H57  1  0.71049907  0.54112938  0.42164300  1  0.115953  0  0.129586  0.125176  0  0.997898  0
H  H58  1  0.62484125  0.81474168  0.30800196  1  0.067597  0  0.092933  0.089331  0  1.036506  0
H  H59  1  0.61575604  0.84591233  0.26182562  1  0.086139  0  0.098734  0.1034  0  1.010956  0
H  H60  1  0.86700450  0.06094056  0.26776027  1  0.142581  0  0.10136  0.115266  0  1.045829  0
H  H61  1  0.87638781  0.02819859  0.31329817  1  0.08388  0  0.097872  0.099905  0  1.022853  0
H  H62  1  0.96847038  0.54531846  0.10332061  1  0.135906  0  0.13543  0.093238  0  1.027718  0
H  H63  1  0.79029628  0.81425493  0.09211740  1  0.117588  0  0.126485  0.11959  0  0.993895  0
H  H64  1  0.71708714  0.65614503  0.06172746  1  0.160824  0  0.125678  0.128453  0  1.013331  0
H  H65  1  0.18823459  0.77474987  0.11586575  1  0.190971  0  0.136137  0.11146  0  1.040705  0
H  H66  1  0.18438576  0.49299468  0.15503674  1  0.185445  0  0.117403  0.122023  0  1.032369  0
H  H67  1  0.98408027  0.56113253  0.14984037  1  0.111987  0  0.127251  0.121252  0  0.988695  0
H  H68  1  0.01681895  0.96125371  0.13966041  1  0.158933  0  0.139082  0.10401  0  1.009019  0
H  H69  1  0.02545877  0.79751603  0.07142809  1  0.117173  0  0.131487  0.128379  0  0.985049  0
H  H70  1  0.10932201  0.99235545  0.06492047  1  0.117622  0  0.123572  0.114608  0  0.992587  0
H  H71  1  0.54773889  0.81439135  0.13908261  1  0.080262  0  0.120411  0.076244  0  1.010153  0
H  H72  1  0.48380054  0.84692255  0.21555770  1  0.132606  0  0.115084  0.114916  0  1.014811  0
H  H73  1  0.33819652  0.71659058  0.19394027  1  0.052403  0  0.108986  0.099454  0  1.012089  0
H  H74  1  0.75288800  0.81270534  0.13549728  1  0.126034  0  0.132266  0.084998  0  1.020767  0
H  H75  1  0.89976616  0.88547083  0.20315108  1  0.158861  0  0.127039  0.132162  0  1.00324  0
H  H76  1  0.04113106  0.78956086  0.17166022  1  0.116296  0  0.129652  0.125186  0  0.997824  0
H  H77  1  0.31469180  0.87514513  0.05798918  1  0.067528  0  0.092742  0.089153  0  1.036469  0
H  H78  1  0.34586408  0.88421782  0.01181376  1  0.084495  0  0.098612  0.103395  0  1.010839  0
H  H79  1  0.56092027  0.63299399  0.01774918  1  0.142613  0  0.101309  0.115134  0  1.045776  0
H  H80  1  0.52819055  0.62362244  0.06328709  1  0.084926  0  0.097824  0.099888  0  1.022494  0
H  H81  1  0.03153118  0.45468230  0.60332079  1  0.135915  0  0.135428  0.093257  0  1.027735  0
H  H82  1  0.20970377  0.18574504  0.59211716  1  0.11758  0  0.126481  0.119599  0  0.993907  0
H  H83  1  0.28290990  0.34385490  0.56172648  1  0.160784  0  0.125701  0.12849  0  1.013244  0
H  H84  1  0.81176770  0.22525014  0.61586542  1  0.190971  0  0.136188  0.111504  0  1.04066  0
H  H85  1  0.81561412  0.50700461  0.65503681  1  0.185455  0  0.117393  0.121993  0  1.032349  0
H  H86  1  0.01591963  0.43886676  0.64984074  1  0.111977  0  0.127258  0.121267  0  0.988696  0
H  H87  1  0.98318098  0.03874710  0.63966079  1  0.158996  0  0.139065  0.104  0  1.008964  0
H  H88  1  0.97454518  0.20248700  0.57142829  1  0.117213  0  0.131481  0.12833  0  0.985073  0
H  H89  1  0.89068042  0.00764833  0.56492048  1  0.117872  0  0.123608  0.114694  0  0.992537  0
H  H90  1  0.45226258  0.18560869  0.63908270  1  0.080278  0  0.1204  0.076196  0  1.010195  0
H  H91  1  0.51620073  0.15307837  0.71555778  1  0.132671  0  0.115115  0.114942  0  1.014764  0
H  H92  1  0.66180481  0.28340954  0.69394034  1  0.052383  0  0.108978  0.099449  0  1.012054  0
H  H93  1  0.24711271  0.18729393  0.63549778  1  0.126064  0  0.132276  0.085029  0  1.020767  0
H  H94  1  0.10023360  0.11453162  0.70315178  1  0.158746  0  0.126995  0.13214  0  1.003121  0
H  H95  1  0.95886955  0.21044077  0.67166061  1  0.116226  0  0.129655  0.125172  0  0.99786  0
H  H96  1  0.68530756  0.12485402  0.55798905  1  0.067524  0  0.092738  0.089174  0  1.036471  0
H  H97  1  0.65413695  0.11578127  0.51181345  1  0.084471  0  0.098609  0.103397  0  1.010794  0
H  H98  1  0.43907919  0.36700434  0.51774874  1  0.142616  0  0.101346  0.115177  0  1.045794  0
H  H99  1  0.47180957  0.37637749  0.56328664  1  0.084941  0  0.097846  0.09991  0  1.022478  0
H  H100  1  0.45468278  0.03152680  0.39667961  1  0.135861  0  0.135388  0.09319  0  1.027795  0
H  H101  1  0.18574666  0.20970221  0.40788250  1  0.117632  0  0.126475  0.119571  0  0.993927  0
H  H102  1  0.34385751  0.28290899  0.43827280  1  0.160861  0  0.125702  0.128454  0  1.013393  0
H  H103  1  0.22525106  0.81176606  0.38413459  1  0.190967  0  0.136184  0.111513  0  1.040687  0
H  H104  1  0.50700520  0.81561326  0.34496301  1  0.185439  0  0.117396  0.122019  0  1.032369  0
H  H105  1  0.43886647  0.01591839  0.35015929  1  0.112006  0  0.127273  0.121292  0  0.988675  0
H  H106  1  0.03874622  0.98318295  0.36033978  1  0.159016  0  0.139087  0.104029  0  1.009004  0
H  H107  1  0.20248555  0.97454173  0.42857190  1  0.117204  0  0.131484  0.128364  0  0.985041  0
H  H108  1  0.00764660  0.89067863  0.43507953  1  0.117645  0  0.123576  0.114619  0  0.99261  0
H  H109  1  0.18561034  0.45226069  0.36091713  1  0.08028  0  0.120422  0.076247  0  1.010115  0
H  H110  1  0.15307848  0.51620111  0.28444224  1  0.132521  0  0.115092  0.1149  0  1.014788  0
H  H111  1  0.28340905  0.66180496  0.30605986  1  0.052394  0  0.108987  0.099446  0  1.012046  0
H  H112  1  0.18729481  0.24711266  0.36450263  1  0.126038  0  0.132269  0.085029  0  1.020737  0
H  H113  1  0.11453089  0.10023381  0.29684881  1  0.158767  0  0.127005  0.132127  0  1.003189  0
H  H114  1  0.21044170  0.95886926  0.32833958  1  0.116208  0  0.129642  0.125174  0  0.997849  0
H  H115  1  0.12485400  0.68530606  0.44201059  1  0.067533  0  0.092783  0.089243  0  1.036476  0
H  H116  1  0.11578120  0.65413547  0.48818620  1  0.084488  0  0.098605  0.103422  0  1.010812  0
H  H117  1  0.36700464  0.43907803  0.48225128  1  0.142417  0  0.101339  0.115198  0  1.045782  0
H  H118  1  0.37637783  0.47180839  0.43671319  1  0.084915  0  0.097856  0.099923  0  1.022488  0
H  H119  1  0.54531648  0.96847053  0.89667920  1  0.13588  0  0.135412  0.093242  0  1.027698  0
H  H120  1  0.81425257  0.79029591  0.90788259  1  0.117627  0  0.126497  0.119585  0  0.993934  0
H  H121  1  0.65614242  0.71708918  0.93827291  1  0.160834  0  0.125691  0.128464  0  1.013343  0
H  H122  1  0.77474977  0.18823357  0.88413464  1  0.190964  0  0.136189  0.111486  0  1.040671  0
H  H123  1  0.49299497  0.18438631  0.84496328  1  0.185445  0  0.117409  0.122074  0  1.032338  0
H  H124  1  0.56113214  0.98408042  0.85015981  1  0.111996  0  0.127249  0.121219  0  0.988702  0
H  H125  1  0.96125390  0.01681742  0.86033960  1  0.159026  0  0.139094  0.104011  0  1.008996  0
H  H126  1  0.79751363  0.02545797  0.92857212  1  0.117197  0  0.131489  0.128383  0  0.985038  0
H  H127  1  0.99235410  0.10932031  0.93507973  1  0.117637  0  0.123582  0.114681  0  0.992547  0
H  H128  1  0.81438902  0.54773967  0.86091721  1  0.080269  0  0.120424  0.076268  0  1.010146  0
H  H129  1  0.84692030  0.48380068  0.78444230  1  0.132471  0  0.115106  0.114903  0  1.014833  0
H  H130  1  0.71658891  0.33819609  0.80605993  1  0.052398  0  0.108999  0.099512  0  1.012071  0
H  H131  1  0.81270685  0.75288771  0.86450197  1  0.126085  0  0.132292  0.085053  0  1.02076  0
H  H132  1  0.88547017  0.89976954  0.79684816  1  0.158788  0  0.127002  0.132131  0  1.003164  0
H  H133  1  0.78956159  0.04113260  0.82833980  1  0.116276  0  0.129652  0.12517  0  0.997803  0
H  H134  1  0.87514592  0.31469134  0.94201082  1  0.067511  0  0.092744  0.089172  0  1.036457  0
H  H135  1  0.88421782  0.34586431  0.98818643  1  0.084491  0  0.098595  0.103365  0  1.010885  0
H  H136  1  0.63299440  0.56092097  0.98225101  1  0.142418  0  0.101341  0.115212  0  1.045773  0
H  H137  1  0.62362210  0.52818977  0.93671310  1  0.084928  0  0.097836  0.099903  0  1.022493  0
H  H138  1  0.53150527  0.04533625  0.14671352  1  0.138073  0  0.135479  0.093192  0  1.027924  0
H  H139  1  0.70969449  0.31425767  0.15791656  1  0.117103  0  0.126633  0.119879  0  0.993998  0
H  H140  1  0.78289315  0.15614039  0.18830537  1  0.159819  0  0.125825  0.128483  0  1.013748  0
H  H141  1  0.31174058  0.27474880  0.13412566  1  0.195235  0  0.136194  0.111552  0  1.040745  0
H  H142  1  0.31569038  0.99295634  0.09496995  1  0.185725  0  0.117278  0.121915  0  1.032493  0
H  H143  1  0.51598385  0.06107180  0.10020362  1  0.110168  0  0.127212  0.120839  0  0.988929  0
H  H144  1  0.48320965  0.46122295  0.11034292  1  0.158674  0  0.13901  0.10386  0  1.008906  0
H  H145  1  0.47446156  0.29755706  0.17858622  1  0.116907  0  0.131417  0.128387  0  0.984669  0
H  H146  1  0.39061934  0.49242325  0.18507543  1  0.119466  0  0.123462  0.114413  0  0.992387  0
H  H147  1  0.95223802  0.31431921  0.11092697  1  0.079961  0  0.120325  0.076159  0  1.010252  0
H  H148  1  0.01614488  0.34702964  0.03445456  1  0.133499  0  0.115098  0.114946  0  1.01457  0
H  H149  1  0.16177135  0.21665897  0.05605151  1  0.053117  0  0.109068  0.099459  0  1.012088  0
H  H150  1  0.74709354  0.31274011  0.11452570  1  0.125056  0  0.132208  0.084922  0  1.020703  0
H  H151  1  0.60020950  0.38546645  0.04686911  1  0.159695  0  0.126885  0.132029  0  1.003415  0
H  H152  1  0.45887174  0.28950095  0.07835688  1  0.115973  0  0.12959  0.125199  0  0.997926  0
H  H153  1  0.18526266  0.37515348  0.19199740  1  0.068001  0  0.092885  0.089282  0  1.036562  0
H  H154  1  0.15409264  0.38424262  0.23817356  1  0.086099  0  0.098771  0.10349  0  1.010864  0
H  H155  1  0.93905709  0.13299913  0.23224009  1  0.14243  0  0.101359  0.115276  0  1.04581  0
H  H156  1  0.97179998  0.12361190  0.18670218  1  0.083856  0  0.09787  0.099889  0  1.02289  0
H  H157  1  0.46849464  0.95466303  0.64671312  1  0.138072  0  0.135479  0.093175  0  1.027956  0
H  H158  1  0.29030769  0.68574085  0.65791691  1  0.117094  0  0.126634  0.119881  0  0.993942  0
H  H159  1  0.21710742  0.84385896  0.68830537  1  0.159829  0  0.125817  0.128481  0  1.013759  0
H  H160  1  0.68826167  0.72524892  0.63412577  1  0.195193  0  0.136229  0.111587  0  1.040746  0
H  H161  1  0.68431120  0.00704209  0.59497037  1  0.185736  0  0.117292  0.121941  0  1.032499  0
H  H162  1  0.48401771  0.93892587  0.60020359  1  0.110223  0  0.127225  0.120855  0  0.988923  0
H  H163  1  0.51679035  0.53877550  0.61034267  1  0.158674  0  0.138992  0.103804  0  1.008976  0
H  H164  1  0.52554135  0.70244227  0.67858616  1  0.116691  0  0.131435  0.128396  0  0.984633  0
H  H165  1  0.60938355  0.50757532  0.68507478  1  0.11948  0  0.123486  0.11445  0  0.992345  0
H  H166  1  0.04776506  0.68568079  0.61092661  1  0.079977  0  0.120305  0.076093  0  1.010262  0
H  H167  1  0.98385378  0.65297102  0.53445462  1  0.133497  0  0.11511  0.11494  0  1.014571  0
H  H168  1  0.83822879  0.78334326  0.55605178  1  0.053122  0  0.109071  0.099452  0  1.012046  0
H  H169  1  0.25290567  0.68725758  0.61452587  1  0.125046  0  0.132272  0.085078  0  1.020597  0
H  H170  1  0.39979143  0.61453269  0.54686944  1  0.159433  0  0.126911  0.132067  0  1.00339  0
H  H171  1  0.54112834  0.71049824  0.57835719  1  0.115996  0  0.12958  0.125173  0  0.997938  0
H  H172  1  0.81474021  0.62484125  0.69199766  1  0.068031  0  0.092904  0.089292  0  1.036523  0
H  H173  1  0.84591088  0.61575525  0.73817382  1  0.086119  0  0.098732  0.103406  0  1.010924  0
H  H174  1  0.06093874  0.86700489  0.73223975  1  0.142596  0  0.101364  0.115278  0  1.045823  0
H  H175  1  0.02819674  0.87638975  0.68670184  1  0.084061  0  0.097868  0.099907  0  1.022808  0
C  C176  1  0.09604546  0.59171746  0.84655515  1  0.977529  0  0.145701  0.131067  0  3.930408  0
C  C177  1  0.23443697  0.68615326  0.84053017  1  0.298166  0  0.001536  -0.078815  0  3.952387  0
C  C178  1  0.15692066  0.72137032  0.82536043  1  0.372592  0  0.007114  -0.016416  0  3.959848  0
C  C179  1  0.20838882  0.34097309  0.87593455  1  0.965247  0  0.15066  0.138479  0  3.899848  0
C  C180  1  0.06355070  0.34425642  0.89665911  1  0.318369  0  0.000121  -0.028036  0  3.969546  0
C  C181  1  0.09503225  0.44429003  0.89353820  1  0.334192  0  0.00168  -0.075623  0  3.95965  0
C  C182  1  0.44317230  0.46929591  0.87022822  1  0.954978  0  0.152214  0.144833  0  3.900794  0
C  C183  1  0.36016578  0.46368332  0.83449121  1  0.308007  0  0.009309  -0.062415  0  3.946218  0
C  C184  1  0.45649023  0.42191210  0.83150952  1  0.400964  0  0.000371  -0.035234  0  4.001047  0
C  C185  1  0.30583547  0.98891930  0.90712749  1  0.982554  0  0.109903  0.128825  0  4.036171  0
C  C186  1  0.32107049  0.02522621  0.94648905  1  0.341083  0  -0.02088  -0.051613  0  4.022191  0
C  C187  1  0.25619548  0.09638407  0.93574354  1  0.378871  0  -0.027767  -0.070888  0  4.058638  0
C  C188  1  0.32031345  0.68831512  0.89968379  1  0.977488  0  0.14408  0.132036  0  3.937883  0
C  C189  1  0.35471174  0.60924918  0.93448566  1  0.408991  0  0.004435  -0.024008  0  3.962611  0
C  C190  1  0.30860219  0.53932023  0.91894941  1  0.280552  0  0.006005  -0.072271  0  3.953691  0
C  C191  1  0.24181722  0.10429533  0.84065243  1  1.54056  0  0.192316  0.559765  0  4.225337  0
C  C192  1  0.24932733  0.08007232  0.81343310  1  -0.096908  0  -0.024813  -0.034786  0  3.987009  0
C  C193  1  0.32336722  0.13093042  0.79890626  1  -0.053901  0  -0.096709  -0.110953  0  4.015533  0
C  C194  1  0.32825458  0.11385538  0.77338484  1  -0.015381  0  -0.092945  -0.10263  0  3.997454  0
C  C195  1  0.25934777  0.04531683  0.76190967  1  -0.07028  0  -0.018921  -0.026928  0  3.966617  0
C  C196  1  0.18633509  0.99305818  0.77642167  1  -0.034365  0  -0.086667  -0.096974  0  3.952828  0
C  C197  1  0.18137178  0.01068571  0.80197617  1  -0.012847  0  -0.090926  -0.099851  0  3.978215  0
C  C198  1  0.26153306  0.03119187  0.73416972  1  1.545189  0  0.196745  0.557877  0  4.23096  0
C  C199  1  0.90395393  0.40828288  0.34655534  1  0.97752  0  0.145673  0.13102  0  3.93034  0
C  C200  1  0.76556321  0.31384707  0.34053000  1  0.297968  0  0.00151  -0.078908  0  3.952441  0
C  C201  1  0.84308033  0.27863000  0.32536043  1  0.372794  0  0.007107  -0.016429  0  3.959941  0
C  C202  1  0.79161050  0.65902730  0.37593459  1  0.965516  0  0.150623  0.138385  0  3.89991  0
C  C203  1  0.93645088  0.65574323  0.39665931  1  0.318363  0  0.000121  -0.027983  0  3.96945  0
C  C204  1  0.90496933  0.55570808  0.39353821  1  0.33414  0  0.001682  -0.075656  0  3.959636  0
C  C205  1  0.55682780  0.53070293  0.37022810  1  0.954971  0  0.152109  0.144711  0  3.900806  0
C  C206  1  0.63983442  0.53631546  0.33449126  1  0.308029  0  0.009341  -0.062353  0  3.94624  0
C  C207  1  0.54351151  0.57808592  0.33150940  1  0.400929  0  0.000472  -0.035072  0  4.000936  0
C  C208  1  0.69416762  0.01108499  0.40712786  1  0.98256  0  0.10978  0.128565  0  4.036493  0
C  C209  1  0.67892942  0.97478044  0.44648932  1  0.341028  0  -0.020895  -0.051704  0  4.022277  0
C  C210  1  0.74380445  0.90362026  0.43574398  1  0.378745  0  -0.02771  -0.070739  0  4.058698  0
C  C211  1  0.67968426  0.31168453  0.39968400  1  0.977508  0  0.144089  0.132074  0  3.937811  0
C  C212  1  0.64528665  0.39075283  0.43448532  1  0.408997  0  0.004465  -0.023917  0  3.962721  0
C  C213  1  0.69139701  0.46068099  0.41894926  1  0.280608  0  0.006051  -0.072194  0  3.953623  0
C  C214  1  0.75817834  0.89570270  0.34065231  1  1.540283  0  0.192268  0.559818  0  4.225447  0
C  C215  1  0.75066830  0.91992875  0.31343317  1  -0.097054  0  -0.02482  -0.034897  0  3.987137  0
C  C216  1  0.67662844  0.86907294  0.29890614  1  -0.05333  0  -0.096661  -0.110761  0  4.015401  0
C  C217  1  0.67174500  0.88614716  0.27338473  1  -0.015276  0  -0.092974  -0.10274  0  3.997563  0
C  C218  1  0.74065415  0.95468339  0.26190974  1  -0.070624  0  -0.018897  -0.026907  0  3.966708  0
C  C219  1  0.81366756  0.00694052  0.27642202  1  -0.034125  0  -0.0867  -0.096991  0  3.952857  0
C  C220  1  0.81862773  0.98931380  0.30197661  1  -0.012869  0  -0.091005  -0.099993  0  3.978292  0
C  C221  1  0.73846970  0.96880831  0.23416961  1  1.545195  0  0.196724  0.557879  0  4.230995  0
C  C222  1  0.90826396  0.59603606  0.09658758  1  0.978224  0  0.145299  0.130432  0  3.929588  0
C  C223  1  0.81382709  0.73442876  0.09056374  1  0.295291  0  0.001848  -0.078532  0  3.952208  0
C  C224  1  0.77860204  0.65691662  0.07539417  1  0.373884  0  0.007139  -0.016591  0  3.959853  0
C  C225  1  0.15902748  0.70840103  0.12593467  1  0.970333  0  0.150496  0.138398  0  3.899938  0
C  C226  1  0.15579673  0.56358089  0.14666778  1  0.318344  0  1e-06  -0.027886  0  3.969649  0
C  C227  1  0.05574890  0.59508001  0.14356419  1  0.332526  0  0.001846  -0.076069  0  3.959623  0
C  C228  1  0.03070597  0.94317732  0.12023173  1  0.954893  0  0.152083  0.144407  0  3.901178  0
C  C229  1  0.03626292  0.86012305  0.08449899  1  0.306156  0  0.009314  -0.062544  0  3.94575  0
C  C230  1  0.07805204  0.95645170  0.08150800  1  0.403772  0  0.000192  -0.035433  0  4.001049  0
C  C231  1  0.51105393  0.80586092  0.15713520  1  0.98047  0  0.109877  0.128664  0  4.03632  0
C  C232  1  0.47473936  0.82100813  0.19649868  1  0.344069  0  -0.020816  -0.051745  0  4.021999  0
C  C233  1  0.40358493  0.75614446  0.18574217  1  0.377961  0  -0.027577  -0.070664  0  4.058186  0
C  C234  1  0.81166693  0.82030063  0.14970582  1  0.972052  0  0.14404  0.132301  0  3.938364  0
C  C235  1  0.89073350  0.85472768  0.18450584  1  0.408588  0  0.004357  -0.023773  0  3.96253  0
C  C236  1  0.96067596  0.80864696  0.16896902  1  0.281446  0  0.005978  -0.072311  0  3.953245  0
C  C237  1  0.39570692  0.74181692  0.09064250  1  1.540333  0  0.192051  0.559612  0  4.225626  0
C  C238  1  0.41990682  0.74933065  0.06342336  1  -0.097209  0  -0.024601  -0.034601  0  3.986863  0
C  C239  1  0.36904276  0.82335919  0.04889522  1  -0.052294  0  -0.096663  -0.110582  0  4.014965  0
C  C240  1  0.38611550  0.82824099  0.02337120  1  -0.015301  0  -0.092722  -0.102863  0  3.997423  0
C  C241  1  0.45465848  0.75934072  0.01189732  1  -0.07043  0  -0.018987  -0.027025  0  3.967123  0
C  C242  1  0.50692131  0.68633121  0.02641113  1  -0.033588  0  -0.086357  -0.096492  0  3.952724  0
C  C243  1  0.48929939  0.68137317  0.05196530  1  -0.014179  0  -0.091309  -0.1004  0  3.97826  0
C  C244  1  0.46878833  0.76150503  0.98415686  1  1.545166  0  0.196556  0.558078  0  4.231002  0
C  C245  1  0.09173684  0.40396392  0.59658757  1  0.978239  0  0.145277  0.130381  0  3.929726  0
C  C246  1  0.18617296  0.26557044  0.59056351  1  0.295465  0  0.001819  -0.078603  0  3.952168  0
C  C247  1  0.22139728  0.34308255  0.57539339  1  0.373863  0  0.007142  -0.016591  0  3.959705  0
C  C248  1  0.84097402  0.29159900  0.62593435  1  0.970322  0  0.150482  0.138493  0  3.89992  0
C  C249  1  0.84420395  0.43641839  0.64666784  1  0.318351  0  2e-06  -0.02787  0  3.969651  0
C  C250  1  0.94425179  0.40492003  0.64356441  1  0.332533  0  0.001853  -0.075997  0  3.959646  0
C  C251  1  0.96929400  0.05682423  0.62023192  1  0.954839  0  0.152006  0.144275  0  3.901046  0
C  C252  1  0.96373946  0.13987768  0.58449975  1  0.306218  0  0.009298  -0.062444  0  3.945827  0
C  C253  1  0.92194957  0.04355134  0.58150839  1  0.403489  0  0.00018  -0.035585  0  4.001204  0
C  C254  1  0.48894672  0.19413992  0.65713530  1  0.980466  0  0.109895  0.128777  0  4.036278  0
C  C255  1  0.52526041  0.17899277  0.69649857  1  0.344023  0  -0.020852  -0.051793  0  4.022021  0
C  C256  1  0.59641565  0.24385642  0.68574225  1  0.377948  0  -0.027569  -0.070641  0  4.058089  0
C  C257  1  0.18833297  0.17970020  0.64970614  1  0.972122  0  0.143974  0.132255  0  3.938228  0
C  C258  1  0.10926631  0.14527474  0.68450635  1  0.408638  0  0.004428  -0.023721  0  3.962572  0
C  C259  1  0.03932466  0.19135390  0.66896974  1  0.281512  0  0.005986  -0.072219  0  3.953388  0
C  C260  1  0.60429236  0.25818151  0.59064240  1  1.540328  0  0.192054  0.559683  0  4.225621  0
C  C261  1  0.58009176  0.25066851  0.56342325  1  -0.097192  0  -0.024576  -0.034492  0  3.986726  0
C  C262  1  0.63095739  0.17663995  0.54889529  1  -0.052292  0  -0.096666  -0.110684  0  4.014974  0
C  C263  1  0.61388396  0.17175811  0.52337108  1  -0.015274  0  -0.092714  -0.102838  0  3.997394  0
C  C264  1  0.54534178  0.24065837  0.51189704  1  -0.070459  0  -0.018999  -0.027032  0  3.967226  0
C  C265  1  0.49307736  0.31366789  0.52641104  1  -0.033594  0  -0.086439  -0.096596  0  3.952824  0
C  C266  1  0.51069922  0.31862598  0.55196503  1  -0.014186  0  -0.091257  -0.100357  0  3.978276  0
C  C267  1  0.53121148  0.23849398  0.48415690  1  1.545186  0  0.196461  0.557946  0  4.231235  0
C  C268  1  0.40396509  0.09173392  0.40341265  1  0.978204  0  0.145319  0.130453  0  3.92985  0
C  C269  1  0.26557295  0.18617067  0.40943634  1  0.295651  0  0.001863  -0.078441  0  3.952214  0
C  C270  1  0.34308517  0.22139492  0.42460608  1  0.373499  0  0.007135  -0.016584  0  3.959973  0
C  C271  1  0.29159925  0.84097233  0.37406566  1  0.970344  0  0.150449  0.138402  0  3.90004  0
C  C272  1  0.43641887  0.84420381  0.35333198  1  0.318331  0  -3.6e-05  -0.027955  0  3.969728  0
C  C273  1  0.40491969  0.94424996  0.35643540  1  0.33254  0  0.001879  -0.07596  0  3.959645  0
C  C274  1  0.05682414  0.96929521  0.37976828  1  0.954835  0  0.152063  0.144317  0  3.901326  0
C  C275  1  0.13987846  0.96373680  0.41550082  1  0.306085  0  0.009312  -0.062495  0  3.945736  0
C  C276  1  0.04355044  0.92194774  0.41849219  1  0.40376  0  0.000168  -0.035525  0  4.001198  0
C  C277  1  0.19414082  0.48894556  0.34286454  1  0.980475  0  0.109892  0.128704  0  4.036269  0
C  C278  1  0.17899290  0.52526154  0.30350108  1  0.344172  0  -0.020819  -0.051749  0  4.021911  0
C  C279  1  0.24385510  0.59641589  0.31425777  1  0.377905  0  -0.027585  -0.070603  0  4.058043  0
C  C280  1  0.17970030  0.18833302  0.35029407  1  0.972057  0  0.143972  0.132186  0  3.938272  0
C  C281  1  0.14527482  0.10926649  0.31549369  1  0.408656  0  0.004406  -0.023697  0  3.962422  0
C  C282  1  0.19135557  0.03932339  0.33103067  1  0.281513  0  0.006008  -0.072312  0  3.953249  0
C  C283  1  0.25818324  0.60429100  0.40935744  1  1.541144  0  0.192016  0.559465  0  4.225715  0
C  C284  1  0.25066944  0.58009119  0.43657658  1  -0.096436  0  -0.024587  -0.034404  0  3.986702  0
C  C285  1  0.17664076  0.63095674  0.45110436  1  -0.05299  0  -0.096695  -0.110736  0  4.015001  0
C  C286  1  0.17175814  0.61388409  0.47662875  1  -0.015339  0  -0.092737  -0.102913  0  3.997434  0
C  C287  1  0.24065694  0.54534200  0.48810298  1  -0.070363  0  -0.018986  -0.026994  0  3.967092  0
C  C288  1  0.31366889  0.49307690  0.47358879  1  -0.033569  0  -0.086368  -0.096568  0  3.952728  0
C  C289  1  0.31862700  0.51069874  0.44803480  1  -0.014195  0  -0.091344  -0.100492  0  3.978372  0
C  C290  1  0.23849331  0.53121017  0.51584293  1  1.545103  0  0.196514  0.558007  0  4.231125  0
C  C291  1  0.59603492  0.90826420  0.90341241  1  0.978223  0  0.145336  0.130474  0  3.929716  0
C  C292  1  0.73442705  0.81382746  0.90943626  1  0.295291  0  0.001874  -0.078455  0  3.952196  0
C  C293  1  0.65691402  0.77860322  0.92460601  1  0.373912  0  0.007109  -0.016609  0  3.960023  0
C  C294  1  0.70840084  0.15902728  0.87406572  1  0.970361  0  0.150513  0.138527  0  3.89987  0
C  C295  1  0.56358128  0.15579577  0.85333243  1  0.318358  0  -0.000102  -0.028135  0  3.969777  0
C  C296  1  0.59507967  0.05574963  0.85643584  1  0.332511  0  0.001891  -0.075881  0  3.959698  0
C  C297  1  0.94317593  0.03070441  0.87976847  1  0.954837  0  0.152088  0.144479  0  3.901089  0
C  C298  1  0.86012229  0.03626210  0.91550065  1  0.306095  0  0.009286  -0.062529  0  3.945722  0
C  C299  1  0.95645031  0.07805040  0.91849182  1  0.403788  0  0.000154  -0.035604  0  4.001282  0
C  C300  1  0.80585858  0.51105555  0.84286461  1  0.980498  0  0.109867  0.128658  0  4.036319  0
C  C301  1  0.82100583  0.47474105  0.80350133  1  0.34423  0  -0.020823  -0.051668  0  4.021994  0
C  C302  1  0.75614207  0.40358594  0.81425802  1  0.377961  0  -0.027618  -0.070781  0  4.058224  0
C  C303  1  0.82030062  0.81166810  0.85029380  1  0.972118  0  0.14397  0.132204  0  3.938245  0
C  C304  1  0.85472620  0.89073535  0.81549397  1  0.40832  0  0.004437  -0.023655  0  3.962431  0
C  C305  1  0.80864694  0.96067693  0.83103115  1  0.281875  0  0.006001  -0.072285  0  3.953304  0
C  C306  1  0.74181907  0.39570867  0.90935769  1  1.540329  0  0.192045  0.5596  0  4.225652  0
C  C307  1  0.74933126  0.41990775  0.93657665  1  -0.097207  0  -0.024575  -0.034465  0  3.986746  0
C  C308  1  0.82335913  0.36904376  0.95110516  1  -0.052214  0  -0.09661  -0.110603  0  4.014973  0
C  C309  1  0.82824092  0.38611722  0.97662937  1  -0.015323  0  -0.092738  -0.102897  0  3.997549  0
C  C310  1  0.75934131  0.45465855  0.98810287  1  -0.070386  0  -0.019014  -0.026961  0  3.967035  0
C  C311  1  0.68633094  0.50692286  0.97358888  1  -0.033611  0  -0.086384  -0.096645  0  3.952817  0
C  C312  1  0.68137290  0.48930098  0.94803508  1  -0.014182  0  -0.091291  -0.100392  0  3.978319  0
C  C313  1  0.76150308  0.46879046  0.01584314  1  1.545108  0  0.196576  0.558149  0  4.230967  0
C  C314  1  0.59171828  0.09604730  0.15344506  1  0.977028  0  0.145652  0.13092  0  3.93021  0
C  C315  1  0.68615344  0.23443860  0.15947003  1  0.297939  0  0.001431  -0.079119  0  3.9526  0
C  C316  1  0.72137054  0.15692239  0.17463996  1  0.372876  0  0.007109  -0.016342  0  3.959876  0
C  C317  1  0.34097433  0.20838819  0.12406567  1  0.965527  0  0.150598  0.138329  0  3.89997  0
C  C318  1  0.34425844  0.06354875  0.10334092  1  0.318385  0  0.000112  -0.027978  0  3.969401  0
C  C319  1  0.44429296  0.09503026  0.10646164  1  0.334107  0  0.001685  -0.075617  0  3.959636  0
C  C320  1  0.46929579  0.44317133  0.12977198  1  0.955011  0  0.152151  0.144713  0  3.900748  0
C  C321  1  0.46368317  0.36016337  0.16550862  1  0.308007  0  0.009318  -0.062483  0  3.946215  0
C  C322  1  0.42191266  0.45648845  0.16849068  1  0.400926  0  0.000461  -0.03508  0  4.000963  0
C  C323  1  0.98891995  0.30583549  0.09287251  1  0.982517  0  0.109927  0.12879  0  4.036145  0
C  C324  1  0.02522317  0.32107051  0.05351061  1  0.340943  0  -0.020865  -0.051659  0  4.022229  0
C  C325  1  0.09638190  0.25619636  0.06425575  1  0.378679  0  -0.027807  -0.070905  0  4.05879  0
C  C326  1  0.68831610  0.32031421  0.10031641  1  0.977475  0  0.144063  0.132027  0  3.93785  0
C  C327  1  0.60924853  0.35471248  0.06551473  1  0.409006  0  0.004481  -0.023928  0  3.962733  0
C  C328  1  0.53932024  0.30860222  0.08105061  1  0.28054  0  0.006039  -0.072259  0  3.953752  0
C  C329  1  0.10429389  0.24181884  0.15934742  1  1.540555  0  0.192384  0.559862  0  4.225231  0
C  C330  1  0.08007083  0.24932892  0.18656693  1  -0.097028  0  -0.0248  -0.034753  0  3.987021  0
C  C331  1  0.13092900  0.32336869  0.20109322  1  -0.053786  0  -0.096651  -0.110794  0  4.015408  0
C  C332  1  0.11385469  0.32825527  0.22661482  1  -0.015216  0  -0.093069  -0.10298  0  3.997415  0
C  C333  1  0.04531680  0.25934854  0.23808999  1  -0.070377  0  -0.018898  -0.026793  0  3.966469  0
C  C334  1  0.99305800  0.18633521  0.22357797  1  -0.034333  0  -0.08671  -0.097049  0  3.952754  0
C  C335  1  0.01068489  0.18137192  0.19802349  1  -0.012875  0  -0.09102  -0.100032  0  3.978401  0
C  C336  1  0.03119181  0.26153305  0.26583013  1  1.545193  0  0.196792  0.557947  0  4.230852  0
C  C337  1  0.40828161  0.90395199  0.65344504  1  0.977196  0  0.145681  0.130995  0  3.930186  0
C  C338  1  0.31384797  0.76556070  0.65947039  1  0.297947  0  0.001434  -0.079105  0  3.952533  0
C  C339  1  0.27863083  0.84307693  0.67464014  1  0.37285  0  0.007098  -0.016358  0  3.959901  0
C  C340  1  0.65902641  0.79161028  0.62406560  1  0.965533  0  0.15056  0.138271  0  3.899929  0
C  C341  1  0.65574388  0.93645047  0.60334087  1  0.318386  0  0.000156  -0.027951  0  3.969423  0
C  C342  1  0.55570859  0.90496743  0.60646160  1  0.334157  0  0.001675  -0.075626  0  3.959602  0
C  C343  1  0.53070416  0.55682715  0.62977154  1  0.954916  0  0.152159  0.144783  0  3.900759  0
C  C344  1  0.53631822  0.63983286  0.66550856  1  0.308285  0  0.009321  -0.062394  0  3.946293  0
C  C345  1  0.57808719  0.54351086  0.66849023  1  0.400912  0  0.000365  -0.035287  0  4.001034  0
C  C346  1  0.01108317  0.69416525  0.59287235  1  0.982472  0  0.109888  0.128788  0  4.036244  0
C  C347  1  0.97477851  0.67892941  0.55351067  1  0.340867  0  -0.020917  -0.051688  0  4.022335  0
C  C348  1  0.90361976  0.74380434  0.56425620  1  0.378908  0  -0.027817  -0.070939  0  4.058848  0
C  C349  1  0.31168392  0.67968346  0.60031657  1  0.977485  0  0.144059  0.131965  0  3.937752  0
C  C350  1  0.39075159  0.64528668  0.56551506  1  0.409275  0  0.004449  -0.023961  0  3.962759  0
C  C351  1  0.46067829  0.69139543  0.58105074  1  0.280552  0  0.006097  -0.072143  0  3.95371  0
C  C352  1  0.89570136  0.75817892  0.65934749  1  1.540318  0  0.192277  0.559717  0  4.225474  0
C  C353  1  0.91992743  0.75067042  0.68656682  1  -0.09707  0  -0.024862  -0.03488  0  3.987189  0
C  C354  1  0.86907231  0.67662913  0.70109366  1  -0.053738  0  -0.096666  -0.110779  0  4.015436  0
C  C355  1  0.88614655  0.67174413  0.72661508  1  -0.01526  0  -0.092963  -0.102752  0  3.99747  0
C  C356  1  0.95468287  0.74065318  0.73808987  1  -0.070636  0  -0.018913  -0.026864  0  3.966663  0
C  C357  1  0.00693940  0.81366726  0.72357800  1  -0.034115  0  -0.086678  -0.097018  0  3.952917  0
C  C358  1  0.98931258  0.81862820  0.69802338  1  -0.013088  0  -0.091046  -0.100038  0  3.978426  0
C  C359  1  0.96880856  0.73846871  0.76583001  1  1.545196  0  0.19677  0.55789  0  4.230915  0
N  N360  1  0.19511414  0.60392720  0.85414532  1  -1.4609  0  -0.227967  -0.206732  0  3.715793  0
N  N361  1  0.07070461  0.66124686  0.82936957  1  -1.243694  0  -0.357959  -0.277579  0  3.608876  0
N  N362  1  0.18669114  0.44164388  0.88014510  1  -1.494219  0  -0.233226  -0.217673  0  3.747452  0
N  N363  1  0.13589256  0.28042133  0.88568835  1  -1.241443  0  -0.361673  -0.275746  0  3.592738  0
N  N364  1  0.35232367  0.49408608  0.85918061  1  -1.459152  0  -0.231516  -0.222132  0  3.739126  0
N  N365  1  0.50754119  0.42581790  0.85405371  1  -1.240176  0  -0.356512  -0.271026  0  3.574172  0
N  N366  1  0.35219800  0.95717851  0.92818503  1  -1.280767  0  -0.382249  -0.309044  0  3.626257  0
N  N367  1  0.24701569  0.07279427  0.91077699  1  -1.26426  0  -0.383159  -0.301674  0  3.666055  0
N  N368  1  0.28687699  0.58994372  0.89676241  1  -1.445346  0  -0.230064  -0.21287  0  3.719908  0
N  N369  1  0.36134412  0.70257703  0.92219522  1  -1.259496  0  -0.354578  -0.273394  0  3.591505  0
N  N370  1  0.80488600  0.39607315  0.35414497  1  -1.460909  0  -0.22795  -0.206626  0  3.71578  0
N  N371  1  0.92929482  0.33875192  0.32936957  1  -1.243698  0  -0.357938  -0.277524  0  3.608857  0
N  N372  1  0.81330893  0.55835728  0.38014494  1  -1.494176  0  -0.233205  -0.217577  0  3.747383  0
N  N373  1  0.86410442  0.71957753  0.38568820  1  -1.241708  0  -0.3617  -0.275803  0  3.59281  0
N  N374  1  0.64767800  0.50591351  0.35918047  1  -1.459184  0  -0.231467  -0.222093  0  3.739156  0
N  N375  1  0.49245741  0.57418092  0.35405342  1  -1.24013  0  -0.356538  -0.271153  0  3.574261  0
N  N376  1  0.64780503  0.04282658  0.42818560  1  -1.281017  0  -0.382125  -0.308814  0  3.626298  0
N  N377  1  0.75298585  0.92721002  0.41077762  1  -1.264185  0  -0.383134  -0.301513  0  3.666132  0
N  N378  1  0.71312304  0.41005746  0.39676207  1  -1.445656  0  -0.230063  -0.212916  0  3.719911  0
N  N379  1  0.63865508  0.29742497  0.42219544  1  -1.259517  0  -0.354607  -0.27342  0  3.591615  0
N  N380  1  0.89605969  0.69510392  0.10417572  1  -1.461376  0  -0.227906  -0.206301  0  3.714999  0
N  N381  1  0.83872386  0.57070184  0.07940275  1  -1.241591  0  -0.357645  -0.27717  0  3.608164  0
N  N382  1  0.05836824  0.68672256  0.13016495  1  -1.49356  0  -0.233179  -0.21781  0  3.747313  0
N  N383  1  0.21960215  0.63590910  0.13568065  1  -1.242996  0  -0.361753  -0.276022  0  3.593015  0
N  N384  1  0.00589097  0.85232126  0.10919323  1  -1.459376  0  -0.231408  -0.221737  0  3.738389  0
N  N385  1  0.07417622  0.00751828  0.10405030  1  -1.23897  0  -0.356512  -0.271006  0  3.574287  0
N  N386  1  0.54278674  0.85218008  0.17819908  1  -1.279636  0  -0.382345  -0.308909  0  3.626369  0
N  N387  1  0.42718485  0.74702686  0.16077525  1  -1.264317  0  -0.383211  -0.301798  0  3.666532  0
N  N388  1  0.91005410  0.78689898  0.14678109  1  -1.445371  0  -0.230221  -0.213493  0  3.720709  0
N  N389  1  0.79739700  0.86132599  0.17221745  1  -1.254738  0  -0.354529  -0.273701  0  3.591422  0
N  N390  1  0.10394110  0.30489684  0.60417588  1  -1.461531  0  -0.22789  -0.206255  0  3.715095  0
N  N391  1  0.16127468  0.42929734  0.57940235  1  -1.241574  0  -0.357629  -0.277136  0  3.608202  0
N  N392  1  0.94163247  0.31327824  0.63016517  1  -1.493573  0  -0.233204  -0.217993  0  3.747552  0
N  N393  1  0.78039855  0.36409094  0.63568053  1  -1.242985  0  -0.361772  -0.276088  0  3.592987  0
N  N394  1  0.99411057  0.14768104  0.60919324  1  -1.459454  0  -0.231314  -0.221628  0  3.738273  0
N  N395  1  0.92582379  0.99248402  0.60405039  1  -1.238917  0  -0.356473  -0.270876  0  3.574434  0
N  N396  1  0.45721463  0.14782079  0.67819917  1  -1.279626  0  -0.382347  -0.30894  0  3.626365  0
N  N397  1  0.57281502  0.25297321  0.66077515  1  -1.264349  0  -0.383223  -0.301857  0  3.666528  0
N  N398  1  0.08994735  0.21310184  0.64678161  1  -1.445423  0  -0.230141  -0.213441  0  3.720721  0
N  N399  1  0.20260284  0.13867410  0.67221833  1  -1.254748  0  -0.354544  -0.27379  0  3.59134  0
N  N400  1  0.30489633  0.10393816  0.39582434  1  -1.461394  0  -0.227965  -0.206527  0  3.715352  0
N  N401  1  0.42929854  0.16127242  0.42059767  1  -1.24159  0  -0.35761  -0.277095  0  3.608388  0
N  N402  1  0.31327776  0.94163065  0.36983483  1  -1.493575  0  -0.233209  -0.218  0  3.747437  0
N  N403  1  0.36409053  0.78039696  0.36431948  1  -1.243011  0  -0.361724  -0.275984  0  3.593024  0
N  N404  1  0.14767800  0.99410943  0.39080677  1  -1.459404  0  -0.231407  -0.221668  0  3.738417  0
N  N405  1  0.99248297  0.92582351  0.39594959  1  -1.238935  0  -0.356446  -0.270889  0  3.574352  0
N  N406  1  0.14782163  0.45721353  0.32180067  1  -1.27957  0  -0.38237  -0.308955  0  3.626349  0
N  N407  1  0.25297343  0.57281451  0.33922506  1  -1.264344  0  -0.383224  -0.301863  0  3.666538  0
N  N408  1  0.21310277  0.08994600  0.35321861  1  -1.445379  0  -0.23019  -0.213378  0  3.720637  0
N  N409  1  0.13867570  0.20260211  0.32778245  1  -1.254706  0  -0.354567  -0.27377  0  3.59137  0
N  N410  1  0.69510216  0.89605917  0.89582390  1  -1.461375  0  -0.227926  -0.206409  0  3.715149  0
N  N411  1  0.57070066  0.83872495  0.92059744  1  -1.241635  0  -0.357637  -0.277195  0  3.608417  0
N  N412  1  0.68672234  0.05836742  0.86983507  1  -1.493561  0  -0.233183  -0.217953  0  3.747497  0
N  N413  1  0.63590881  0.21960264  0.86431955  1  -1.243015  0  -0.36177  -0.276017  0  3.592925  0
N  N414  1  0.85231974  0.00589021  0.89080698  1  -1.459429  0  -0.231372  -0.221682  0  3.738279  0
N  N415  1  0.00751706  0.07417459  0.89595030  1  -1.238943  0  -0.356497  -0.271016  0  3.57446  0
N  N416  1  0.85217705  0.54278678  0.82180074  1  -1.279634  0  -0.382333  -0.30892  0  3.62638  0
N  N417  1  0.74702598  0.42718582  0.83922457  1  -1.264357  0  -0.383234  -0.301868  0  3.666584  0
N  N418  1  0.78690046  0.91005435  0.85321797  1  -1.445594  0  -0.230175  -0.213377  0  3.720712  0
N  N419  1  0.86132605  0.79739898  0.82778180  1  -1.254727  0  -0.354582  -0.27384  0  3.591442  0
N  N420  1  0.60392881  0.19511507  0.14585507  1  -1.460906  0  -0.227962  -0.206549  0  3.71571  0
N  N421  1  0.66124854  0.07070724  0.17063082  1  -1.243194  0  -0.357911  -0.277502  0  3.608787  0
N  N422  1  0.44164450  0.18668978  0.11985493  1  -1.494202  0  -0.233201  -0.217602  0  3.747455  0
N  N423  1  0.28042248  0.13589281  0.11431205  1  -1.241661  0  -0.361685  -0.275827  0  3.592774  0
N  N424  1  0.49408522  0.35232129  0.14081941  1  -1.459199  0  -0.231532  -0.222074  0  3.739108  0
N  N425  1  0.42581848  0.50754166  0.14594667  1  -1.240151  0  -0.356506  -0.271092  0  3.574236  0
N  N426  1  0.95717605  0.35219797  0.07181497  1  -1.280783  0  -0.382252  -0.309007  0  3.626151  0
N  N427  1  0.07279359  0.24701657  0.08922267  1  -1.264211  0  -0.383101  -0.301518  0  3.665943  0
N  N428  1  0.58994379  0.28687703  0.10323761  1  -1.44557  0  -0.230056  -0.212871  0  3.719916  0
N  N429  1  0.70257728  0.36134483  0.07780479  1  -1.259499  0  -0.35458  -0.273337  0  3.591495  0
N  N430  1  0.39607341  0.80488344  0.64585504  1  -1.461033  0  -0.227967  -0.206582  0  3.715786  0
N  N431  1  0.33875208  0.92929284  0.67063081  1  -1.243307  0  -0.357912  -0.277527  0  3.608785  0
N  N432  1  0.55835625  0.81330715  0.61985506  1  -1.494212  0  -0.233209  -0.217595  0  3.747417  0
N  N433  1  0.71957904  0.86410565  0.61431198  1  -1.241696  0  -0.361709  -0.27584  0  3.59285  0
N  N434  1  0.50591470  0.64767722  0.64081917  1  -1.459159  0  -0.231474  -0.222076  0  3.739155  0
N  N435  1  0.57418220  0.49245686  0.64594622  1  -1.240167  0  -0.356475  -0.270994  0  3.574109  0
N  N436  1  0.04282405  0.64780198  0.57181461  1  -1.280989  0  -0.382166  -0.30882  0  3.6263  0
N  N437  1  0.92720954  0.75298494  0.58922275  1  -1.264204  0  -0.383072  -0.301499  0  3.666004  0
N  N438  1  0.41005545  0.71312218  0.60323794  1  -1.445602  0  -0.230106  -0.212965  0  3.719868  0
N  N439  1  0.29742358  0.63865435  0.57780495  1  -1.259517  0  -0.354612  -0.273418  0  3.591534  0
O  O440  1  0.33652423  0.07851296  0.72280437  1  -1.167029  0  -0.346168  -0.553681  0  2.331804  0
O  O441  1  0.19396151  0.97952398  0.72317668  1  -1.176305  0  -0.322479  -0.552906  0  2.133696  0
O  O442  1  0.16190717  0.06673492  0.85223966  1  -1.180146  0  -0.351118  -0.563275  0  2.293354  0
O  O443  1  0.30877225  0.15949000  0.85096315  1  -1.182847  0  -0.332834  -0.572232  0  2.148697  0
O  O444  1  0.66347933  0.92148797  0.22280426  1  -1.166949  0  -0.346145  -0.553665  0  2.331911  0
O  O445  1  0.80604051  0.02047696  0.22317685  1  -1.176379  0  -0.322477  -0.552908  0  2.133616  0
O  O446  1  0.83808682  0.93326389  0.35224046  1  -1.180068  0  -0.351076  -0.563277  0  2.293518  0
O  O447  1  0.69122250  0.84050496  0.35096210  1  -1.182645  0  -0.332823  -0.572267  0  2.14862  0
O  O448  1  0.42149979  0.83649792  0.97278649  1  -1.167143  0  -0.345948  -0.55352  0  2.331934  0
O  O449  1  0.52044422  0.69390731  0.97316880  1  -1.176209  0  -0.322353  -0.552959  0  2.13325  0
O  O450  1  0.43331568  0.66193525  0.10223195  1  -1.179477  0  -0.350961  -0.563254  0  2.293132  0
O  O451  1  0.34048321  0.80874529  0.10095490  1  -1.182391  0  -0.332739  -0.572213  0  2.148815  0
O  O452  1  0.57850313  0.16350107  0.47278633  1  -1.167208  0  -0.345925  -0.553477  0  2.332004  0
O  O453  1  0.47955331  0.30608936  0.47316848  1  -1.176176  0  -0.322276  -0.552866  0  2.133261  0
O  O454  1  0.56668280  0.33806397  0.60223186  1  -1.179413  0  -0.35094  -0.563221  0  2.293113  0
O  O455  1  0.65951604  0.19125469  0.60095478  1  -1.182388  0  -0.332772  -0.572303  0  2.148896  0
O  O456  1  0.16349951  0.57850251  0.52721332  1  -1.167207  0  -0.345887  -0.553434  0  2.331981  0
O  O457  1  0.30608879  0.47955129  0.52683117  1  -1.176191  0  -0.322324  -0.552921  0  2.133247  0
O  O458  1  0.33806582  0.56668227  0.39776834  1  -1.179472  0  -0.350937  -0.563147  0  2.293165  0
O  O459  1  0.19125556  0.65951384  0.39904505  1  -1.183163  0  -0.332718  -0.572183  0  2.148872  0
O  O460  1  0.83649608  0.42150276  0.02721370  1  -1.167109  0  -0.345959  -0.553593  0  2.331969  0
O  O461  1  0.69390758  0.52044704  0.02683121  1  -1.176297  0  -0.322386  -0.553003  0  2.133266  0
O  O462  1  0.66193729  0.43331815  0.89776806  1  -1.179425  0  -0.350953  -0.563206  0  2.293096  0
O  O463  1  0.80874755  0.34048581  0.89904529  1  -1.182389  0  -0.332752  -0.572252  0  2.148901  0
O  O464  1  0.07851296  0.33652410  0.27719548  1  -1.167023  0  -0.346151  -0.553641  0  2.331757  0
O  O465  1  0.97952452  0.19396005  0.27682295  1  -1.176295  0  -0.322455  -0.552895  0  2.133643  0
O  O466  1  0.06673189  0.16190891  0.14775982  1  -1.180136  0  -0.351153  -0.563374  0  2.293375  0
O  O467  1  0.15949019  0.30877378  0.14903688  1  -1.182866  0  -0.33281  -0.572196  0  2.148611  0
O  O468  1  0.92148661  0.66347691  0.77719554  1  -1.166991  0  -0.346168  -0.553641  0  2.331771  0
O  O469  1  0.02047505  0.80604019  0.77682298  1  -1.176301  0  -0.322457  -0.552883  0  2.133665  0
O  O470  1  0.93326262  0.83808884  0.64775971  1  -1.180127  0  -0.351099  -0.563267  0  2.293507  0
O  O471  1  0.84050509  0.69122243  0.64903734  1  -1.182696  0  -0.332782  -0.572176  0  2.148569  0
