# generated using pymatgen
data_CuBH48C45N3Cl2
_symmetry_space_group_name_H-M   'P 1'
_cell_length_a   17.78557112
_cell_length_b   17.78563781
_cell_length_c   18.71606012
_cell_angle_alpha   61.62893523
_cell_angle_beta   61.62913716
_cell_angle_gamma   59.99792393
_symmetry_Int_Tables_number   1
_chemical_formula_structural   CuBH48C45N3Cl2
_chemical_formula_sum   'Cu4 B4 H192 C180 N12 Cl8'
_cell_volume   4286.42627901
_cell_formula_units_Z   4
loop_
 _symmetry_equiv_pos_site_id
 _symmetry_equiv_pos_as_xyz
  1  'x, y, z'
loop_
 _atom_site_type_symbol
 _atom_site_label
 _atom_site_symmetry_multiplicity
 _atom_site_fract_x
 _atom_site_fract_y
 _atom_site_fract_z
 _atom_site_occupancy
 _atom_site_pbe_bader_charge
 _atom_site_pbe_bader_spin_density
 _atom_site_pbe_cm5_charge
 _atom_site_pbe_ddec_charge
 _atom_site_pbe_ddec_spin_density
 _atom_site_pbe_ddec_sum_bond_order
 _atom_site_pbe_magmom
Cu  Cu0  1  0.88795757  0.11204200  0.50000002  1  0.933776  0.497881  0.629346  0.600489  0.669876  2.543206  0.498
Cu  Cu1  1  0.49998814  0.88801483  0.49998722  1  0.929313  0.497846  0.629182  0.600276  0.669892  2.542663  0.498
Cu  Cu2  1  0.11198016  0.50001483  0.50001761  1  0.929172  0.497844  0.629227  0.600342  0.669894  2.542668  0.498
Cu  Cu3  1  0.00000853  0.99999421  0.99999907  1  0.947832  0.496042  0.629654  0.592624  0.665697  2.553326  0.496
B  B4  1  0.60299460  0.39700855  0.99999761  1  1.920704  -2.2e-05  -0.092933  0.413262  -5.4e-05  3.04484  0.0
B  B5  1  0.00000589  0.60297248  0.00000508  1  1.902549  -2.3e-05  -0.092986  0.413479  -5.4e-05  3.044617  0.0
B  B6  1  0.39702917  0.99999095  0.99999826  1  1.902554  -2.3e-05  -0.093003  0.413426  -5.4e-05  3.044587  0.0
B  B7  1  0.50000508  0.49999431  0.50000295  1  1.878116  -4.6e-05  -0.088077  0.408042  -9.7e-05  3.031183  0.0
H  H8  1  0.95350584  0.06559499  0.33734010  1  0.110479  0.001896  0.119  0.088242  0.000893  1.000206  0.001
H  H9  1  0.64356316  0.95351830  0.33729856  1  0.104041  0.001894  0.118922  0.088209  0.00089  1.000212  0.001
H  H10  1  0.06557143  0.64357654  0.33732780  1  0.10459  0.001901  0.118942  0.088185  0.000893  1.000128  0.001
H  H11  1  0.04647261  0.35644357  0.66270820  1  0.104203  0.001894  0.118928  0.088227  0.00089  1.000226  0.001
H  H12  1  0.35641771  0.93442585  0.66267413  1  0.104724  0.001901  0.118964  0.088195  0.000893  1.000167  0.001
H  H13  1  0.93440628  0.04648790  0.66266258  1  0.11034  0.001894  0.11901  0.088272  0.000892  1.000241  0.001
H  H14  1  0.88959426  0.12801149  0.21862926  1  0.100957  0.000872  0.107064  0.117334  0.000453  1.015889  0.0
H  H15  1  0.76374644  0.88960489  0.21858689  1  0.10308  0.000878  0.107021  0.117348  0.000452  1.015884  0.0
H  H16  1  0.12805617  0.76373485  0.21857973  1  0.107394  0.000876  0.106997  0.117242  0.000453  1.015844  0.0
H  H17  1  0.11039046  0.23625687  0.78141823  1  0.103235  0.000878  0.107  0.117292  0.000452  1.015769  0.0
H  H18  1  0.23626128  0.87193866  0.78141965  1  0.107533  0.000876  0.107019  0.117248  0.000453  1.01593  0.0
H  H19  1  0.87198736  0.11039423  0.78137870  1  0.101228  0.000872  0.107092  0.117413  0.000453  1.015681  0.0
H  H20  1  0.64480378  0.29627915  0.36264075  1  0.09532  0.001084  0.108017  0.118952  0.000574  1.035957  0.001
H  H21  1  0.69636168  0.64476121  0.36268309  1  0.086741  0.001085  0.107851  0.118865  0.000574  1.035886  0.001
H  H22  1  0.29623508  0.69630862  0.36263874  1  0.081017  0.00109  0.108003  0.118978  0.000574  1.035888  0.001
H  H23  1  0.35523745  0.30363921  0.63731510  1  0.086807  0.001085  0.107824  0.118817  0.000574  1.036006  0.001
H  H24  1  0.30369258  0.70375993  0.63735937  1  0.08093  0.00109  0.107956  0.118877  0.000574  1.035926  0.001
H  H25  1  0.70372525  0.35518902  0.63736452  1  0.095285  0.001084  0.108042  0.119016  0.000574  1.035914  0.001
H  H26  1  0.71310552  0.21671679  0.48028909  1  0.087918  0.00175  0.113603  0.083043  0.000673  1.018551  0.001
H  H27  1  0.58989996  0.71311747  0.48028490  1  0.095144  0.001753  0.113575  0.083031  0.000673  1.018527  0.001
H  H28  1  0.21671175  0.58987931  0.48026435  1  0.12571  0.001737  0.113618  0.08314  0.000672  1.018148  0.001
H  H29  1  0.28687503  0.41010526  0.51971905  1  0.095031  0.001754  0.113563  0.083002  0.000673  1.018511  0.001
H  H30  1  0.41012230  0.78328447  0.51973683  1  0.125698  0.001736  0.113632  0.083123  0.000672  1.018191  0.001
H  H31  1  0.78328662  0.28689288  0.51971232  1  0.087701  0.001751  0.113544  0.082938  0.000674  1.018439  0.001
H  H32  1  0.78223380  0.36783469  0.22105512  1  0.044997  -2e-05  0.09048  0.128642  -3.8e-05  1.025106  0.0
H  H33  1  0.62891404  0.78220697  0.22107400  1  0.014679  -2.1e-05  0.090452  0.128606  -3.8e-05  1.025085  0.0
H  H34  1  0.36781567  0.62885898  0.22094338  1  0.038999  -2.1e-05  0.090427  0.128426  -3.8e-05  1.025374  0.0
H  H35  1  0.21779511  0.37108129  0.77893109  1  0.014636  -2.1e-05  0.090473  0.128677  -3.8e-05  1.025093  0.0
H  H36  1  0.37113613  0.63218145  0.77906324  1  0.038846  -2.1e-05  0.09044  0.12847  -3.8e-05  1.025328  0.0
H  H37  1  0.63216508  0.21775822  0.77895111  1  0.044869  -2e-05  0.090486  0.128606  -3.8e-05  1.02512  0.0
H  H38  1  0.68621877  0.46688405  0.20116835  1  0.005292  2e-06  0.088  0.118262  3e-06  1.019182  0.0
H  H39  1  0.64565735  0.68624152  0.20117992  1  0.015864  2e-06  0.087924  0.1182  3e-06  1.019272  0.0
H  H40  1  0.46689544  0.64566335  0.20105595  1  0.016457  2e-06  0.088135  0.118437  3e-06  1.019252  0.0
H  H41  1  0.31376188  0.35433231  0.79882470  1  0.01594  2e-06  0.087958  0.118233  3e-06  1.019293  0.0
H  H42  1  0.35433279  0.53310132  0.79895056  1  0.016317  2e-06  0.088127  0.11843  3e-06  1.019283  0.0
H  H43  1  0.53311651  0.31377445  0.79883494  1  0.005606  2e-06  0.087984  0.118249  3e-06  1.019164  0.0
H  H44  1  0.78718770  0.44322593  0.11577514  1  0.04733  7e-06  0.092974  0.128864  3e-06  1.006957  0.0
H  H45  1  0.65388987  0.78717277  0.11577782  1  0.040222  7e-06  0.092831  0.128867  3e-06  1.007148  0.0
H  H46  1  0.44315862  0.65388097  0.11565569  1  0.043874  7e-06  0.092874  0.12877  3e-06  1.007206  0.0
H  H47  1  0.21283156  0.34610202  0.88422624  1  0.040232  7e-06  0.0928  0.128833  3e-06  1.007197  0.0
H  H48  1  0.34611560  0.55683946  0.88435050  1  0.043789  7e-06  0.09286  0.128745  3e-06  1.007268  0.0
H  H49  1  0.55677686  0.21280812  0.88423055  1  0.04721  7e-06  0.092937  0.128827  3e-06  1.00695  0.0
H  H50  1  0.63356001  0.53990469  0.08843273  1  0.020718  4e-06  0.088281  0.121376  2e-06  1.015088  0.0
H  H51  1  0.73801415  0.63362382  0.08837674  1  0.027348  4e-06  0.088391  0.12156  2e-06  1.014787  0.0
H  H52  1  0.53989499  0.73803147  0.08847350  1  0.026836  4e-06  0.088381  0.121492  2e-06  1.01463  0.0
H  H53  1  0.36637690  0.26197914  0.91163099  1  0.027532  4e-06  0.088359  0.121486  2e-06  1.014787  0.0
H  H54  1  0.26196242  0.46010550  0.91153017  1  0.026771  4e-06  0.088353  0.121438  2e-06  1.014723  0.0
H  H55  1  0.46009514  0.36643807  0.91156522  1  0.02069  4e-06  0.088282  0.1214  2e-06  1.015065  0.0
H  H56  1  0.61064595  0.53185706  0.01053295  1  0.043793  -3e-06  0.092243  0.126966  -1.1e-05  1.061548  0.0
H  H57  1  0.84692095  0.61057244  0.01058051  1  0.087656  -3e-06  0.09217  0.126953  -1.1e-05  1.061788  0.0
H  H58  1  0.53191303  0.84689515  0.01058008  1  0.044747  -3e-06  0.092252  0.127015  -1.1e-05  1.061294  0.0
H  H59  1  0.38942478  0.15307053  0.98942722  1  0.0879  -3e-06  0.09214  0.126885  -1.1e-05  1.061817  0.0
H  H60  1  0.15309836  0.46808649  0.98942338  1  0.044589  -3e-06  0.092201  0.12695  -1.1e-05  1.061303  0.0
H  H61  1  0.46814417  0.38936030  0.98945962  1  0.043836  -3e-06  0.092247  0.127012  -1.1e-05  1.061493  0.0
H  H62  1  0.72458980  0.50617989  0.00081893  1  0.044132  9e-06  0.092344  0.127156  -4e-06  0.992726  0.0
H  H63  1  0.76851947  0.72455795  0.00080444  1  0.042441  9e-06  0.092368  0.12707  -4e-06  0.992842  0.0
H  H64  1  0.50621873  0.76838605  0.00081981  1  0.042528  9e-06  0.092239  0.126883  -4e-06  0.992734  0.0
H  H65  1  0.27543965  0.23147407  0.99920177  1  0.042709  9e-06  0.092355  0.127046  -4e-06  0.99291  0.0
H  H66  1  0.23160919  0.49377726  0.99918565  1  0.042296  9e-06  0.092274  0.126938  -4e-06  0.992726  0.0
H  H67  1  0.49382360  0.27541262  0.99918054  1  0.044207  9e-06  0.092322  0.127132  -4e-06  0.992736  0.0
H  H68  1  0.68599066  0.13268819  0.10714616  1  0.034657  -0.0  0.08857  0.125733  -1.8e-05  1.019815  0.0
H  H69  1  0.07425598  0.68590324  0.10712435  1  0.02848  -0.0  0.088541  0.125689  -1.8e-05  1.020067  0.0
H  H70  1  0.13269212  0.07423218  0.10713315  1  0.021952  -0.0  0.088468  0.125664  -1.8e-05  1.020082  0.0
H  H71  1  0.31410528  0.92573848  0.89287452  1  0.028387  -0.0  0.088536  0.125686  -1.8e-05  1.020072  0.0
H  H72  1  0.92576359  0.86730568  0.89286826  1  0.021944  -0.0  0.08848  0.125639  -1.8e-05  1.020114  0.0
H  H73  1  0.86731098  0.31400870  0.89285257  1  0.034706  -0.0  0.088567  0.125738  -1.8e-05  1.019827  0.0
H  H74  1  0.61653340  0.23232035  0.04850416  1  0.019664  0.0  0.091127  0.125288  0.0  1.063748  0.0
H  H75  1  0.10269221  0.61640178  0.04854338  1  0.054131  0.0  0.091116  0.125299  0.0  1.063609  0.0
H  H76  1  0.23234001  0.10265805  0.04846764  1  0.048269  0.0  0.091065  0.125092  0.0  1.063919  0.0
H  H77  1  0.38360894  0.89730561  0.95145162  1  0.053928  0.0  0.091116  0.125322  0.0  1.063521  0.0
H  H78  1  0.89733820  0.76766025  0.95152995  1  0.048351  0.0  0.091035  0.12507  0.0  1.063919  0.0
H  H79  1  0.76768095  0.38346985  0.95149203  1  0.019662  0.0  0.09111  0.125245  0.0  1.063744  0.0
H  H80  1  0.57093776  0.18642790  0.16056657  1  0.036845  0.0  0.094549  0.129326  -2.1e-05  0.996225  0.0
H  H81  1  0.08199772  0.57089798  0.16062164  1  0.035174  0.0  0.094493  0.129178  -2.1e-05  0.996013  0.0
H  H82  1  0.18650451  0.08204715  0.16053066  1  0.042964  0.0  0.094667  0.129417  -2.1e-05  0.996101  0.0
H  H83  1  0.42910741  0.91800727  0.83937420  1  0.035125  0.0  0.094437  0.129147  -2.1e-05  0.996018  0.0
H  H84  1  0.91795142  0.81349697  0.83946796  1  0.043188  0.0  0.094663  0.129379  -2.1e-05  0.996166  0.0
H  H85  1  0.81357820  0.42906319  0.83942956  1  0.036734  0.0  0.094536  0.129301  -2.1e-05  0.996179  0.0
H  H86  1  0.71252167  0.10003666  0.30688980  1  0.037123  1.7e-05  0.087  0.123501  2.5e-05  1.027724  0.0
H  H87  1  0.88055084  0.71252046  0.30684256  1  0.031201  1.6e-05  0.086931  0.123486  2.5e-05  1.027918  0.0
H  H88  1  0.10008220  0.88054099  0.30689760  1  0.051668  1.6e-05  0.087061  0.123474  2.5e-05  1.027723  0.0
H  H89  1  0.28747735  0.11944893  0.69315785  1  0.031222  1.6e-05  0.086929  0.123466  2.5e-05  1.027909  0.0
H  H90  1  0.11945992  0.89991260  0.69310466  1  0.051772  1.6e-05  0.087043  0.123457  2.5e-05  1.027849  0.0
H  H91  1  0.89996655  0.28747590  0.69310967  1  0.036786  1.7e-05  0.086983  0.123474  2.5e-05  1.027747  0.0
H  H92  1  0.76092354  0.06815798  0.21374285  1  0.07349  0.000198  0.083724  0.12801  0.000113  1.026688  0.0
H  H93  1  0.95721273  0.76091035  0.21371530  1  0.047242  0.000201  0.083721  0.127921  0.000113  1.026628  0.0
H  H94  1  0.06812395  0.95715031  0.21377544  1  0.044849  0.0002  0.083627  0.127845  0.000114  1.026364  0.0
H  H95  1  0.23909212  0.04278205  0.78628211  1  0.047305  0.000201  0.08371  0.127872  0.000113  1.026675  0.0
H  H96  1  0.04285223  0.93187245  0.78622406  1  0.044955  0.0002  0.08363  0.127851  0.000113  1.026437  0.0
H  H97  1  0.93184377  0.23907627  0.78625698  1  0.073417  0.000198  0.083714  0.128003  0.000113  1.026705  0.0
H  H98  1  0.64060845  0.10634548  0.26206305  1  0.034244  3.5e-05  0.091633  0.128006  1.1e-05  1.006042  0.0
H  H99  1  0.99098216  0.64058618  0.26202221  1  0.04535  3.4e-05  0.091626  0.127937  1.1e-05  1.006035  0.0
H  H100  1  0.10635490  0.99099923  0.26202683  1  0.027217  3.5e-05  0.091638  0.127991  1.1e-05  1.005875  0.0
H  H101  1  0.35941595  0.00901713  0.73797583  1  0.045293  3.4e-05  0.091616  0.127914  1.1e-05  1.005999  0.0
H  H102  1  0.00900149  0.89364338  0.73797318  1  0.027017  3.5e-05  0.091648  0.128009  1.1e-05  1.005861  0.0
H  H103  1  0.89365946  0.35938898  0.73793393  1  0.03422  3.5e-05  0.09161  0.127993  1.1e-05  1.006098  0.0
H  H104  1  0.38680384  0.41976878  0.20883141  1  0.062063  0.000669  0.092979  0.13914  0.000596  1.010489  0.0
H  H105  1  0.98467653  0.38672187  0.20880982  1  0.063609  0.000671  0.092914  0.139104  0.000598  1.010516  0.0
H  H106  1  0.41973093  0.98465024  0.20879911  1  0.02344  0.000675  0.093097  0.139352  0.000595  1.01066  0.0
H  H107  1  0.61327893  0.01532520  0.79119471  1  0.06715  0.000671  0.092913  0.139075  0.000598  1.010552  0.0
H  H108  1  0.01534428  0.58026819  0.79120511  1  0.023557  0.000675  0.093093  0.139313  0.000596  1.010693  0.0
H  H109  1  0.58022671  0.61320281  0.79117024  1  0.062426  0.000669  0.092978  0.139109  0.000596  1.010464  0.0
H  H110  1  0.49593601  0.35462408  0.15481439  1  0.044603  5e-06  0.090884  0.128359  -1.6e-05  1.057804  0.0
H  H111  1  0.99465494  0.49587683  0.15484388  1  0.027377  5e-06  0.090967  0.128475  -1.6e-05  1.05778  0.0
H  H112  1  0.35462187  0.99468484  0.15475868  1  0.02947  5e-06  0.090969  0.128462  -1.6e-05  1.057979  0.0
H  H113  1  0.50412620  0.00533837  0.84516426  1  0.027189  5e-06  0.090993  0.128531  -1.6e-05  1.057697  0.0
H  H114  1  0.00530988  0.64537905  0.84524286  1  0.029872  5e-06  0.090959  0.128431  -1.6e-05  1.057904  0.0
H  H115  1  0.64537549  0.50407131  0.84518393  1  0.044671  5e-06  0.090904  0.128363  -1.6e-05  1.057778  0.0
H  H116  1  0.39615908  0.36722722  0.14418747  1  0.023784  7.3e-05  0.091436  0.124378  4.3e-05  0.991875  0.0
H  H117  1  0.09249585  0.39612538  0.14417721  1  0.003965  7.4e-05  0.091383  0.124262  4.3e-05  0.991879  0.0
H  H118  1  0.36715308  0.09248585  0.14419558  1  0.040817  7.2e-05  0.091405  0.124401  4.3e-05  0.992122  0.0
H  H119  1  0.60388199  0.90750214  0.85583145  1  0.003843  7.4e-05  0.091413  0.124272  4.3e-05  0.991888  0.0
H  H120  1  0.90750920  0.63283867  0.85581363  1  0.040979  7.2e-05  0.091373  0.124305  4.3e-05  0.992113  0.0
H  H121  1  0.63277055  0.60384786  0.85581209  1  0.023734  7.3e-05  0.091444  0.124395  4.3e-05  0.991913  0.0
H  H122  1  0.21201458  0.62823438  0.13837453  1  0.03801  -5e-06  0.083426  0.11454  -2.8e-05  1.049292  0.0
H  H123  1  0.02132039  0.21202833  0.13840784  1  0.023353  -5e-06  0.083389  0.114543  -2.8e-05  1.049198  0.0
H  H124  1  0.62824237  0.02140387  0.13835065  1  0.0303  -5e-06  0.083483  0.114715  -2.8e-05  1.04939  0.0
H  H125  1  0.78797495  0.97866904  0.86160460  1  0.019376  -5e-06  0.083395  0.114487  -2.8e-05  1.049386  0.0
H  H126  1  0.97859089  0.37175740  0.86165854  1  0.030641  -5e-06  0.083497  0.114692  -2.8e-05  1.049383  0.0
H  H127  1  0.37176581  0.78798830  0.86162581  1  0.037892  -5e-06  0.083467  0.114624  -2.8e-05  1.049287  0.0
H  H128  1  0.28006357  0.55156247  0.20694735  1  0.068405  9.7e-05  0.086908  0.126779  3.2e-05  1.022414  0.0
H  H129  1  0.96144044  0.28012649  0.20691918  1  0.065937  0.000101  0.086927  0.126821  3.3e-05  1.022512  0.0
H  H130  1  0.55155308  0.96148001  0.20690823  1  0.064114  9.7e-05  0.087008  0.12692  3.2e-05  1.022649  0.0
H  H131  1  0.71987847  0.03855102  0.79309095  1  0.066142  0.000101  0.0869  0.126761  3.3e-05  1.022732  0.0
H  H132  1  0.03851546  0.44844672  0.79309775  1  0.064191  9.7e-05  0.086994  0.126887  3.2e-05  1.022713  0.0
H  H133  1  0.44843960  0.71994099  0.79305227  1  0.06845  9.7e-05  0.086944  0.126861  3.2e-05  1.022353  0.0
H  H134  1  0.24901992  0.50847226  0.16224257  1  0.050051  0.000155  0.092044  0.13026  0.000133  0.994093  0.0
H  H135  1  0.08028599  0.24897838  0.16223065  1  0.053196  0.000154  0.092072  0.13024  0.000132  0.994223  0.0
H  H136  1  0.50848932  0.08033063  0.16224156  1  0.052052  0.000155  0.092056  0.130251  0.000132  0.994154  0.0
H  H137  1  0.75101691  0.91970812  0.83778599  1  0.05336  0.000154  0.0921  0.130246  0.000132  0.994158  0.0
H  H138  1  0.91966641  0.49151004  0.83777013  1  0.052097  0.000155  0.09203  0.130254  0.000132  0.994213  0.0
H  H139  1  0.49152731  0.75098409  0.83776058  1  0.049964  0.000154  0.091989  0.130183  0.000133  0.994169  0.0
H  H140  1  0.29310391  0.77413822  0.07514825  1  0.083634  0.000594  0.105631  0.115214  0.000317  1.048512  0.0
H  H141  1  0.85763196  0.29302761  0.07523543  1  0.096917  0.000587  0.105677  0.115267  0.000317  1.048572  0.0
H  H142  1  0.77411236  0.85762199  0.07523118  1  0.093887  0.000587  0.105711  0.115252  0.000317  1.048326  0.0
H  H143  1  0.70696102  0.14237193  0.92477724  1  0.098148  0.000587  0.105689  0.115262  0.000317  1.048573  0.0
H  H144  1  0.14237945  0.22589356  0.92477282  1  0.093894  0.000587  0.105663  0.1152  0.000317  1.048379  0.0
H  H145  1  0.22586433  0.70689941  0.92485016  1  0.083652  0.000593  0.105635  0.115229  0.000317  1.048568  0.0
H  H146  1  0.14958587  0.90999534  0.07582935  1  0.103716  0.00092  0.112502  0.082851  0.000284  1.022234  0.001
H  H147  1  0.86460417  0.14954239  0.07586885  1  0.115582  0.000919  0.112492  0.082789  0.000284  1.022121  0.001
H  H148  1  0.90997546  0.86461343  0.07588293  1  0.106095  0.000918  0.112488  0.082841  0.000284  1.022256  0.001
H  H149  1  0.85045391  0.13540255  0.92412824  1  0.115567  0.000919  0.112471  0.082771  0.000284  1.02212  0.001
H  H150  1  0.13539419  0.09003007  0.92411451  1  0.106014  0.000918  0.112551  0.082907  0.000284  1.022164  0.001
H  H151  1  0.09000267  0.85041538  0.92417030  1  0.103809  0.000921  0.11248  0.08278  0.000284  1.022201  0.001
H  H152  1  0.94196755  0.91511251  0.51432414  1  0.098886  -9.4e-05  0.110614  0.087269  -0.000225  0.99842  0.0
H  H153  1  0.62857424  0.94200555  0.51433978  1  0.110464  -9e-05  0.110705  0.087425  -0.000225  0.998363  0.0
H  H154  1  0.91503056  0.62860678  0.51435558  1  0.094305  -9.4e-05  0.110652  0.087324  -0.000225  0.998276  0.0
H  H155  1  0.05799093  0.37143684  0.48566413  1  0.110562  -9e-05  0.110698  0.087438  -0.000225  0.998257  0.0
H  H156  1  0.37140770  0.08495913  0.48563680  1  0.094296  -9.4e-05  0.110585  0.087217  -0.000225  0.998337  0.0
H  H157  1  0.08488971  0.05802579  0.48566990  1  0.099216  -9.4e-05  0.110635  0.087259  -0.000225  0.998405  0.0
H  H158  1  0.08033036  0.77269802  0.51023100  1  0.095187  4.4e-05  0.108647  0.124041  4e-06  1.001862  0.0
H  H159  1  0.63673328  0.08037284  0.51023931  1  0.101618  4.4e-05  0.108643  0.124028  4e-06  1.001833  0.0
H  H160  1  0.77260165  0.63669907  0.51031605  1  0.092974  4.5e-05  0.108663  0.12406  4e-06  1.002026  0.0
H  H161  1  0.91962817  0.36327475  0.48975847  1  0.10154  4.4e-05  0.108558  0.123959  4e-06  1.001852  0.0
H  H162  1  0.36330879  0.22738986  0.48967760  1  0.093044  4.5e-05  0.108684  0.124078  4e-06  1.001956  0.0
H  H163  1  0.22729934  0.91965977  0.48977727  1  0.094764  4.4e-05  0.108563  0.123946  4e-06  1.001888  0.0
H  H164  1  0.37417253  0.82103697  0.29671105  1  0.057019  1.8e-05  0.08786  0.123182  -1.2e-05  1.017737  0.0
H  H165  1  0.50811120  0.37424930  0.29670397  1  0.020766  2e-05  0.08792  0.123277  -1.2e-05  1.017988  0.0
H  H166  1  0.82100542  0.50813979  0.29670358  1  0.036655  2e-05  0.087942  0.123175  -1.2e-05  1.017644  0.0
H  H167  1  0.62575205  0.49188803  0.70329769  1  0.020526  2e-05  0.087895  0.123239  -1.2e-05  1.017945  0.0
H  H168  1  0.49185813  0.17899041  0.70329887  1  0.036625  2e-05  0.087947  0.123207  -1.2e-05  1.017504  0.0
H  H169  1  0.17895787  0.62582603  0.70329408  1  0.056993  1.8e-05  0.087841  0.123163  -1.2e-05  1.017666  0.0
H  H170  1  0.37212885  0.87281209  0.35875734  1  0.065844  0.000484  0.081761  0.132604  0.000418  1.042126  0.0
H  H171  1  0.39632300  0.37221261  0.35867478  1  0.080393  0.000494  0.081799  0.132725  0.000418  1.04216  0.0
H  H172  1  0.87278844  0.39634695  0.35873823  1  0.068631  0.000488  0.081689  0.13253  0.000419  1.042417  0.0
H  H173  1  0.62778830  0.60367846  0.64133010  1  0.080412  0.000494  0.081804  0.132719  0.000418  1.042083  0.0
H  H174  1  0.60365487  0.12720695  0.64126679  1  0.068676  0.000488  0.081674  0.132483  0.000419  1.042423  0.0
H  H175  1  0.12718259  0.62786772  0.64124757  1  0.065989  0.000485  0.081788  0.132646  0.000418  1.042084  0.0
H  H176  1  0.26868060  0.88743028  0.35339065  1  0.035361  0.0  0.089225  0.130065  -3e-06  1.014964  0.0
H  H177  1  0.49051944  0.26877407  0.35329683  1  0.030741  0.0  0.089244  0.130182  -3e-06  1.015225  0.0
H  H178  1  0.88744665  0.49053474  0.35334446  1  0.039819  -0.0  0.089167  0.130038  -3e-06  1.014837  0.0
H  H179  1  0.73122944  0.50947995  0.64670506  1  0.031031  0.0  0.089242  0.130162  -3e-06  1.015184  0.0
H  H180  1  0.50946890  0.11254880  0.64665472  1  0.039929  -0.0  0.089182  0.130059  -3e-06  1.014736  0.0
H  H181  1  0.11256748  0.73131619  0.64660929  1  0.035486  0.0  0.089203  0.130055  -3e-06  1.014981  0.0
H  H182  1  0.51143874  0.74067563  0.35122417  1  0.043938  1e-06  0.092396  0.131773  -4e-05  1.012394  0.0
H  H183  1  0.39669441  0.51152987  0.35109571  1  0.042183  2e-06  0.09242  0.131784  -4e-05  1.012549  0.0
H  H184  1  0.74069088  0.39668998  0.35118958  1  0.053682  1e-06  0.092414  0.131789  -4e-05  1.012543  0.0
H  H185  1  0.48846777  0.60330700  0.64890873  1  0.041841  1e-06  0.092412  0.131791  -4e-05  1.012495  0.0
H  H186  1  0.60330093  0.25931133  0.64882391  1  0.053757  1e-06  0.092434  0.131767  -4e-05  1.012576  0.0
H  H187  1  0.25932310  0.48855744  0.64878026  1  0.043866  1e-06  0.092427  0.131822  -4e-05  1.012468  0.0
H  H188  1  0.49075328  0.69368813  0.30106290  1  0.023486  1.2e-05  0.088701  0.119049  4e-06  1.012914  0.0
H  H189  1  0.51458243  0.49066905  0.30109703  1  0.026236  1.2e-05  0.088783  0.119236  4e-06  1.012714  0.0
H  H190  1  0.69366725  0.51453093  0.30109453  1  0.023091  1.2e-05  0.088726  0.119189  4e-06  1.013004  0.0
H  H191  1  0.50932963  0.48541952  0.69890382  1  0.026239  1.3e-05  0.088784  0.119247  4e-06  1.01272  0.0
H  H192  1  0.48545785  0.30633181  0.69891079  1  0.022991  1.2e-05  0.08877  0.119267  4e-06  1.012902  0.0
H  H193  1  0.30631242  0.50924450  0.69894005  1  0.023641  1.2e-05  0.088686  0.119074  4e-06  1.012849  0.0
H  H194  1  0.55751875  0.62087154  0.37136156  1  0.022915  1.1e-05  0.089869  0.121767  9e-06  1.06687  0.0
H  H195  1  0.45028270  0.55755495  0.37129850  1  0.01417  1.1e-05  0.089962  0.121989  9e-06  1.066703  0.0
H  H196  1  0.62088777  0.45024874  0.37137002  1  0.015015  1.1e-05  0.0899  0.12187  9e-06  1.06675  0.0
H  H197  1  0.44244509  0.54972088  0.62870231  1  0.014169  1.1e-05  0.089943  0.121973  9e-06  1.066685  0.0
H  H198  1  0.54973753  0.37911150  0.62864112  1  0.015431  1.1e-05  0.089912  0.121818  9e-06  1.066855  0.0
H  H199  1  0.37912796  0.44247755  0.62864178  1  0.022594  1.1e-05  0.089874  0.121788  9e-06  1.066857  0.0
C  C200  1  0.88439885  0.11519431  0.34086545  1  0.482555  -0.001799  0.051719  0.10352  -0.00146  3.93675  -0.001
C  C201  1  0.65952745  0.88441866  0.34081997  1  0.54286  -0.001863  0.051725  0.103422  -0.001462  3.935722  -0.001
C  C202  1  0.11520021  0.65952720  0.34084039  1  0.429627  -0.001675  0.051857  0.103553  -0.00146  3.936728  -0.001
C  C203  1  0.11557503  0.34047645  0.65918595  1  0.542879  -0.001864  0.051706  0.103329  -0.001463  3.935871  -0.001
C  C204  1  0.34047074  0.88479558  0.65916010  1  0.428659  -0.001674  0.051848  0.103459  -0.001459  3.936838  -0.001
C  C205  1  0.88480570  0.11559226  0.65914083  1  0.482309  -0.001799  0.051695  0.103499  -0.00146  3.936595  -0.001
C  C206  1  0.84905129  0.15194456  0.27430310  1  -0.047828  0.004596  -0.076767  -0.164543  0.00329  3.913649  0.004
C  C207  1  0.72468924  0.84906218  0.27425563  1  -0.101817  0.004667  -0.076585  -0.164279  0.003285  3.913338  0.004
C  C208  1  0.15197184  0.72467563  0.27425907  1  -0.001019  0.004508  -0.076651  -0.164324  0.003289  3.912904  0.004
C  C209  1  0.15093458  0.27531358  0.72574748  1  -0.102219  0.004668  -0.076559  -0.164112  0.003286  3.91318  0.004
C  C210  1  0.27532147  0.84802337  0.72574252  1  -0.000543  0.004508  -0.076691  -0.164311  0.00329  3.912894  0.004
C  C211  1  0.84805460  0.15094099  0.72570074  1  -0.04811  0.004595  -0.07686  -0.164741  0.003289  3.913629  0.004
C  C212  1  0.76215009  0.22031766  0.27950098  1  -0.014271  -0.003154  0.016277  0.129699  -0.002834  3.985096  -0.002
C  C213  1  0.73803978  0.76215490  0.27948030  1  0.006892  -0.003151  0.01605  0.129308  -0.002833  3.984908  -0.002
C  C214  1  0.22032863  0.73801611  0.27947256  1  -0.001662  -0.003146  0.016167  0.129601  -0.002833  3.985131  -0.002
C  C215  1  0.23784402  0.26195817  0.72052265  1  0.006912  -0.003152  0.01603  0.129166  -0.002834  3.984938  -0.002
C  C216  1  0.26198396  0.77966361  0.72052702  1  -0.001649  -0.003145  0.016203  0.12966  -0.002832  3.985315  -0.002
C  C217  1  0.77968541  0.23783968  0.72050508  1  -0.014607  -0.003154  0.016329  0.129854  -0.002834  3.98482  -0.002
C  C218  1  0.71306336  0.24480636  0.35444911  1  -0.006773  0.00432  -0.08166  -0.169247  0.003131  3.929951  0.003
C  C219  1  0.68770519  0.71306140  0.35446140  1  -0.009376  0.004312  -0.081548  -0.168965  0.003129  3.929478  0.003
C  C220  1  0.24479677  0.68767873  0.35442764  1  0.013852  0.004315  -0.08179  -0.169404  0.003128  3.930091  0.003
C  C221  1  0.28693668  0.31229709  0.64553945  1  -0.009147  0.004313  -0.0815  -0.16883  0.003129  3.929426  0.003
C  C222  1  0.31232219  0.75519855  0.64557356  1  0.013717  0.004316  -0.081822  -0.169374  0.003128  3.930213  0.003
C  C223  1  0.75519613  0.28693257  0.64555269  1  -0.062083  0.00442  -0.081647  -0.169372  0.003131  3.929741  0.003
C  C224  1  0.75107017  0.20168683  0.41985863  1  0.467678  -0.00093  0.043106  0.087603  -0.000787  3.958418  -0.001
C  C225  1  0.62738351  0.75108578  0.41984844  1  0.448922  -0.000906  0.043127  0.087395  -0.000786  3.958649  -0.001
C  C226  1  0.20168722  0.62737137  0.41983425  1  0.43356  -0.000905  0.043186  0.087666  -0.000789  3.957556  -0.001
C  C227  1  0.24890836  0.37261824  0.58015579  1  0.448757  -0.000906  0.043152  0.087433  -0.000787  3.958543  -0.001
C  C228  1  0.37263260  0.79830757  0.58016533  1  0.433534  -0.000906  0.043218  0.087654  -0.000789  3.957481  -0.001
C  C229  1  0.79831591  0.24892312  0.58014656  1  0.523486  -0.00103  0.043171  0.087802  -0.000787  3.958289  -0.001
C  C230  1  0.72136241  0.26553971  0.20962066  1  0.01081  0.000341  -0.013837  -0.060638  0.000197  3.975266  0.0
C  C231  1  0.80349352  0.72132899  0.20961355  1  -0.03715  0.000338  -0.013929  -0.060975  0.000197  3.975873  0.0
C  C232  1  0.26553219  0.80347989  0.20958528  1  -0.001631  0.000338  -0.013665  -0.060363  0.000197  3.974873  0.0
C  C233  1  0.27867095  0.19650471  0.79038586  1  -0.037059  0.000339  -0.013901  -0.060966  0.000197  3.975959  0.0
C  C234  1  0.19651836  0.73446453  0.79041680  1  -0.001175  0.000338  -0.013681  -0.060508  0.000197  3.975149  0.0
C  C235  1  0.73446200  0.27863347  0.79037987  1  0.01102  0.00034  -0.01387  -0.060695  0.000197  3.975048  0.0
C  C236  1  0.70891694  0.35826109  0.16202971  1  -0.094997  -0.000205  -0.018845  0.041981  -0.000194  3.96028  0.0
C  C237  1  0.77081003  0.70881187  0.16207737  1  0.00292  -0.000203  -0.018929  0.041976  -0.000194  3.960129  0.0
C  C238  1  0.35825879  0.77078613  0.16199434  1  -0.028318  -0.000204  -0.019083  0.041689  -0.000194  3.959982  0.0
C  C239  1  0.29118724  0.22918566  0.83792724  1  0.001041  -0.000203  -0.01885  0.042149  -0.000194  3.960105  0.0
C  C240  1  0.22921055  0.64173642  0.83801047  1  -0.029022  -0.000204  -0.019034  0.041815  -0.000194  3.959916  0.0
C  C241  1  0.64174321  0.29108022  0.83796832  1  -0.095107  -0.000205  -0.018856  0.042052  -0.000194  3.960175  0.0
C  C242  1  0.66848026  0.40099836  0.09689753  1  -0.029822  7.1e-05  -0.006534  0.104604  4.2e-05  3.938176  0.0
C  C243  1  0.83362806  0.66836706  0.09694011  1  -0.093962  7.1e-05  -0.006236  0.104941  4.2e-05  3.93819  0.0
C  C244  1  0.40101686  0.83360999  0.09688236  1  -0.090775  7.1e-05  -0.006465  0.10486  4.2e-05  3.938764  0.0
C  C245  1  0.33163373  0.16636756  0.90306241  1  -0.091926  7.1e-05  -0.006315  0.104784  4.2e-05  3.938286  0.0
C  C246  1  0.16638629  0.59898166  0.90312219  1  -0.090634  7.1e-05  -0.006479  0.104773  4.2e-05  3.938699  0.0
C  C247  1  0.59900273  0.33152285  0.90309641  1  -0.029372  7.1e-05  -0.006506  0.104671  4.2e-05  3.93818  0.0
C  C248  1  0.64529513  0.35019898  0.07555610  1  -0.581356  -0.000145  -0.009998  -0.257567  -0.000126  3.91899  0.0
C  C249  1  0.92894999  0.64523830  0.07557306  1  -0.594865  -0.000145  -0.00999  -0.257697  -0.000127  3.919626  0.0
C  C250  1  0.35022354  0.92893233  0.07553966  1  -0.55901  -0.000144  -0.009893  -0.257444  -0.000126  3.918848  0.0
C  C251  1  0.35476210  0.07104590  0.92442980  1  -0.594774  -0.000146  -0.009974  -0.257671  -0.000127  3.919462  0.0
C  C252  1  0.07106205  0.64977680  0.92446351  1  -0.558953  -0.000145  -0.009983  -0.257539  -0.000126  3.919117  0.0
C  C253  1  0.64980055  0.35471041  0.92443591  1  -0.581313  -0.000145  -0.010074  -0.257676  -0.000126  3.919037  0.0
C  C254  1  0.65987191  0.25665982  0.12367543  1  -0.00513  7.6e-05  -0.003905  0.109877  4.7e-05  3.936489  0.0
C  C255  1  0.95979873  0.65985818  0.12365196  1  -0.050644  7.6e-05  -0.004  0.109698  4.7e-05  3.936777  0.0
C  C256  1  0.25666686  0.95978858  0.12363987  1  -0.069166  7.6e-05  -0.003932  0.109656  4.7e-05  3.936376  0.0
C  C257  1  0.34014321  0.04019901  0.87634699  1  -0.050735  7.6e-05  -0.003993  0.109774  4.7e-05  3.936675  0.0
C  C258  1  0.04020849  0.74333278  0.87636426  1  -0.068653  7.6e-05  -0.003849  0.109694  4.7e-05  3.93615  0.0
C  C259  1  0.74334002  0.34013254  0.87631878  1  -0.004993  7.6e-05  -0.003872  0.109896  4.7e-05  3.936714  0.0
C  C260  1  0.69521858  0.21486698  0.19218597  1  -0.042333  -0.000156  -0.013149  0.062656  -0.000156  3.928709  0.0
C  C261  1  0.89774563  0.69522963  0.19214903  1  0.012355  -0.000156  -0.013099  0.062654  -0.000156  3.92973  0.0
C  C262  1  0.21486519  0.89773171  0.19215325  1  -0.025663  -0.000156  -0.01325  0.062312  -0.000156  3.929396  0.0
C  C263  1  0.30476888  0.10225098  0.80785362  1  0.01224  -0.000156  -0.013126  0.062637  -0.000156  3.92974  0.0
C  C264  1  0.10226812  0.78513217  0.80784536  1  -0.025913  -0.000156  -0.013265  0.062368  -0.000156  3.929306  0.0
C  C265  1  0.78513552  0.30478387  0.80780972  1  -0.04248  -0.000156  -0.013072  0.062652  -0.000156  3.928742  0.0
C  C266  1  0.74290155  0.41119645  0.17605063  1  -0.05648  0.0  -0.241483  -0.402555  -1.1e-05  3.971129  0.0
C  C267  1  0.66985338  0.74286673  0.17607540  1  -0.031263  -0.0  -0.241293  -0.402501  -1.1e-05  3.970852  0.0
C  C268  1  0.41117965  0.66983234  0.17596244  1  -0.045511  0.0  -0.241359  -0.402313  -1.1e-05  3.971199  0.0
C  C269  1  0.25713487  0.33014198  0.82392687  1  -0.031196  -0.0  -0.241327  -0.402614  -1.1e-05  3.971052  0.0
C  C270  1  0.33016391  0.58881714  0.82404383  1  -0.044902  0.0  -0.241329  -0.402315  -1.1e-05  3.971252  0.0
C  C271  1  0.58880671  0.25709319  0.82395268  1  -0.056657  0.0  -0.241451  -0.402519  -1.1e-05  3.971083  0.0
C  C272  1  0.65832521  0.49971785  0.04659414  1  -0.070653  -8e-06  -0.240542  -0.409412  -1.6e-05  3.970547  0.0
C  C273  1  0.79535805  0.65827045  0.04661704  1  -0.1156  -8e-06  -0.240635  -0.409487  -1.6e-05  3.970905  0.0
C  C274  1  0.49973164  0.79532774  0.04661696  1  -0.072082  -8e-06  -0.240586  -0.409437  -1.6e-05  3.970372  0.0
C  C275  1  0.34172808  0.20463493  0.95338867  1  -0.116371  -8e-06  -0.24051  -0.409251  -1.6e-05  3.97089  0.0
C  C276  1  0.20466696  0.50026682  0.95338756  1  -0.071657  -8e-06  -0.240558  -0.409378  -1.6e-05  3.970347  0.0
C  C277  1  0.50028405  0.34167762  0.95340197  1  -0.070931  -8e-06  -0.2405  -0.409463  -1.6e-05  3.970621  0.0
C  C278  1  0.63194634  0.19969832  0.10859816  1  -0.048928  -5e-06  -0.242544  -0.41882  -2.2e-05  3.978368  0.0
C  C279  1  0.05977186  0.63189200  0.10859961  1  -0.074312  -5e-06  -0.242492  -0.418696  -2.2e-05  3.97805  0.0
C  C280  1  0.19971869  0.05977607  0.10856324  1  -0.067614  -5e-06  -0.242541  -0.418615  -2.2e-05  3.978339  0.0
C  C281  1  0.36811582  0.94022410  0.89139953  1  -0.074024  -5e-06  -0.242389  -0.418701  -2.2e-05  3.978061  0.0
C  C282  1  0.94021779  0.80028308  0.89143744  1  -0.067917  -5e-06  -0.242545  -0.418537  -2.2e-05  3.978308  0.0
C  C283  1  0.80030445  0.36805743  0.89139671  1  -0.048894  -5e-06  -0.242533  -0.418752  -2.2e-05  3.978359  0.0
C  C284  1  0.70283029  0.11748147  0.24658161  1  -0.094999  0.000105  -0.245359  -0.410365  0.000183  3.969564  0.0
C  C285  1  0.93311491  0.70282510  0.24653770  1  -0.068513  0.000103  -0.245118  -0.409971  0.000183  3.970313  0.0
C  C286  1  0.11750117  0.93309808  0.24657006  1  -0.075655  0.000104  -0.245236  -0.409955  0.000183  3.96932  0.0
C  C287  1  0.29717401  0.06688258  0.75346382  1  -0.068542  0.000103  -0.245154  -0.40994  0.000183  3.970232  0.0
C  C288  1  0.06690227  0.88249704  0.75343086  1  -0.075725  0.000104  -0.245213  -0.409966  0.000183  3.969537  0.0
C  C289  1  0.88252225  0.29716892  0.75341630  1  -0.094462  0.000105  -0.245339  -0.41032  0.000183  3.969622  0.0
C  C290  1  0.51409088  0.48590873  0.00000143  1  -0.58457  -8e-06  -0.015417  -0.27417  -1.9e-05  3.945521  0.0
C  C291  1  0.99999829  0.51407378  0.99999928  1  -0.581161  -8e-06  -0.015372  -0.274064  -1.9e-05  3.945056  0.0
C  C292  1  0.48592443  0.00000238  0.00000723  1  -0.581655  -8e-06  -0.015336  -0.274047  -1.9e-05  3.944929  0.0
C  C293  1  0.43429591  0.48711654  0.07240717  1  -0.029342  4.9e-05  -0.005437  0.110177  1e-06  3.940923  0.0
C  C294  1  0.00623216  0.43426193  0.07239427  1  -0.051539  5e-05  -0.005355  0.11021  1e-06  3.940495  0.0
C  C295  1  0.48708504  0.00626149  0.07239497  1  -0.060068  4.9e-05  -0.005445  0.110439  1e-06  3.940735  0.0
C  C296  1  0.56573818  0.99376922  0.92761210  1  -0.051044  5e-05  -0.005309  0.110343  1e-06  3.940308  0.0
C  C297  1  0.99374327  0.51291119  0.92760944  1  -0.060993  4.9e-05  -0.00542  0.110371  1e-06  3.940785  0.0
C  C298  1  0.51288273  0.56570983  0.92759154  1  -0.02929  4.9e-05  -0.005377  0.110241  1e-06  3.940648  0.0
C  C299  1  0.35466438  0.56590264  0.07212456  1  -0.009015  -6.3e-05  -0.017383  0.054093  -9.2e-05  3.953966  0.0
C  C300  1  0.00733934  0.35463762  0.07211531  1  -0.001841  -6.3e-05  -0.017351  0.054091  -9.2e-05  3.9544  0.0
C  C301  1  0.56588702  0.00738170  0.07210417  1  -0.007887  -6.3e-05  -0.017477  0.053591  -9.2e-05  3.953875  0.0
C  C302  1  0.64536250  0.99266020  0.92789260  1  -0.001952  -6.3e-05  -0.017579  0.053748  -9.2e-05  3.954369  0.0
C  C303  1  0.99261980  0.43411024  0.92790355  1  -0.007074  -6.3e-05  -0.017363  0.053906  -9.2e-05  3.953568  0.0
C  C304  1  0.43409740  0.64533828  0.92787642  1  -0.008695  -6.3e-05  -0.017421  0.054099  -9.2e-05  3.954146  0.0
C  C305  1  0.42862994  0.40310154  0.14886414  1  -0.091154  0.000352  -0.241947  -0.411371  0.000375  3.951104  0.0
C  C306  1  0.01946004  0.42858367  0.14885366  1  -0.04519  0.000353  -0.241941  -0.411364  0.000376  3.951352  0.0
C  C307  1  0.40306342  0.01947659  0.14884036  1  -0.049068  0.000346  -0.242092  -0.411867  0.000375  3.952437  0.0
C  C308  1  0.57141848  0.98053833  0.85115372  1  -0.048487  0.000353  -0.242019  -0.41143  0.000376  3.951312  0.0
C  C309  1  0.98052105  0.59693339  0.85116461  1  -0.049555  0.000346  -0.242038  -0.411633  0.000375  3.952241  0.0
C  C310  1  0.59689869  0.57137498  0.85113469  1  -0.091564  0.000352  -0.241975  -0.411352  0.000375  3.951054  0.0
C  C311  1  0.26971269  0.56416417  0.14817657  1  -0.111105  0.000157  -0.244843  -0.407629  0.000158  3.982863  0.0
C  C312  1  0.01795675  0.26971385  0.14816740  1  -0.097888  0.000158  -0.244934  -0.407741  0.000157  3.983611  0.0
C  C313  1  0.56415893  0.01801110  0.14815744  1  -0.099426  0.000156  -0.245115  -0.407956  0.000157  3.983551  0.0
C  C314  1  0.73028911  0.98203694  0.85184368  1  -0.094378  0.000158  -0.244868  -0.40753  0.000157  3.983918  0.0
C  C315  1  0.98198650  0.43583967  0.85184980  1  -0.10039  0.000156  -0.245106  -0.407971  0.000157  3.983626  0.0
C  C316  1  0.43583438  0.73029045  0.85182628  1  -0.111306  0.000157  -0.244882  -0.407767  0.000158  3.983017  0.0
C  C317  1  0.35560648  0.64439591  0.99999983  1  -0.072117  0.000112  -0.015873  -0.061588  4.9e-05  3.978347  0.0
C  C318  1  0.99998571  0.35559444  0.00001689  1  -0.031109  0.000113  -0.016042  -0.061688  4.9e-05  3.978229  0.0
C  C319  1  0.64440055  0.00001742  0.99999484  1  -0.031839  0.000113  -0.015916  -0.061352  4.9e-05  3.978006  0.0
C  C320  1  0.27201714  0.72798581  0.00000152  1  -0.071417  -0.00268  0.018008  0.138255  -0.002387  3.983334  -0.002
C  C321  1  0.00000776  0.27199391  0.00000865  1  -0.120211  -0.002682  0.018184  0.138694  -0.002387  3.982807  -0.002
C  C322  1  0.72800299  0.99999680  0.99999801  1  -0.119425  -0.002682  0.01824  0.138655  -0.002386  3.98281  -0.002
C  C323  1  0.24940017  0.78726505  0.04204781  1  0.021906  0.0028  -0.082291  -0.174826  0.002021  3.929968  0.002
C  C324  1  0.92130286  0.24935071  0.04210602  1  0.059921  0.002809  -0.082356  -0.175164  0.002022  3.929535  0.002
C  C325  1  0.78725952  0.92129220  0.04208111  1  0.024691  0.002798  -0.082397  -0.175008  0.002022  3.929352  0.002
C  C326  1  0.75063941  0.07870268  0.95790442  1  0.058461  0.002809  -0.082378  -0.175076  0.002022  3.929422  0.002
C  C327  1  0.07870923  0.21274003  0.95792563  1  0.02419  0.002798  -0.082337  -0.174976  0.002022  3.929472  0.002
C  C328  1  0.21273639  0.75060148  0.95794744  1  0.021891  0.002801  -0.082254  -0.174746  0.002022  3.929587  0.002
C  C329  1  0.17007944  0.86400521  0.04170423  1  0.449981  -0.001439  0.042956  0.093658  -0.001273  3.960984  -0.001
C  C330  1  0.92423170  0.17003585  0.04174093  1  0.435513  -0.00145  0.042967  0.093846  -0.001273  3.961099  -0.001
C  C331  1  0.86401055  0.92422175  0.04172735  1  0.431307  -0.001426  0.042952  0.093718  -0.001275  3.960754  -0.001
C  C332  1  0.82996110  0.07577531  0.95826065  1  0.436172  -0.001453  0.042951  0.09376  -0.001274  3.960948  -0.001
C  C333  1  0.07578538  0.13599316  0.95827248  1  0.431903  -0.001427  0.042819  0.093637  -0.001274  3.960734  -0.001
C  C334  1  0.13599652  0.82992373  0.95829573  1  0.450043  -0.001438  0.043016  0.093751  -0.001273  3.961188  -0.001
C  C335  1  0.00760087  0.91325489  0.50675131  1  0.490617  -0.001003  0.041134  0.095284  -0.000921  3.965134  -0.001
C  C336  1  0.57238910  0.00764081  0.50674943  1  0.490458  -0.001008  0.041171  0.09535  -0.000921  3.965351  -0.001
C  C337  1  0.91318420  0.57239854  0.50678957  1  0.501399  -0.001005  0.041257  0.095521  -0.000921  3.965253  -0.001
C  C338  1  0.99235612  0.42762150  0.49324958  1  0.490737  -0.001008  0.041157  0.095253  -0.000921  3.965233  -0.001
C  C339  1  0.42761484  0.08681130  0.49320351  1  0.50153  -0.001005  0.041344  0.095678  -0.000921  3.96526  -0.001
C  C340  1  0.08674767  0.99239726  0.49324470  1  0.490338  -0.001003  0.041147  0.095383  -0.000921  3.964856  -0.001
C  C341  1  0.08462237  0.83396048  0.50571485  1  -0.066965  0.000448  -0.081723  -0.172022  0.000347  3.926067  0.0
C  C342  1  0.57570244  0.08465796  0.50570740  1  -0.074063  0.000452  -0.082003  -0.172169  0.000348  3.926272  0.0
C  C343  1  0.83389359  0.57569239  0.50576936  1  -0.069077  0.000451  -0.081905  -0.172153  0.000348  3.926966  0.0
C  C344  1  0.91533847  0.42430638  0.49429032  1  -0.073963  0.000452  -0.08178  -0.171922  0.000348  3.926309  0.0
C  C345  1  0.42431648  0.16610131  0.49422421  1  -0.069907  0.000452  -0.081932  -0.172205  0.000348  3.927073  0.0
C  C346  1  0.16603579  0.91537121  0.49428689  1  -0.065992  0.000448  -0.081629  -0.171903  0.000347  3.926149  0.0
C  C347  1  0.16652530  0.83347025  0.50000123  1  0.005052  -0.001079  0.012706  0.124788  -0.000967  3.974245  -0.001
C  C348  1  0.50001266  0.16656471  0.49996011  1  0.007404  -0.001081  0.012903  0.124872  -0.000968  3.974395  -0.001
C  C349  1  0.83343435  0.49999337  0.50003518  1  0.006706  -0.00108  0.012854  0.124708  -0.000968  3.974576  -0.001
C  C350  1  0.24998838  0.75000643  0.50000335  1  -0.030444  0.000777  -0.011645  -0.060768  0.0005  3.957552  0.001
C  C351  1  0.49998478  0.25001989  0.49998387  1  -0.032927  0.000778  -0.011834  -0.061109  0.000501  3.957511  0.001
C  C352  1  0.74997660  0.50001894  0.50001715  1  -0.033576  0.000778  -0.01181  -0.060999  0.000501  3.957538  0.001
C  C353  1  0.33237480  0.75327074  0.43286085  1  -0.015367  -0.000103  -0.013795  0.05533  -0.000118  3.935482  0.0
C  C354  1  0.48144954  0.33241605  0.43285601  1  -0.034355  -0.000103  -0.013744  0.055532  -0.000119  3.935146  0.0
C  C355  1  0.75325295  0.48151934  0.43286496  1  -0.023509  -0.000104  -0.013801  0.05527  -0.000119  3.935077  0.0
C  C356  1  0.66758245  0.51855454  0.56714212  1  -0.033905  -0.000103  -0.013751  0.055478  -0.000119  3.935194  0.0
C  C357  1  0.51848535  0.24674284  0.56713652  1  -0.023866  -0.000104  -0.013766  0.055361  -0.000119  3.935246  0.0
C  C358  1  0.24672510  0.66762241  0.56714343  1  -0.015793  -0.000103  -0.013839  0.05523  -0.000118  3.935511  0.0
C  C359  1  0.41214935  0.67432155  0.43480400  1  -0.058219  0.000278  -0.010368  0.099561  0.00019  3.944295  0.0
C  C360  1  0.47865581  0.41219230  0.43481863  1  -0.05166  0.000278  -0.010254  0.099693  0.00019  3.944195  0.0
C  C361  1  0.67431151  0.47872957  0.43481412  1  -0.044745  0.000278  -0.010375  0.099801  0.00019  3.943975  0.0
C  C362  1  0.58780221  0.52134784  0.56518449  1  -0.052031  0.000278  -0.01021  0.099785  0.00019  3.944025  0.0
C  C363  1  0.52127133  0.32568313  0.56519207  1  -0.044705  0.000278  -0.010331  0.09972  0.00019  3.943976  0.0
C  C364  1  0.32567517  0.58784682  0.56519858  1  -0.058564  0.000278  -0.010365  0.099591  0.00019  3.944259  0.0
C  C365  1  0.33669043  0.83794732  0.35682081  1  -0.101027  0.000498  -0.248354  -0.414353  0.000408  3.964986  0.0
C  C366  1  0.46855360  0.33674910  0.35677216  1  -0.074597  0.000498  -0.248415  -0.414748  0.000407  3.965769  0.0
C  C367  1  0.83792918  0.46859505  0.35681012  1  -0.088083  0.000498  -0.248241  -0.41421  0.000408  3.964706  0.0
C  C368  1  0.66325228  0.53144733  0.64322819  1  -0.07463  0.000498  -0.248409  -0.414712  0.000407  3.965471  0.0
C  C369  1  0.53140644  0.16206756  0.64319100  1  -0.088248  0.000498  -0.248268  -0.414239  0.000408  3.964579  0.0
C  C370  1  0.16204918  0.66330735  0.64318220  1  -0.101105  0.000499  -0.248362  -0.414356  0.000408  3.964896  0.0
C  C371  1  0.49758536  0.68208932  0.36138597  1  -0.056788  1e-05  -0.243367  -0.416514  9e-06  3.981675  0.0
C  C372  1  0.45894376  0.49760564  0.36137148  1  -0.047877  1e-05  -0.243593  -0.417032  9e-06  3.982241  0.0
C  C373  1  0.68209915  0.45894657  0.36139180  1  -0.064363  1e-05  -0.243441  -0.416869  9e-06  3.981819  0.0
C  C374  1  0.50239161  0.54105904  0.63863108  1  -0.047203  1e-05  -0.243569  -0.417029  9e-06  3.982128  0.0
C  C375  1  0.54104722  0.31789990  0.63861672  1  -0.064703  1e-05  -0.243498  -0.416783  9e-06  3.98188  0.0
C  C376  1  0.31791017  0.50241057  0.63861779  1  -0.056268  1e-05  -0.243393  -0.416653  9e-06  3.981786  0.0
C  C377  1  0.41012349  0.58987461  0.50000172  1  -0.583747  -0.000161  -0.014819  -0.257342  -0.000126  3.912864  0.0
C  C378  1  0.49997560  0.41013549  0.50000980  1  -0.574874  -0.000161  -0.015015  -0.257567  -0.000126  3.91232  0.0
C  C379  1  0.58986158  0.50002488  0.49999417  1  -0.575287  -0.000161  -0.014994  -0.257535  -0.000126  3.912454  0.0
N  N380  1  0.83626416  0.13960364  0.41229822  1  -1.212399  0.071402  -0.355143  -0.210635  0.049624  3.681474  0.064
N  N381  1  0.61180859  0.83628737  0.41226720  1  -1.211943  0.071289  -0.355052  -0.210503  0.049589  3.680714  0.064
N  N382  1  0.13960297  0.61182326  0.41227069  1  -1.207745  0.071305  -0.355251  -0.210797  0.049608  3.68149  0.064
N  N383  1  0.16370400  0.38819844  0.58773835  1  -1.211902  0.071294  -0.355052  -0.210502  0.049592  3.680706  0.064
N  N384  1  0.38817619  0.86039266  0.58773150  1  -1.207651  0.071314  -0.355221  -0.210611  0.049614  3.681389  0.064
N  N385  1  0.86039615  0.16373259  0.58770226  1  -1.212355  0.071395  -0.35515  -0.210677  0.04962  3.681309  0.064
N  N386  1  0.00826951  0.99172908  0.49999576  1  -1.233954  0.0028  -0.348325  -0.26447  0.002278  3.602181  0.004
N  N387  1  0.49999563  0.00832569  0.49998958  1  -1.228708  0.002887  -0.348279  -0.26452  0.002306  3.602081  0.004
N  N388  1  0.99166762  0.50001769  0.50000646  1  -1.228848  0.002884  -0.348337  -0.264461  0.002304  3.602093  0.004
N  N389  1  0.11438845  0.88561304  0.99999807  1  -1.235156  0.043174  -0.358446  -0.237691  0.030169  3.666015  0.04
N  N390  1  0.00000517  0.11436795  0.00001137  1  -1.221801  0.04328  -0.358369  -0.237649  0.030166  3.666225  0.04
N  N391  1  0.88563227  0.00000142  0.99998846  1  -1.222595  0.043276  -0.358352  -0.237597  0.030164  3.66618  0.04
Cl  Cl392  1  0.96451176  0.21415997  0.39636803  1  -0.624878  0.167845  -0.366844  -0.547993  0.110126  1.002003  0.128
Cl  Cl393  1  0.42492301  0.96457317  0.39637948  1  -0.625345  0.167864  -0.366829  -0.54792  0.110128  1.001958  0.128
Cl  Cl394  1  0.21408014  0.42496959  0.39638632  1  -0.623882  0.167888  -0.366873  -0.547945  0.110154  1.00183  0.128
Cl  Cl395  1  0.03542019  0.57507757  0.60362733  1  -0.625269  0.167872  -0.366845  -0.547943  0.110131  1.001949  0.128
Cl  Cl396  1  0.57502483  0.78591779  0.60362356  1  -0.623875  0.167883  -0.366869  -0.547926  0.110151  1.001874  0.128
Cl  Cl397  1  0.78584264  0.03548381  0.60363132  1  -0.624878  0.167848  -0.366861  -0.548007  0.110128  1.002006  0.128
Cl  Cl398  1  0.94981137  0.94980105  0.15057791  1  -0.622183  0.181199  -0.342137  -0.529874  0.119267  1.027529  0.137
Cl  Cl399  1  0.05020087  0.05019324  0.84942185  1  -0.627863  0.18113  -0.342145  -0.529873  0.119274  1.027571  0.137
