# generated using pymatgen
data_CuH11C17NO4
_symmetry_space_group_name_H-M   'P 1'
_cell_length_a   18.44556372
_cell_length_b   18.47128575
_cell_length_c   18.47128552
_cell_angle_alpha   109.49810823
_cell_angle_beta   109.44437082
_cell_angle_gamma   109.44470911
_symmetry_Int_Tables_number   1
_chemical_formula_structural   CuH11C17NO4
_chemical_formula_sum   'Cu12 H132 C204 N12 O48'
_cell_volume   4846.25215422
_cell_formula_units_Z   12
loop_
 _symmetry_equiv_pos_site_id
 _symmetry_equiv_pos_as_xyz
  1  'x, y, z'
loop_
 _atom_site_type_symbol
 _atom_site_label
 _atom_site_symmetry_multiplicity
 _atom_site_fract_x
 _atom_site_fract_y
 _atom_site_fract_z
 _atom_site_occupancy
 _atom_site_pbe_bader_charge
 _atom_site_pbe_bader_spin_density
 _atom_site_pbe_cm5_charge
 _atom_site_pbe_ddec_charge
 _atom_site_pbe_ddec_spin_density
 _atom_site_pbe_ddec_sum_bond_order
 _atom_site_pbe_magmom
Cu  Cu0  1  0.44738560  0.50597782  0.93653455  1  1.082415  0.584859  0.687558  0.784766  0.739227  2.340988  0.586
Cu  Cu1  1  0.94141947  0.43055749  0.49403147  1  1.080916  0.584847  0.687529  0.78485  0.739222  2.34077  0.586
Cu  Cu2  1  0.51086481  0.06347817  0.56944231  1  1.081306  0.584838  0.687586  0.784777  0.739228  2.340851  0.586
Cu  Cu3  1  0.98913146  0.43055235  0.93651718  1  1.081344  0.58485  0.687601  0.784871  0.739243  2.340762  0.586
Cu  Cu4  1  0.05261193  0.06346387  0.49402062  1  1.082111  0.584834  0.687538  0.784693  0.73922  2.341053  0.586
Cu  Cu5  1  0.55857679  0.50596905  0.56943955  1  1.080241  0.584823  0.687572  0.78481  0.739226  2.340784  0.586
Cu  Cu6  1  0.55261188  0.49402224  0.06346711  1  1.082057  0.58484  0.687527  0.784755  0.739223  2.341041  0.586
Cu  Cu7  1  0.05857883  0.56944191  0.50597078  1  1.080272  0.584824  0.687566  0.784808  0.73923  2.340779  0.586
Cu  Cu8  1  0.48912858  0.93651260  0.43054569  1  1.081802  0.584861  0.687601  0.785016  0.739234  2.340588  0.586
Cu  Cu9  1  0.01086816  0.56944969  0.06348260  1  1.081645  0.584855  0.687603  0.784988  0.739233  2.340707  0.586
Cu  Cu10  1  0.94738519  0.93653088  0.50597589  1  1.082407  0.584861  0.687522  0.784758  0.739222  2.340892  0.586
Cu  Cu11  1  0.44141902  0.49402770  0.43055395  1  1.080853  0.584844  0.687604  0.784908  0.739224  2.340788  0.586
H  H12  1  0.26525773  0.47021409  0.88458455  1  0.094867  -0.000127  0.113224  0.081344  -0.00012  1.01253  0.0
H  H13  1  0.49105029  0.57542719  0.82855339  1  0.100186  -0.000151  0.106685  0.122302  -0.000142  1.035556  0.0
H  H14  1  0.15434422  0.51247973  0.81978807  1  0.063905  -1.7e-05  0.104201  0.111859  0.0  1.018863  0.0
H  H15  1  0.52783774  0.66531458  0.75813668  1  0.043505  -1.4e-05  0.095826  0.089641  -7e-06  1.049263  0.0
H  H16  1  0.28846521  0.67964297  0.70373620  1  0.084672  -2.1e-05  0.105188  0.116264  -1.2e-05  0.994505  0.0
H  H17  1  0.18872465  0.60551071  0.74950237  1  0.074799  -5.3e-05  0.103241  0.102441  -8.4e-05  1.038598  0.0
H  H18  1  0.42834694  0.71894926  0.69740257  1  0.05255  -3e-06  0.093698  0.090798  -1.6e-05  1.03145  0.0
H  H19  1  0.50196440  0.62729829  0.27935964  1  0.063076  0.000349  0.104232  0.105366  0.000256  1.014473  0.0
H  H20  1  0.37065869  0.22979572  0.00060777  1  0.113074  0.000282  0.109402  0.111969  0.000206  1.001427  0.0
H  H21  1  0.79504601  0.41437418  0.52978221  1  0.06193  -0.000131  0.113238  0.081325  -0.00012  1.012658  0.0
H  H22  1  0.91561370  0.25312407  0.42456948  1  0.113086  -0.000152  0.106623  0.122337  -0.000142  1.03549  0.0
H  H23  1  0.64186602  0.30731406  0.48752530  1  0.08518  -1.7e-05  0.10423  0.111888  0.0  1.018739  0.0
H  H24  1  0.86250219  0.09281969  0.33468644  1  0.046565  -1.4e-05  0.095932  0.089898  -7e-06  1.04893  0.0
H  H25  1  0.60881032  0.02409640  0.32037904  1  0.093075  -2.1e-05  0.105132  0.116257  -1.2e-05  0.994654  0.0
H  H26  1  0.58320997  0.14399450  0.39450314  1  0.119198  -5e-05  0.103286  0.102428  -8.4e-05  1.038707  0.0
H  H27  1  0.70937778  0.97845115  0.28106492  1  0.084829  -3e-06  0.093727  0.09074  -1.6e-05  1.031319  0.0
H  H28  1  0.87465970  0.65205765  0.37270128  1  0.075112  0.000351  0.104211  0.105243  0.000256  1.014494  0.0
H  H29  1  0.14086806  0.77081919  0.77021096  1  0.093933  0.000283  0.109409  0.11199  0.000205  1.001499  0.0
H  H30  1  0.38067461  0.11541643  0.58562115  1  0.107047  -0.000124  0.113227  0.0813  -0.00012  1.012647  0.0
H  H31  1  0.66250905  0.17147489  0.74688984  1  0.099898  -0.00015  0.10659  0.122268  -0.000142  1.035571  0.0
H  H32  1  0.33454883  0.18020429  0.69267564  1  0.062897  -1.7e-05  0.10421  0.111876  0.0  1.018857  0.0
H  H33  1  0.76970840  0.24189705  0.90719415  1  0.047447  -1.4e-05  0.095852  0.089626  -7e-06  1.04923  0.0
H  H34  1  0.58471720  0.29626449  0.97590089  1  0.064472  -2.1e-05  0.105091  0.11616  -1.2e-05  0.994623  0.0
H  H35  1  0.43921288  0.25048913  0.85599540  1  0.068429  -5.4e-05  0.103279  0.102454  -8.4e-05  1.038598  0.0
H  H36  1  0.73094203  0.30261825  0.02155559  1  0.051349  -3e-06  0.093706  0.090768  -1.6e-05  1.03146  0.0
H  H37  1  0.22258705  0.72063998  0.34794594  1  0.078308  0.000355  0.104104  0.105174  0.000256  1.014129  0.0
H  H38  1  0.37005448  0.99939951  0.22918150  1  0.089736  0.000278  0.109396  0.111978  0.000205  1.001478  0.0
H  H39  1  0.11932588  0.41437860  0.88458574  1  0.107082  -0.000124  0.113243  0.081324  -0.00012  1.012633  0.0
H  H40  1  0.83748936  0.25311167  0.82852462  1  0.099761  -0.000151  0.106595  0.122205  -0.000142  1.035596  0.0
H  H41  1  0.16545110  0.30732414  0.81979840  1  0.063074  -1.7e-05  0.104209  0.111851  0.0  1.018795  0.0
H  H42  1  0.73028883  0.09280635  0.75810144  1  0.04748  -1.4e-05  0.095856  0.089596  -7e-06  1.049293  0.0
H  H43  1  0.91528095  0.02409878  0.70373575  1  0.064517  -2.1e-05  0.105122  0.116207  -1.2e-05  0.994626  0.0
H  H44  1  0.06078511  0.14400384  0.74951181  1  0.068427  -5.4e-05  0.103273  0.102476  -8.4e-05  1.038547  0.0
H  H45  1  0.76905485  0.97844384  0.69738122  1  0.051365  -3e-06  0.093724  0.090773  -1.6e-05  1.031389  0.0
H  H46  1  0.27740876  0.65205549  0.27935943  1  0.078192  0.000356  0.104101  0.105188  0.000256  1.01425  0.0
H  H47  1  0.12994952  0.77081658  0.00060218  1  0.089801  0.000278  0.109393  0.111976  0.000206  1.001501  0.0
H  H48  1  0.23473729  0.11541004  0.52977991  1  0.0947  -0.000127  0.113217  0.081336  -0.00012  1.012561  0.0
H  H49  1  0.00894817  0.17144329  0.42456863  1  0.100226  -0.000151  0.106695  0.122324  -0.000142  1.035606  0.0
H  H50  1  0.34565334  0.18020774  0.48751653  1  0.064074  -1.7e-05  0.104192  0.111862  0.0  1.01886  0.0
H  H51  1  0.97216313  0.24186148  0.33468331  1  0.043532  -1.4e-05  0.09584  0.089689  -7e-06  1.049222  0.0
H  H52  1  0.21153535  0.29626510  0.32035715  1  0.084641  -2.1e-05  0.105166  0.116238  -1.2e-05  0.994531  0.0
H  H53  1  0.31127594  0.25049612  0.39448790  1  0.074776  -5.3e-05  0.10324  0.102481  -8.4e-05  1.03859  0.0
H  H54  1  0.07165509  0.30259714  0.28105012  1  0.05259  -3e-06  0.093713  0.090793  -1.6e-05  1.031456  0.0
H  H55  1  0.99803274  0.72064482  0.37270240  1  0.063026  0.000349  0.104212  0.105357  0.000256  1.014477  0.0
H  H56  1  0.12934175  0.99939310  0.77020772  1  0.11305  0.000282  0.10941  0.111993  0.000206  1.001486  0.0
H  H57  1  0.70496210  0.47022534  0.58563185  1  0.061632  -0.000131  0.113221  0.081326  -0.00012  1.012574  0.0
H  H58  1  0.58439045  0.57543157  0.74688205  1  0.113152  -0.000152  0.10661  0.122327  -0.000142  1.035531  0.0
H  H59  1  0.85814168  0.51248144  0.69269199  1  0.085015  -1.7e-05  0.104233  0.111904  0.0  1.018743  0.0
H  H60  1  0.63750039  0.66531082  0.90718609  1  0.046548  -1.4e-05  0.095924  0.089791  -7e-06  1.048983  0.0
H  H61  1  0.89119110  0.67961643  0.97591027  1  0.093784  -2.1e-05  0.105118  0.116196  -1.2e-05  0.994707  0.0
H  H62  1  0.91679366  0.60549720  0.85601257  1  0.11913  -5e-05  0.103307  0.102474  -8.4e-05  1.038622  0.0
H  H63  1  0.79062345  0.71892998  0.02155466  1  0.084681  -3e-06  0.093745  0.090799  -1.6e-05  1.031414  0.0
H  H64  1  0.62534696  0.62730266  0.34794766  1  0.075271  0.000351  0.104187  0.105247  0.000256  1.014584  0.0
H  H65  1  0.35912846  0.22979080  0.22918539  1  0.093955  0.000283  0.109391  0.111999  0.000206  1.001416  0.0
H  H66  1  0.73473700  0.52977933  0.11540965  1  0.094688  -0.000127  0.113215  0.081319  -0.00012  1.012539  0.0
H  H67  1  0.50894849  0.42457088  0.17144695  1  0.100198  -0.000151  0.10667  0.122286  -0.000142  1.03552  0.0
H  H68  1  0.84565151  0.48751569  0.18020767  1  0.064114  -1.7e-05  0.104201  0.111866  0.0  1.01885  0.0
H  H69  1  0.47216171  0.33468482  0.24186432  1  0.043394  -1.4e-05  0.095848  0.089624  -7e-06  1.049279  0.0
H  H70  1  0.71153342  0.32035709  0.29626475  1  0.084728  -2.1e-05  0.105161  0.11625  -1.2e-05  0.994563  0.0
H  H71  1  0.81127373  0.39449001  0.25049710  1  0.074855  -5.3e-05  0.103249  0.102462  -8.4e-05  1.038602  0.0
H  H72  1  0.57165284  0.28105080  0.30259822  1  0.052546  -3e-06  0.093679  0.090747  -1.6e-05  1.03147  0.0
H  H73  1  0.49803339  0.37269779  0.72064024  1  0.063094  0.000349  0.104226  0.105313  0.000256  1.014553  0.0
H  H74  1  0.62934298  0.77020699  0.99939129  1  0.113051  0.000282  0.10942  0.112018  0.000206  1.001537  0.0
H  H75  1  0.20495920  0.58562985  0.47021900  1  0.06188  -0.000131  0.113213  0.081316  -0.00012  1.012517  0.0
H  H76  1  0.08439226  0.74688262  0.57543341  1  0.113209  -0.000152  0.106594  0.122334  -0.000142  1.035583  0.0
H  H77  1  0.35814093  0.69268998  0.51247864  1  0.084945  -1.7e-05  0.104215  0.111911  0.0  1.01875  0.0
H  H78  1  0.13750582  0.90718766  0.66531463  1  0.04626  -1.4e-05  0.09596  0.089913  -7e-06  1.048885  0.0
H  H79  1  0.39119521  0.97590830  0.67961871  1  0.092908  -2.1e-05  0.105103  0.116186  -1.2e-05  0.994695  0.0
H  H80  1  0.41679648  0.85601086  0.60550055  1  0.119065  -5e-05  0.10328  0.102439  -8.4e-05  1.03861  0.0
H  H81  1  0.29062808  0.02155421  0.71893208  1  0.084727  -3e-06  0.093743  0.090777  -1.6e-05  1.031319  0.0
H  H82  1  0.12534057  0.34794573  0.62729754  1  0.075228  0.000351  0.104176  0.10521  0.000256  1.014584  0.0
H  H83  1  0.85913068  0.22918684  0.22979203  1  0.093952  0.000283  0.109389  0.111965  0.000205  1.001399  0.0
H  H84  1  0.61932188  0.88458164  0.41437790  1  0.107088  -0.000124  0.113229  0.081321  -0.00012  1.012618  0.0
H  H85  1  0.33748701  0.82852119  0.25310840  1  0.09979  -0.000151  0.106607  0.122266  -0.000142  1.035549  0.0
H  H86  1  0.66545047  0.81979710  0.30732489  1  0.062957  -1.7e-05  0.104234  0.111898  0.0  1.018746  0.0
H  H87  1  0.23028758  0.75809770  0.09280307  1  0.047313  -1.4e-05  0.095853  0.089608  -7e-06  1.049265  0.0
H  H88  1  0.41528133  0.70373424  0.02409688  1  0.064455  -2.1e-05  0.105123  0.116186  -1.2e-05  0.994588  0.0
H  H89  1  0.56078789  0.74951292  0.14400477  1  0.068411  -5.4e-05  0.103304  0.102516  -8.4e-05  1.038534  0.0
H  H90  1  0.26905461  0.69737783  0.97844175  1  0.051153  -3e-06  0.093715  0.090736  -1.6e-05  1.031469  0.0
H  H91  1  0.77740819  0.27935677  0.65205170  1  0.078215  0.000356  0.104103  0.105202  0.000256  1.014146  0.0
H  H92  1  0.62994232  0.00059922  0.77081137  1  0.089774  0.000278  0.109403  0.111959  0.000206  1.001491  0.0
H  H93  1  0.88067382  0.58562013  0.11541675  1  0.107018  -0.000124  0.113221  0.08131  -0.00012  1.012586  0.0
H  H94  1  0.16250754  0.74688839  0.17147577  1  0.099904  -0.000151  0.106596  0.122307  -0.000142  1.035526  0.0
H  H95  1  0.83454769  0.69267393  0.18020248  1  0.062898  -1.7e-05  0.104215  0.111874  0.0  1.018833  0.0
H  H96  1  0.26970914  0.90719238  0.24189940  1  0.04754  -1.4e-05  0.09586  0.089611  -7e-06  1.04929  0.0
H  H97  1  0.08471619  0.97590061  0.29626070  1  0.064293  -2.1e-05  0.105115  0.116242  -1.2e-05  0.994529  0.0
H  H98  1  0.93921023  0.85599423  0.25048577  1  0.068411  -5.4e-05  0.10329  0.10253  -8.4e-05  1.038502  0.0
H  H99  1  0.23094311  0.02155489  0.30261853  1  0.051386  -3e-06  0.093701  0.090764  -1.6e-05  1.031467  0.0
H  H100  1  0.72259640  0.34795186  0.72064937  1  0.078253  0.000356  0.104117  0.105237  0.000256  1.014136  0.0
H  H101  1  0.87006105  0.22919011  0.99940385  1  0.089813  0.000278  0.109362  0.111937  0.000205  1.001522  0.0
H  H102  1  0.76526346  0.88458737  0.47021814  1  0.094816  -0.000127  0.113266  0.081376  -0.00012  1.01261  0.0
H  H103  1  0.99105306  0.82855279  0.57542969  1  0.100193  -0.000151  0.106668  0.12226  -0.000142  1.035553  0.0
H  H104  1  0.65434831  0.81979033  0.51248205  1  0.06394  -1.8e-05  0.104188  0.11184  0.0  1.018889  0.0
H  H105  1  0.02783796  0.75813659  0.66531833  1  0.043496  -1.4e-05  0.095848  0.089664  -7e-06  1.049252  0.0
H  H106  1  0.78846419  0.70373563  0.67964270  1  0.084657  -2.1e-05  0.105176  0.116258  -1.2e-05  0.994497  0.0
H  H107  1  0.68872513  0.74950195  0.60550995  1  0.07478  -5.3e-05  0.103241  0.102464  -8.4e-05  1.038571  0.0
H  H108  1  0.92834494  0.69740225  0.71895107  1  0.052541  -3e-06  0.093737  0.090802  -1.6e-05  1.031488  0.0
H  H109  1  0.00196655  0.27935657  0.62729922  1  0.063044  0.000349  0.104216  0.105325  0.000256  1.014509  0.0
H  H110  1  0.87065523  0.00060828  0.22979151  1  0.113101  0.000282  0.109398  0.111981  0.000206  1.001507  0.0
H  H111  1  0.29504617  0.52978135  0.41437505  1  0.0619  -0.000131  0.11324  0.081344  -0.00012  1.012657  0.0
H  H112  1  0.41561410  0.42457114  0.25312283  1  0.11305  -0.000152  0.106613  0.122341  -0.000142  1.035524  0.0
H  H113  1  0.14186873  0.48752723  0.30731574  1  0.084952  -1.7e-05  0.104236  0.111917  0.0  1.018717  0.0
H  H114  1  0.36250276  0.33468791  0.09282024  1  0.046577  -1.4e-05  0.095943  0.089874  -7e-06  1.048978  0.0
H  H115  1  0.10881312  0.32038098  0.02409868  1  0.093123  -2.1e-05  0.105156  0.116272  -1.2e-05  0.994685  0.0
H  H116  1  0.08321164  0.39450352  0.14399514  1  0.119237  -5e-05  0.103272  0.102409  -8.4e-05  1.03868  0.0
H  H117  1  0.20937895  0.28106610  0.97845108  1  0.084842  -3e-06  0.09372  0.090736  -1.6e-05  1.031343  0.0
H  H118  1  0.37465223  0.37269275  0.65205355  1  0.075177  0.000351  0.104212  0.10527  0.000256  1.014515  0.0
H  H119  1  0.64086647  0.77020992  0.77081186  1  0.093992  0.000283  0.109398  0.111963  0.000205  1.001469  0.0
H  H120  1  0.26647193  0.51646689  0.03294794  1  0.063367  0.000491  0.105058  0.109897  0.000363  1.016753  0.0
H  H121  1  0.43112639  0.68111130  0.36223186  1  0.091123  0.000582  0.104036  0.108453  0.00027  0.989638  0.0
H  H122  1  0.75000582  0.51647714  0.48353173  1  0.067095  0.000489  0.105039  0.109895  0.000364  1.016686  0.0
H  H123  1  0.75000311  0.68111576  0.31888785  1  0.080431  0.000585  0.104041  0.10849  0.00027  0.989674  0.0
H  H124  1  0.23352724  0.96705412  0.48353192  1  0.063358  0.000492  0.105057  0.109904  0.000363  1.016721  0.0
H  H125  1  0.06886875  0.63776910  0.31888953  1  0.09113  0.000581  0.104021  0.108456  0.00027  0.98967  0.0
H  H126  1  0.73352624  0.48353913  0.96705757  1  0.063073  0.000492  0.105032  0.109885  0.000363  1.01665  0.0
H  H127  1  0.56887660  0.31888942  0.63777184  1  0.091199  0.000582  0.104035  0.108443  0.00027  0.989663  0.0
H  H128  1  0.25000822  0.48353419  0.51648079  1  0.0671  0.000489  0.105048  0.109916  0.000364  1.016726  0.0
H  H129  1  0.24999361  0.31888164  0.68110942  1  0.080419  0.000584  0.104033  0.108444  0.00027  0.989733  0.0
H  H130  1  0.76647268  0.03294395  0.51646338  1  0.063274  0.000492  0.105027  0.109861  0.000364  1.016721  0.0
H  H131  1  0.93112898  0.36223030  0.68111253  1  0.091166  0.000582  0.103998  0.108432  0.00027  0.989663  0.0
H  H132  1  0.24999585  0.23760680  0.76239222  1  0.135182  0.000642  0.112428  0.120031  0.000557  1.01466  0.0
H  H133  1  0.24999993  0.07293503  0.92706605  1  0.028545  0.000588  0.105566  0.102615  0.000293  0.988578  0.0
H  H134  1  0.01239471  0.52478690  0.76239262  1  0.146555  0.000625  0.112423  0.120046  0.000557  1.014497  0.0
H  H135  1  0.17706489  0.85413092  0.92706242  1  0.022111  0.000589  0.105566  0.102631  0.000293  0.988603  0.0
H  H136  1  0.48760495  0.23760109  0.47521306  1  0.146574  0.000625  0.112447  0.120038  0.000557  1.014489  0.0
H  H137  1  0.32293300  0.07293813  0.14586681  1  0.022069  0.000589  0.10556  0.102618  0.000293  0.988562  0.0
H  H138  1  0.74999834  0.76239127  0.23760606  1  0.135153  0.000642  0.112409  0.120015  0.000557  1.014532  0.0
H  H139  1  0.74999869  0.92706503  0.07293383  1  0.028476  0.000588  0.105562  0.102591  0.000293  0.988612  0.0
H  H140  1  0.98760647  0.47521714  0.23760510  1  0.146433  0.000625  0.112424  0.119998  0.000557  1.014689  0.0
H  H141  1  0.82293884  0.14587246  0.07293916  1  0.022121  0.000589  0.105568  0.10267  0.000293  0.988611  0.0
H  H142  1  0.51239357  0.76239300  0.52478369  1  0.146493  0.000625  0.112433  0.120024  0.000557  1.014689  0.0
H  H143  1  0.67706183  0.92706127  0.85412618  1  0.022166  0.000589  0.105571  0.102678  0.000293  0.988668  0.0
C  C144  1  0.37099650  0.57948446  0.80988826  1  0.435234  -0.000274  0.112275  0.204512  -0.00032  3.971176  0.0
C  C145  1  0.27673861  0.50842709  0.85151915  1  0.516833  -0.000736  0.051742  0.11094  -0.000824  3.966326  0.0
C  C146  1  0.44900224  0.60089099  0.80360133  1  -0.007508  0.000299  -0.087199  -0.158043  0.000176  3.938911  0.0
C  C147  1  0.31258754  0.60867956  0.77311523  1  -0.009827  0.000103  -0.005033  0.035005  5.6e-05  3.996263  0.0
C  C148  1  0.21483292  0.53296958  0.81569205  1  0.012586  0.000178  -0.092663  -0.146623  8.4e-05  4.002074  0.0
C  C149  1  0.46851042  0.65047631  0.76409388  1  -0.027949  -0.000121  -0.092408  -0.071568  -0.000151  4.006037  0.0
C  C150  1  0.33454824  0.65949338  0.73282286  1  -0.031198  4.9e-05  -0.085181  -0.114871  4.6e-05  3.964943  0.0
C  C151  1  0.23355681  0.58382639  0.77729790  1  -0.059889  -0.000623  -0.066859  -0.066369  -0.000718  3.939932  0.0
C  C152  1  0.41162706  0.68043184  0.72887618  1  -0.041567  0.000256  -0.095326  -0.086114  0.000146  4.023159  0.0
C  C153  1  0.43422833  0.54645394  0.10010170  1  1.531743  -0.001312  0.214624  0.575728  -0.001799  4.157613  -0.004
C  C154  1  0.38987533  0.57150623  0.15103393  1  -0.028583  0.018212  -0.016553  -0.034249  0.01276  3.969535  0.014
C  C155  1  0.43511563  0.61551620  0.24393348  1  0.016366  0.001921  -0.075351  -0.078763  0.001265  3.943076  0.001
C  C156  1  0.38241025  0.33949869  0.93010573  1  1.558436  -0.001373  0.212616  0.564129  -0.001731  4.186559  -0.004
C  C157  1  0.31502584  0.24418294  0.88705870  1  -0.077916  0.016335  -0.016592  -0.037799  0.011333  3.989425  0.013
C  C158  1  0.31696688  0.19691118  0.93266738  1  0.009645  0.000151  -0.071495  -0.075262  -0.000262  3.938246  0.0
C  C159  1  0.79150867  0.23040635  0.42052560  1  0.461872  -0.000275  0.112343  0.204603  -0.00032  3.971392  0.0
C  C160  1  0.76831310  0.34309573  0.49157532  1  0.550189  -0.000731  0.05171  0.110996  -0.000823  3.966352  0.0
C  C161  1  0.84809971  0.20270910  0.39911458  1  -0.085456  0.000301  -0.087082  -0.158013  0.000176  3.939104  0.0
C  C162  1  0.70389926  0.16443563  0.39133276  1  0.025567  0.000104  -0.004829  0.035035  5.5e-05  3.996369  0.0
C  C163  1  0.68186562  0.28272951  0.46704053  1  -0.048822  0.000177  -0.092696  -0.146756  8.5e-05  4.001949  0.0
C  C164  1  0.81801847  0.11361545  0.34953142  1  -0.016941  -0.000123  -0.092679  -0.07202  -0.000151  4.005794  0.0
C  C165  1  0.67504060  0.07332933  0.34052322  1  -0.051996  4.8e-05  -0.085211  -0.114976  4.7e-05  3.964715  0.0
C  C166  1  0.64972557  0.19347471  0.41618584  1  -0.075169  -0.000626  -0.067018  -0.066293  -0.000717  3.940068  0.0
C  C167  1  0.73117832  0.04844360  0.31958228  1  -0.053097  0.000258  -0.095256  -0.085834  0.000146  4.022516  0.0
C  C168  1  0.88777594  0.55364817  0.45355003  1  1.536041  -0.001319  0.214626  0.575605  -0.0018  4.1578  -0.004
C  C169  1  0.81836496  0.57952423  0.42848965  1  -0.041661  0.018243  -0.016643  -0.034293  0.012761  3.969626  0.014
C  C170  1  0.81959625  0.62841232  0.38448327  1  -0.0171  0.00193  -0.075387  -0.078733  0.001265  3.942746  0.001
C  C171  1  0.04291649  0.59060760  0.66050208  1  1.578058  -0.001484  0.212591  0.563975  -0.001731  4.186835  -0.004
C  C172  1  0.07085076  0.64288260  0.75582059  1  -0.09618  0.01644  -0.016469  -0.037489  0.011335  3.989029  0.013
C  C173  1  0.12006106  0.73576219  0.80309046  1  -0.028536  0.000176  -0.071575  -0.075396  -0.000265  3.938144  0.0
C  C174  1  0.56110955  0.19012640  0.76959858  1  0.467004  -0.000273  0.112368  0.204555  -0.00032  3.971131  0.0
C  C175  1  0.42522175  0.14848403  0.65690069  1  0.510618  -0.000737  0.051759  0.11099  -0.000823  3.966228  0.0
C  C176  1  0.64540883  0.19642320  0.79730170  1  0.012521  0.000298  -0.087106  -0.157973  0.000175  3.938974  0.0
C  C177  1  0.53946912  0.22689536  0.83556172  1  -0.05533  0.000103  -0.005013  0.034797  5.6e-05  3.996493  0.0
C  C178  1  0.39913399  0.18430755  0.71726275  1  0.040202  0.000178  -0.092643  -0.146655  8.5e-05  4.001766  0.0
C  C179  1  0.70442198  0.23593420  0.88639335  1  -0.025103  -0.000119  -0.092481  -0.071527  -0.000151  4.005854  0.0
C  C180  1  0.60172218  0.26719137  0.92667229  1  0.05042  4.8e-05  -0.085106  -0.114593  4.6e-05  3.964808  0.0
C  C181  1  0.45625039  0.22269946  0.80651738  1  -0.091787  -0.000623  -0.066997  -0.066386  -0.000717  3.939875  0.0
C  C182  1  0.68274836  0.27114593  0.95156543  1  -0.093437  0.000257  -0.095308  -0.086159  0.000146  4.023025  0.0
C  C183  1  0.33412069  0.89990069  0.44635426  1  1.53259  -0.001276  0.214504  0.575519  -0.001798  4.157852  -0.004
C  C184  1  0.23883356  0.84896521  0.42047961  1  -0.081995  0.018205  -0.016586  -0.034319  0.012761  3.969844  0.014
C  C185  1  0.19116764  0.75606778  0.37158860  1  0.044659  0.001903  -0.075372  -0.078755  0.001269  3.942667  0.001
C  C186  1  0.45230562  0.06989006  0.40938559  1  1.554705  -0.001382  0.212464  0.563814  -0.001728  4.187139  -0.004
C  C187  1  0.42797084  0.11293964  0.35711764  1  -0.106986  0.01636  -0.016467  -0.037435  0.011333  3.989026  0.013
C  C188  1  0.38430214  0.06733534  0.26423662  1  0.001343  0.000142  -0.071508  -0.075357  -0.000265  3.938189  0.0
C  C189  1  0.93888809  0.23040362  0.80987323  1  0.467131  -0.000273  0.112327  0.204503  -0.00032  3.971089  0.0
C  C190  1  0.07477820  0.34309830  0.85151594  1  0.510584  -0.000737  0.051769  0.111  -0.000823  3.966311  0.0
C  C191  1  0.85458808  0.20269906  0.80357402  1  0.012919  0.000298  -0.087085  -0.157819  0.000176  3.938763  0.0
C  C192  1  0.96052891  0.16443797  0.77310512  1  -0.055175  0.000103  -0.005026  0.034851  5.6e-05  3.996491  0.0
C  C193  1  0.10086476  0.28273726  0.81569528  1  0.039577  0.000178  -0.092658  -0.146604  8.5e-05  4.001833  0.0
C  C194  1  0.79557576  0.11360719  0.76406423  1  -0.025758  -0.00012  -0.092494  -0.071578  -0.000151  4.005857  0.0
C  C195  1  0.89827686  0.07332803  0.73281066  1  0.050454  4.8e-05  -0.085105  -0.114663  4.6e-05  3.964854  0.0
C  C196  1  0.04374769  0.19348170  0.77730180  1  -0.091352  -0.000623  -0.066997  -0.06648  -0.000717  3.939924  0.0
C  C197  1  0.81724908  0.04843574  0.72885553  1  -0.093499  0.000257  -0.095289  -0.086098  0.000146  4.022913  0.0
C  C198  1  0.16587206  0.55364136  0.10009296  1  1.532852  -0.001277  0.214615  0.575809  -0.001799  4.157636  -0.004
C  C199  1  0.26116182  0.57951958  0.15103447  1  -0.082392  0.018207  -0.016675  -0.034486  0.012761  3.969825  0.014
C  C200  1  0.30882657  0.62841150  0.24392897  1  0.044806  0.001902  -0.075304  -0.078726  0.001268  3.942821  0.001
C  C201  1  0.04769022  0.59060224  0.93010008  1  1.554504  -0.001382  0.212455  0.563766  -0.001729  4.187069  -0.004
C  C202  1  0.07203076  0.64288057  0.88706019  1  -0.107302  0.016363  -0.016534  -0.037539  0.011334  3.989054  0.013
C  C203  1  0.11570035  0.73576001  0.93266605  1  0.001273  0.000143  -0.071512  -0.075338  -0.000265  3.938249  0.0
C  C204  1  0.12900304  0.19010906  0.42051233  1  0.435327  -0.000274  0.11226  0.204538  -0.00032  3.97119  0.0
C  C205  1  0.22325807  0.14847669  0.49156895  1  0.517116  -0.000736  0.05175  0.110954  -0.000824  3.96635  0.0
C  C206  1  0.05099787  0.19639764  0.39910661  1  -0.007462  0.000299  -0.087212  -0.158115  0.000176  3.939061  0.0
C  C207  1  0.18741288  0.22688277  0.39131887  1  -0.010032  0.000103  -0.005027  0.035058  5.6e-05  3.996302  0.0
C  C208  1  0.28516489  0.18430446  0.46702719  1  0.012423  0.000178  -0.092677  -0.146698  8.4e-05  4.002087  0.0
C  C209  1  0.03149025  0.23590592  0.34952220  1  -0.02819  -0.000121  -0.092439  -0.071642  -0.000151  4.006028  0.0
C  C210  1  0.16545328  0.26717723  0.34050676  1  -0.031131  4.9e-05  -0.085185  -0.114904  4.6e-05  3.964926  0.0
C  C211  1  0.26644202  0.22270102  0.41617040  1  -0.059939  -0.000623  -0.066817  -0.066353  -0.000718  3.939922  0.0
C  C212  1  0.08837556  0.27112500  0.31956871  1  -0.041357  0.000256  -0.095328  -0.086065  0.000146  4.023091  0.0
C  C213  1  0.06577057  0.89990048  0.45354723  1  1.53163  -0.001313  0.214596  0.575667  -0.0018  4.157758  -0.004
C  C214  1  0.11012248  0.84896623  0.42849351  1  -0.028535  0.018214  -0.016604  -0.034272  0.012761  3.969616  0.014
C  C215  1  0.06488049  0.75606818  0.38448301  1  0.016053  0.001923  -0.075295  -0.078736  0.001266  3.943011  0.001
C  C216  1  0.11758341  0.06988863  0.66050225  1  1.55799  -0.001374  0.212578  0.563975  -0.001731  4.186671  -0.004
C  C217  1  0.18496859  0.11293860  0.75581908  1  -0.077318  0.016334  -0.016538  -0.037534  0.011333  3.988967  0.013
C  C218  1  0.18303053  0.06733202  0.80309049  1  0.009364  0.000152  -0.071529  -0.075387  -0.000263  3.938147  0.0
C  C219  1  0.70849666  0.57947418  0.76960005  1  0.46179  -0.000275  0.112335  0.204519  -0.00032  3.971323  0.0
C  C220  1  0.73169356  0.50843155  0.65691050  1  0.550815  -0.00073  0.051744  0.111007  -0.000823  3.966496  0.0
C  C221  1  0.65190232  0.60088407  0.79729650  1  -0.085325  0.000301  -0.08712  -0.158041  0.000175  3.939087  0.0
C  C222  1  0.79610463  0.60866547  0.83557052  1  0.025831  0.000104  -0.004902  0.034906  5.5e-05  3.99657  0.0
C  C223  1  0.81814112  0.53296502  0.71727709  1  -0.049032  0.000177  -0.092746  -0.146812  8.4e-05  4.002167  0.0
C  C224  1  0.68198259  0.65046233  0.88638946  1  -0.01676  -0.000123  -0.092606  -0.071763  -0.000151  4.005837  0.0
C  C225  1  0.82496135  0.65947079  0.92667655  1  -0.053182  4.8e-05  -0.085095  -0.114671  4.6e-05  3.964758  0.0
C  C226  1  0.85027760  0.58381552  0.80653132  1  -0.075108  -0.000626  -0.067064  -0.066412  -0.000717  3.940192  0.0
C  C227  1  0.76882537  0.68041399  0.95156338  1  -0.052754  0.000258  -0.095348  -0.086096  0.000146  4.022796  0.0
C  C228  1  0.61223243  0.54645363  0.44635867  1  1.536695  -0.001319  0.214645  0.575752  -0.0018  4.157645  -0.004
C  C229  1  0.68164221  0.57151283  0.42048166  1  -0.04172  0.018244  -0.016652  -0.034268  0.012761  3.969598  0.014
C  C230  1  0.68040883  0.61551766  0.37158932  1  -0.017209  0.00193  -0.075388  -0.078823  0.001265  3.942978  0.001
C  C231  1  0.45708433  0.33949640  0.40939567  1  1.578462  -0.001483  0.212551  0.563937  -0.001731  4.18698  -0.004
C  C232  1  0.42914854  0.24417848  0.35712059  1  -0.096542  0.016441  -0.016609  -0.037763  0.011334  3.9893  0.013
C  C233  1  0.37993899  0.19691138  0.26424339  1  -0.028569  0.000175  -0.071481  -0.075312  -0.000266  3.938057  0.0
C  C234  1  0.62900237  0.42051494  0.19011309  1  0.435095  -0.000274  0.112261  0.204519  -0.00032  3.97125  0.0
C  C235  1  0.72326017  0.49157098  0.14847956  1  0.517137  -0.000736  0.051743  0.111001  -0.000824  3.966279  0.0
C  C236  1  0.55099688  0.39910774  0.19640097  1  -0.007021  0.000299  -0.087178  -0.158001  0.000176  3.938987  0.0
C  C237  1  0.68741232  0.39132182  0.22688441  1  -0.009927  0.000103  -0.005061  0.034974  5.6e-05  3.99635  0.0
C  C238  1  0.78516404  0.46702716  0.18430454  1  0.012369  0.000178  -0.092668  -0.146677  8.4e-05  4.00202  0.0
C  C239  1  0.53148937  0.34952375  0.23590854  1  -0.028178  -0.000121  -0.092437  -0.071564  -0.000151  4.006039  0.0
C  C240  1  0.66545130  0.34050734  0.26717807  1  -0.031217  4.9e-05  -0.085181  -0.11492  4.6e-05  3.964969  0.0
C  C241  1  0.76644058  0.41617234  0.22270166  1  -0.059955  -0.000623  -0.06681  -0.066322  -0.000718  3.939927  0.0
C  C242  1  0.58837420  0.31956889  0.27112641  1  -0.041635  0.000256  -0.095311  -0.086053  0.000146  4.023067  0.0
C  C243  1  0.56576850  0.45354479  0.89990255  1  1.531712  -0.001313  0.214599  0.575658  -0.001801  4.157776  -0.004
C  C244  1  0.61012207  0.42849250  0.84896672  1  -0.028527  0.018216  -0.016624  -0.034366  0.012763  3.969627  0.014
C  C245  1  0.56488168  0.38448120  0.75606777  1  0.016284  0.001922  -0.075326  -0.078683  0.001265  3.942985  0.001
C  C246  1  0.61758368  0.66050004  0.06988998  1  1.557978  -0.001374  0.212634  0.564145  -0.001731  4.186517  -0.004
C  C247  1  0.68496875  0.75581712  0.11293714  1  -0.077192  0.016334  -0.01652  -0.037663  0.011333  3.989147  0.013
C  C248  1  0.68303026  0.80308822  0.06732907  1  0.009289  0.000151  -0.071574  -0.075389  -0.000263  3.938188  0.0
C  C249  1  0.20849810  0.76959968  0.57947408  1  0.462001  -0.000275  0.112305  0.204551  -0.00032  3.971393  0.0
C  C250  1  0.23169163  0.65690963  0.50842726  1  0.550781  -0.00073  0.051792  0.111104  -0.000823  3.966434  0.0
C  C251  1  0.15190467  0.79729560  0.60088495  1  -0.085642  0.000301  -0.087075  -0.158029  0.000175  3.939108  0.0
C  C252  1  0.29610470  0.83556708  0.60866543  1  0.025479  0.000104  -0.004803  0.035017  5.5e-05  3.996615  0.0
C  C253  1  0.31814189  0.71727452  0.53296198  1  -0.049071  0.000177  -0.09267  -0.14678  8.4e-05  4.002157  0.0
C  C254  1  0.18198739  0.88638991  0.65046666  1  -0.016348  -0.000123  -0.09264  -0.071909  -0.000151  4.005728  0.0
C  C255  1  0.32496435  0.92667536  0.65947380  1  -0.052078  4.8e-05  -0.085116  -0.114749  4.7e-05  3.964846  0.0
C  C256  1  0.35027898  0.80652800  0.58381525  1  -0.074887  -0.000625  -0.067088  -0.066405  -0.000717  3.940299  0.0
C  C257  1  0.26882877  0.95156309  0.68041611  1  -0.053037  0.000258  -0.09538  -0.08606  0.000146  4.02272  0.0
C  C258  1  0.11223316  0.44636249  0.54645360  1  1.5362  -0.001316  0.214657  0.575743  -0.001801  4.15751  -0.004
C  C259  1  0.18164125  0.42048180  0.57151310  1  -0.041746  0.018244  -0.016609  -0.034112  0.012761  3.969427  0.014
C  C260  1  0.18040467  0.37158774  0.61551520  1  -0.017133  0.00193  -0.075379  -0.078819  0.001265  3.942892  0.001
C  C261  1  0.95708644  0.40940108  0.33949885  1  1.578141  -0.001482  0.212567  0.563926  -0.001731  4.186955  -0.004
C  C262  1  0.92915317  0.35712806  0.24418404  1  -0.09615  0.016438  -0.016637  -0.037799  0.011334  3.989259  0.013
C  C263  1  0.87994188  0.26424649  0.19691210  1  -0.028399  0.000175  -0.071444  -0.075187  -0.000266  3.937984  0.0
C  C264  1  0.43888717  0.80987101  0.23039978  1  0.467206  -0.000273  0.112348  0.204478  -0.00032  3.97124  0.0
C  C265  1  0.57477646  0.85151404  0.34309783  1  0.510627  -0.000738  0.051821  0.111026  -0.000824  3.966113  0.0
C  C266  1  0.35458599  0.80357156  0.20269568  1  0.012536  0.000298  -0.087055  -0.157786  0.000176  3.938851  0.0
C  C267  1  0.46052893  0.77310469  0.16443796  1  -0.055314  0.000103  -0.005032  0.03485  5.6e-05  3.996554  0.0
C  C268  1  0.60086290  0.81569251  0.28273330  1  0.039661  0.000178  -0.092728  -0.146685  8.5e-05  4.001785  0.0
C  C269  1  0.29557490  0.76406121  0.11360493  1  -0.025006  -0.00012  -0.092478  -0.071621  -0.000151  4.00594  0.0
C  C270  1  0.39827669  0.73280803  0.07332636  1  0.050502  4.8e-05  -0.085086  -0.114604  4.6e-05  3.964721  0.0
C  C271  1  0.54374775  0.77730192  0.19348115  1  -0.091174  -0.000623  -0.067004  -0.06649  -0.000718  3.939989  0.0
C  C272  1  0.31724836  0.72885148  0.04843293  1  -0.093407  0.000257  -0.095359  -0.08613  0.000147  4.022932  0.0
C  C273  1  0.66587280  0.10009141  0.55363855  1  1.532321  -0.001276  0.214609  0.575679  -0.001801  4.157475  -0.004
C  C274  1  0.76116349  0.15103286  0.57951583  1  -0.082159  0.018206  -0.016613  -0.034277  0.012762  3.969707  0.014
C  C275  1  0.80882570  0.24392631  0.62840699  1  0.044426  0.001902  -0.075425  -0.078927  0.001268  3.94276  0.001
C  C276  1  0.54768638  0.93010138  0.59060109  1  1.554608  -0.001382  0.212523  0.563928  -0.001729  4.186755  -0.004
C  C277  1  0.57202702  0.88705777  0.64287513  1  -0.107367  0.016364  -0.016623  -0.037747  0.011335  3.989197  0.013
C  C278  1  0.61569556  0.93266406  0.73575406  1  0.001308  0.000142  -0.071411  -0.075146  -0.000266  3.938104  0.0
C  C279  1  0.06110866  0.76959843  0.19012560  1  0.467052  -0.000273  0.112421  0.204747  -0.00032  3.971057  0.0
C  C280  1  0.92522116  0.65689977  0.14848404  1  0.510834  -0.000737  0.05179  0.111053  -0.000823  3.966168  0.0
C  C281  1  0.14540849  0.79730034  0.19642333  1  0.012404  0.000298  -0.087149  -0.158158  0.000175  3.938981  0.0
C  C282  1  0.03946756  0.83556010  0.22689121  1  -0.055439  0.000103  -0.00504  0.034755  5.6e-05  3.996494  0.0
C  C283  1  0.89913363  0.71726346  0.18430636  1  0.040234  0.000178  -0.092698  -0.146697  8.4e-05  4.00189  0.0
C  C284  1  0.20442278  0.88639154  0.23593517  1  -0.025251  -0.000119  -0.092506  -0.071529  -0.000151  4.005854  0.0
C  C285  1  0.10172119  0.92667203  0.26718739  1  0.050556  4.9e-05  -0.085139  -0.114732  4.6e-05  3.964699  0.0
C  C286  1  0.95624846  0.80651571  0.22269582  1  -0.091701  -0.000623  -0.066998  -0.066491  -0.000717  3.939929  0.0
C  C287  1  0.18274782  0.95156432  0.27114378  1  -0.09335  0.000257  -0.095268  -0.086068  0.000146  4.022955  0.0
C  C288  1  0.83412633  0.44635936  0.89990922  1  1.531986  -0.001276  0.214545  0.57561  -0.0018  4.157598  -0.004
C  C289  1  0.73883593  0.42048446  0.84897077  1  -0.082041  0.018207  -0.016539  -0.034156  0.012762  3.969545  0.014
C  C290  1  0.69117306  0.37159054  0.75607298  1  0.044858  0.001902  -0.075465  -0.079055  0.001268  3.942843  0.001
C  C291  1  0.95230986  0.40939384  0.06989407  1  1.554475  -0.001381  0.212579  0.564031  -0.001729  4.186992  -0.004
C  C292  1  0.92797364  0.35712413  0.11294260  1  -0.107356  0.016364  -0.01661  -0.037763  0.011335  3.989199  0.013
C  C293  1  0.88430626  0.26424336  0.06733811  1  0.001339  0.000142  -0.071396  -0.075125  -0.000265  3.938115  0.0
C  C294  1  0.87099696  0.80988570  0.57948459  1  0.43497  -0.000274  0.112258  0.204522  -0.00032  3.971205  0.0
C  C295  1  0.77674267  0.85152071  0.50842749  1  0.517056  -0.000736  0.051789  0.110972  -0.000824  3.966212  0.0
C  C296  1  0.94900221  0.80359844  0.60089132  1  -0.007  0.000299  -0.087183  -0.15799  0.000176  3.938989  0.0
C  C297  1  0.81258844  0.77311464  0.60867829  1  -0.010077  0.000103  -0.005048  0.034973  5.6e-05  3.996273  0.0
C  C298  1  0.71483553  0.81569228  0.53297054  1  0.012732  0.000178  -0.09269  -0.146687  8.4e-05  4.002006  0.0
C  C299  1  0.96850936  0.76409149  0.65047711  1  -0.028215  -0.000121  -0.092472  -0.071659  -0.000151  4.006036  0.0
C  C300  1  0.83454756  0.73282150  0.65949231  1  -0.031335  4.9e-05  -0.085192  -0.114944  4.6e-05  3.964861  0.0
C  C301  1  0.73355733  0.77729705  0.58382580  1  -0.059744  -0.000623  -0.066822  -0.066298  -0.000718  3.939873  0.0
C  C302  1  0.91162528  0.72887373  0.68043253  1  -0.041496  0.000256  -0.09531  -0.086016  0.000146  4.023037  0.0
C  C303  1  0.93422688  0.10009493  0.54645125  1  1.532298  -0.001315  0.214518  0.575536  -0.0018  4.157991  -0.004
C  C304  1  0.88987515  0.15103184  0.57150645  1  -0.028827  0.018218  -0.016621  -0.034385  0.012762  3.969763  0.014
C  C305  1  0.93511748  0.24393056  0.61551782  1  0.0161  0.001923  -0.075367  -0.078736  0.001266  3.94303  0.001
C  C306  1  0.88241142  0.93010613  0.33949621  1  1.558326  -0.001373  0.212652  0.564107  -0.001731  4.186661  -0.004
C  C307  1  0.81502790  0.88705947  0.24417996  1  -0.077533  0.016334  -0.016531  -0.037632  0.011333  3.989146  0.013
C  C308  1  0.81696670  0.93266870  0.19690752  1  0.009282  0.000152  -0.071528  -0.075315  -0.000262  3.938143  0.0
C  C309  1  0.29150806  0.42052654  0.23040693  1  0.461908  -0.000275  0.112395  0.204654  -0.00032  3.971358  0.0
C  C310  1  0.26831595  0.49157647  0.34309779  1  0.550828  -0.000731  0.051722  0.110994  -0.000823  3.966389  0.0
C  C311  1  0.34810050  0.39911400  0.20270842  1  -0.08546  0.000301  -0.087139  -0.158133  0.000176  3.939142  0.0
C  C312  1  0.20390058  0.39133393  0.16443672  1  0.025492  0.000104  -0.004866  0.035028  5.5e-05  3.996492  0.0
C  C313  1  0.18186674  0.46703968  0.28273117  1  -0.049141  0.000177  -0.092695  -0.146789  8.5e-05  4.001907  0.0
C  C314  1  0.31801973  0.34953242  0.11361689  1  -0.016893  -0.000123  -0.092642  -0.07188  -0.000151  4.005887  0.0
C  C315  1  0.17504229  0.34052662  0.07333004  1  -0.052076  4.8e-05  -0.085194  -0.114917  4.7e-05  3.964855  0.0
C  C316  1  0.14972770  0.41618520  0.19347585  1  -0.075128  -0.000626  -0.067007  -0.06629  -0.000717  3.939958  0.0
C  C317  1  0.23117836  0.31958474  0.04844423  1  -0.053076  0.000258  -0.095315  -0.085964  0.000147  4.022623  0.0
C  C318  1  0.38777302  0.45354510  0.55364734  1  1.536005  -0.001319  0.214663  0.575762  -0.0018  4.157535  -0.004
C  C319  1  0.31836242  0.42848657  0.57952213  1  -0.041695  0.018241  -0.016683  -0.034479  0.01276  3.969884  0.014
C  C320  1  0.31959184  0.38447842  0.62841152  1  -0.017163  0.00193  -0.075394  -0.07876  0.001265  3.942999  0.001
C  C321  1  0.54291379  0.66050035  0.59060346  1  1.57809  -0.001483  0.212577  0.563903  -0.001731  4.186893  -0.004
C  C322  1  0.57084532  0.75581893  0.64287628  1  -0.096451  0.016441  -0.016634  -0.037739  0.011335  3.989267  0.013
C  C323  1  0.62005701  0.80308802  0.73575593  1  -0.028505  0.000175  -0.071486  -0.075241  -0.000266  3.938106  0.0
C  C324  1  0.30250332  0.55249560  0.10500248  1  0.031142  0.003685  -0.073131  -0.095281  0.002542  3.920003  0.002
C  C325  1  0.39500727  0.64499641  0.28999769  1  -0.055588  0.001999  -0.086665  -0.071604  0.001199  3.982972  0.001
C  C326  1  0.75000343  0.55250346  0.44750201  1  0.062534  0.003618  -0.073068  -0.095336  0.00254  3.920052  0.002
C  C327  1  0.75000119  0.64499729  0.35500329  1  -0.025718  0.001987  -0.086635  -0.071599  0.001199  3.98275  0.001
C  C328  1  0.19749380  0.89499710  0.44750279  1  0.030959  0.003688  -0.073117  -0.09529  0.002543  3.920059  0.002
C  C329  1  0.10498782  0.71000312  0.35500458  1  -0.05514  0.001999  -0.086607  -0.071597  0.001199  3.983055  0.001
C  C330  1  0.69749401  0.44750645  0.89499979  1  0.031257  0.003686  -0.073137  -0.095313  0.002542  3.920047  0.002
C  C331  1  0.60499433  0.35500498  0.71000577  1  -0.055578  0.001999  -0.086609  -0.071453  0.001199  3.983031  0.001
C  C332  1  0.25000319  0.44749991  0.55250323  1  0.06267  0.003618  -0.073066  -0.095351  0.00254  3.920126  0.002
C  C333  1  0.24999669  0.35500011  0.64499545  1  -0.02582  0.001987  -0.086596  -0.071475  0.001199  3.982869  0.001
C  C334  1  0.80250612  0.10500097  0.55249359  1  0.031024  0.003686  -0.073143  -0.095292  0.002542  3.920148  0.002
C  C335  1  0.89501006  0.28999429  0.64499524  1  -0.054834  0.001999  -0.086488  -0.071424  0.001199  3.982929  0.001
C  C336  1  0.24999667  0.20156457  0.79843504  1  -0.031822  0.002043  -0.072448  -0.105796  0.001286  3.94183  0.001
C  C337  1  0.24999973  0.10908399  0.89091899  1  -0.069401  0.001876  -0.085386  -0.085694  0.00113  4.012617  0.001
C  C338  1  0.04843774  0.59687573  0.79843665  1  -0.010239  0.002  -0.072458  -0.105894  0.001284  3.941717  0.001
C  C339  1  0.14091910  0.78183657  0.89091726  1  0.029302  0.001861  -0.085372  -0.085693  0.001131  4.012523  0.001
C  C340  1  0.45156250  0.20155847  0.40312584  1  -0.010072  0.001999  -0.072441  -0.105791  0.001284  3.941786  0.001
C  C341  1  0.35908163  0.10908417  0.21816229  1  0.029299  0.001861  -0.085417  -0.085724  0.001131  4.012429  0.001
C  C342  1  0.74999850  0.79843549  0.20156207  1  -0.03173  0.002043  -0.072454  -0.105826  0.001286  3.941817  0.001
C  C343  1  0.75000046  0.89091805  0.10908153  1  -0.069415  0.001876  -0.085373  -0.08568  0.00113  4.012528  0.001
C  C344  1  0.95156485  0.40313228  0.20156286  1  -0.009951  0.001999  -0.072398  -0.105684  0.001284  3.941802  0.001
C  C345  1  0.85908612  0.21816747  0.10908720  1  0.029298  0.001861  -0.085404  -0.085844  0.001131  4.012582  0.001
C  C346  1  0.54843330  0.79843364  0.59686880  1  -0.009933  0.001998  -0.072418  -0.105764  0.001284  3.941855  0.001
C  C347  1  0.64091541  0.89091390  0.78182989  1  0.029385  0.001862  -0.085427  -0.085853  0.001131  4.012501  0.001
N  N348  1  0.35211799  0.53062905  0.84973209  1  -1.216099  -0.001152  -0.327725  -0.298582  -0.000634  3.457235  0.0
N  N349  1  0.82148935  0.31910688  0.46937541  1  -1.226225  -0.001155  -0.32776  -0.298676  -0.000635  3.457155  0.0
N  N350  1  0.50238926  0.15027531  0.68089448  1  -1.2328  -0.001157  -0.327808  -0.29862  -0.000636  3.45704  0.0
N  N351  1  0.99760891  0.31910566  0.84972309  1  -1.232913  -0.001157  -0.327818  -0.298653  -0.000636  3.457109  0.0
N  N352  1  0.14787888  0.15026532  0.46936834  1  -1.216205  -0.001153  -0.32771  -0.29855  -0.000635  3.457188  0.0
N  N353  1  0.67851593  0.53062780  0.68089779  1  -1.226537  -0.001156  -0.32769  -0.298531  -0.000636  3.457156  0.0
N  N354  1  0.64788122  0.46937101  0.15026905  1  -1.216076  -0.001153  -0.327707  -0.298575  -0.000635  3.457136  0.0
N  N355  1  0.17851586  0.68089716  0.53062472  1  -1.226498  -0.001156  -0.327756  -0.298696  -0.000636  3.45728  0.0
N  N356  1  0.49760599  0.84972143  0.31910317  1  -1.233085  -0.001157  -0.327832  -0.298662  -0.000636  3.457118  0.0
N  N357  1  0.00238881  0.68089373  0.15027572  1  -1.233046  -0.001158  -0.327782  -0.29864  -0.000636  3.456998  0.0
N  N358  1  0.85211981  0.84973142  0.53062827  1  -1.216182  -0.001153  -0.327764  -0.298591  -0.000635  3.457143  0.0
N  N359  1  0.32149044  0.46937624  0.31910813  1  -1.226325  -0.001154  -0.327753  -0.298647  -0.000635  3.457234  0.0
O  O360  1  0.40464553  0.54010789  0.02387678  1  -1.114323  0.09394  -0.308805  -0.536291  0.059001  2.397801  0.086
O  O361  1  0.36298473  0.38083331  0.89048848  1  -1.099493  0.092513  -0.310799  -0.511962  0.058323  2.385711  0.084
O  O362  1  0.45343666  0.37039289  0.00122864  1  -1.122157  0.085704  -0.309994  -0.52249  0.054154  2.404014  0.078
O  O363  1  0.49817431  0.53437809  0.13594385  1  -1.10692  0.104882  -0.307145  -0.509289  0.065967  2.324134  0.095
O  O364  1  0.86455033  0.48378163  0.45991906  1  -1.115094  0.093908  -0.30879  -0.536223  0.058984  2.397674  0.086
O  O365  1  0.98216056  0.50964660  0.61917345  1  -1.107002  0.092496  -0.310781  -0.511896  0.058353  2.385516  0.084
O  O366  1  0.08303089  0.63082942  0.62959877  1  -1.116872  0.085753  -0.31001  -0.522527  0.054128  2.404396  0.078
O  O367  1  0.96379096  0.60156085  0.46561032  1  -1.109196  0.10493  -0.30716  -0.509217  0.065989  2.324291  0.095
O  O368  1  0.38076712  0.97613897  0.51621988  1  -1.119324  0.093883  -0.308777  -0.536193  0.058988  2.39763  0.086
O  O369  1  0.47251917  0.10952533  0.49034629  1  -1.106775  0.092509  -0.310733  -0.511752  0.058346  2.385739  0.084
O  O370  1  0.45218735  0.99876061  0.36916594  1  -1.115517  0.085724  -0.309884  -0.52249  0.054117  2.404331  0.078
O  O371  1  0.36221827  0.86404533  0.39844259  1  -1.103285  0.104947  -0.30717  -0.509285  0.065989  2.324277  0.095
O  O372  1  0.11922833  0.48378192  0.02385759  1  -1.119466  0.093865  -0.308759  -0.536255  0.058977  2.397941  0.086
O  O373  1  0.02748029  0.50964771  0.89046992  1  -1.106676  0.092496  -0.310714  -0.511743  0.058339  2.386012  0.084
O  O374  1  0.04780736  0.63082932  0.00123450  1  -1.115205  0.085741  -0.309925  -0.522474  0.054128  2.403961  0.078
O  O375  1  0.13777415  0.60155433  0.13595116  1  -1.103222  0.104949  -0.307222  -0.509418  0.06599  2.324073  0.095
O  O376  1  0.09535569  0.97612605  0.45989022  1  -1.114168  0.093946  -0.308773  -0.536225  0.059006  2.397768  0.086
O  O377  1  0.13701364  0.10950666  0.61916521  1  -1.099072  0.092522  -0.310781  -0.511863  0.058328  2.385489  0.084
O  O378  1  0.04656040  0.99877174  0.62960984  1  -1.122209  0.085691  -0.309987  -0.522503  0.054146  2.404266  0.078
O  O379  1  0.00182821  0.86405881  0.46562616  1  -1.106968  0.104879  -0.307112  -0.509258  0.065966  2.324264  0.095
O  O380  1  0.63545352  0.54008370  0.51622284  1  -1.115301  0.093916  -0.308777  -0.53627  0.05899  2.397804  0.086
O  O381  1  0.51783439  0.38082462  0.49035399  1  -1.107301  0.092483  -0.310736  -0.511793  0.058344  2.385731  0.084
O  O382  1  0.41696889  0.37040042  0.36917103  1  -1.116907  0.085762  -0.310001  -0.522512  0.054134  2.404248  0.078
O  O383  1  0.53621608  0.53439093  0.39844379  1  -1.109451  0.104918  -0.307217  -0.509374  0.065982  2.324196  0.095
O  O384  1  0.59535416  0.45988620  0.97612632  1  -1.114277  0.093952  -0.308756  -0.536256  0.05901  2.397947  0.086
O  O385  1  0.63701084  0.61916409  0.10950787  1  -1.099165  0.092506  -0.310819  -0.511967  0.058318  2.385587  0.084
O  O386  1  0.54656148  0.62960849  0.99877206  1  -1.12212  0.0857  -0.309993  -0.522495  0.054151  2.404138  0.078
O  O387  1  0.50182342  0.46562131  0.86406092  1  -1.106933  0.104881  -0.307091  -0.509196  0.065967  2.32426  0.095
O  O388  1  0.13546050  0.51622904  0.54008785  1  -1.114781  0.093909  -0.308812  -0.536296  0.058987  2.397785  0.086
O  O389  1  0.01783635  0.49035810  0.38082525  1  -1.10743  0.092475  -0.310687  -0.511738  0.05834  2.385776  0.084
O  O390  1  0.91696988  0.36917262  0.37040030  1  -1.116872  0.085762  -0.310035  -0.522532  0.054134  2.404102  0.078
O  O391  1  0.03621799  0.39845180  0.53439609  1  -1.109532  0.104914  -0.307181  -0.509389  0.065979  2.324132  0.095
O  O392  1  0.61922745  0.02385645  0.48377385  1  -1.119172  0.093868  -0.30881  -0.536323  0.058979  2.397638  0.086
O  O393  1  0.52747555  0.89046810  0.50964411  1  -1.106784  0.092507  -0.310747  -0.511829  0.058347  2.38566  0.084
O  O394  1  0.54780393  0.00123282  0.63082550  1  -1.115386  0.085732  -0.309954  -0.522468  0.054123  2.404192  0.078
O  O395  1  0.63777556  0.13594743  0.60155434  1  -1.103113  0.104948  -0.307169  -0.509299  0.06599  2.324169  0.095
O  O396  1  0.88077008  0.51622344  0.97614724  1  -1.118804  0.093871  -0.30879  -0.536313  0.05898  2.397711  0.086
O  O397  1  0.97252106  0.49035434  0.10953043  1  -1.106606  0.092513  -0.310805  -0.511943  0.05835  2.385594  0.084
O  O398  1  0.95219432  0.36917339  0.99876781  1  -1.115377  0.085732  -0.309972  -0.522512  0.054123  2.404468  0.078
O  O399  1  0.86222261  0.39844772  0.86405147  1  -1.103153  0.104945  -0.307148  -0.509284  0.065988  2.324343  0.095
O  O400  1  0.90463863  0.02387003  0.54010149  1  -1.114265  0.093945  -0.308704  -0.536133  0.059004  2.398068  0.086
O  O401  1  0.86298719  0.89049207  0.38083441  1  -1.099509  0.092511  -0.310828  -0.511968  0.058322  2.385655  0.084
O  O402  1  0.95343625  0.00122898  0.37038852  1  -1.122009  0.085708  -0.310007  -0.522507  0.054156  2.404118  0.078
O  O403  1  0.99817270  0.13593661  0.53437345  1  -1.10732  0.104878  -0.307065  -0.509138  0.065966  2.324177  0.095
O  O404  1  0.36454830  0.45991238  0.48377838  1  -1.115051  0.093913  -0.308813  -0.536293  0.058987  2.397551  0.086
O  O405  1  0.48216110  0.61917147  0.50964189  1  -1.107139  0.092489  -0.310797  -0.511865  0.058347  2.385575  0.084
O  O406  1  0.58302892  0.62960030  0.63082717  1  -1.116891  0.085745  -0.309986  -0.522461  0.054123  2.404421  0.078
O  O407  1  0.46378771  0.46560449  0.60156002  1  -1.109075  0.104928  -0.307211  -0.509339  0.065987  2.324166  0.095
