# generated using pymatgen
data_Tb2H46C48N7O19
_symmetry_space_group_name_H-M   'P 1'
_cell_length_a   19.10286760
_cell_length_b   21.18645167
_cell_length_c   21.30904660
_cell_angle_alpha   119.80985676
_cell_angle_beta   89.77844987
_cell_angle_gamma   89.99991448
_symmetry_Int_Tables_number   1
_chemical_formula_structural   Tb2H46C48N7O19
_chemical_formula_sum   'Tb8 H184 C192 N28 O76'
_cell_volume   7483.00536802
_cell_formula_units_Z   4
loop_
 _symmetry_equiv_pos_site_id
 _symmetry_equiv_pos_as_xyz
  1  'x, y, z'
loop_
 _atom_site_type_symbol
 _atom_site_label
 _atom_site_symmetry_multiplicity
 _atom_site_fract_x
 _atom_site_fract_y
 _atom_site_fract_z
 _atom_site_occupancy
 _atom_site_pbe_bader_charge
 _atom_site_pbe_bader_spin_density
 _atom_site_pbe_cm5_charge
 _atom_site_pbe_ddec_charge
 _atom_site_pbe_ddec_spin_density
 _atom_site_pbe_ddec_sum_bond_order
 _atom_site_pbe_magmom
Tb  Tb0  1  0.43605257  0.40177237  0.45666231  1  2.196634  0  1.52618  2.081937  0  2.191679  0
Tb  Tb1  1  0.47168878  0.86361367  0.38916634  1  2.177931  0  1.529079  2.047642  0  2.221681  0
Tb  Tb2  1  0.06395135  0.94510813  0.54334075  1  2.196719  0  1.526176  2.081824  0  2.191837  0
Tb  Tb3  1  0.02830992  0.47444773  0.61082952  1  2.177789  0  1.529081  2.047772  0  2.221459  0
Tb  Tb4  1  0.56394589  0.59823148  0.54334115  1  2.19666  0  1.526197  2.081887  0  2.191694  0
Tb  Tb5  1  0.52830863  0.13638423  0.61083554  1  2.177961  0  1.529113  2.047778  0  2.221494  0
Tb  Tb6  1  0.93605392  0.05489085  0.45666002  1  2.196816  0  1.526147  2.081817  0  2.191699  0
Tb  Tb7  1  0.97168961  0.52555222  0.38916191  1  2.177789  0  1.529056  2.047803  0  2.221368  0
H  H8  1  0.33544505  0.76033723  0.00346875  1  0.099377  0  0.108638  0.114405  0  0.993237  0
H  H9  1  0.37007377  0.86613562  0.11872214  1  0.034846  0  0.102271  0.092849  0  1.026673  0
H  H10  1  0.34873336  0.00405585  0.02444804  1  0.114662  0  0.108566  0.112459  0  0.994482  0
H  H11  1  0.31435296  0.89646313  0.90764038  1  0.068781  0  0.10706  0.103681  0  0.997029  0
H  H12  1  0.45950608  0.96567501  0.29285349  1  0.102566  0  0.105634  0.11812  0  1.048561  0
H  H13  1  0.50428611  0.18272412  0.46376429  1  0.15054  0  0.114786  0.129625  0  1.016473  0
H  H14  1  0.41432207  0.15039748  0.26484678  1  0.157394  0  0.109362  0.136736  0  1.026332  0
H  H15  1  0.39730911  0.69636867  0.70479471  1  0.092543  0  0.115955  0.133291  0  0.985675  0
H  H16  1  0.26669428  0.51653567  0.56450155  1  0.146125  0  0.117535  0.129412  0  1.004177  0
H  H17  1  0.19135669  0.67315751  0.77627081  1  0.074188  0  0.101367  0.109653  0  1.032149  0
H  H18  1  0.73069985  0.71548784  0.93487354  1  0.114975  0  0.116557  0.123123  0  0.980828  0
H  H19  1  0.73039603  0.51332716  0.93748891  1  0.019412  0  0.107159  0.103141  0  0.997609  0
H  H20  1  0.61556784  0.56125810  0.73720210  1  0.140495  0  0.112209  0.13176  0  1.017501  0
H  H21  1  0.52184092  0.35722798  0.58583870  1  0.166353  0  0.118562  0.134862  0  1.025393  0
H  H22  1  0.63171684  0.37531814  0.76976884  1  0.055727  0  0.103874  0.116421  0  1.007968  0
H  H23  1  0.47868972  0.74916491  0.08915341  1  0.073165  0  0.116167  0.12928  0  0.987852  0
H  H24  1  0.50380761  0.65681483  0.05659474  1  0.063966  0  0.105914  0.115458  0  0.975515  0
H  H25  1  0.56376444  0.71845593  0.05083624  1  0.068277  0  0.108042  0.120635  0  0.980286  0
H  H26  1  0.59087357  0.64742906  0.16628837  1  0.052209  0  0.106623  0.115894  0  0.977477  0
H  H27  1  0.64046401  0.72961683  0.20766364  1  0.112253  0  0.11535  0.137857  0  0.98656  0
H  H28  1  0.64052277  0.67335150  0.11125519  1  0.083891  0  0.099339  0.107903  0  1.035972  0
H  H29  1  0.47138546  0.81098134  0.20780268  1  0.133368  0  0.132279  0.064098  0  1.00162  0
H  H30  1  0.77495413  0.85573379  0.36781297  1  0.081568  0  0.105386  0.113552  0  1.022352  0
H  H31  1  0.80220064  0.81470340  0.41931065  1  0.047901  0  0.100673  0.113938  0  0.996201  0
H  H32  1  0.80756987  0.91132756  0.45700580  1  0.146089  0  0.114116  0.149956  0  1.010927  0
H  H33  1  0.64719853  0.90700081  0.54541873  1  0.096358  0  0.114256  0.13588  0  0.998559  0
H  H34  1  0.73991161  0.90182312  0.55444229  1  0.073415  0  0.109305  0.125361  0  1.001328  0
H  H35  1  0.68780266  0.82080038  0.51430652  1  0.068684  0  0.107661  0.121266  0  0.974268  0
H  H36  1  0.66423788  0.86192452  0.35735299  1  0.059416  0  0.123579  0.038855  0  0.998846  0
H  H37  1  0.38820962  0.29137136  0.64712464  1  0.098832  0  0.115596  0.136829  0  1.015802  0
H  H38  1  0.29678005  0.28256345  0.66088688  1  0.047489  0  0.099359  0.10731  0  1.011086  0
H  H39  1  0.34226034  0.36349979  0.72196316  1  0.036508  0  0.095222  0.09901  0  0.995582  0
H  H40  1  0.24748137  0.40911578  0.59440331  1  0.130612  0  0.119448  0.147735  0  1.000351  0
H  H41  1  0.24741702  0.43239434  0.68732122  1  0.06495  0  0.104525  0.118664  0  0.976503  0
H  H42  1  0.21092997  0.34818834  0.62120579  1  0.07368  0  0.102043  0.112699  0  1.001541  0
H  H43  1  0.41595172  0.32095173  0.56756613  1  0.147189  0  0.130382  0.061376  0  1.021084  0
H  H44  1  0.20689306  0.38802019  0.44890592  1  0.127205  0  0.121776  0.152459  0  0.984582  0
H  H45  1  0.14677218  0.31885039  0.39043223  1  0.049669  0  0.105767  0.120687  0  0.981144  0
H  H46  1  0.13893575  0.40886353  0.40477959  1  0.082505  0  0.106855  0.122709  0  1.020685  0
H  H47  1  0.23342722  0.31074609  0.22764353  1  0.079194  0  0.108841  0.126198  0  1.014735  0
H  H48  1  0.15221199  0.35426609  0.26700279  1  0.03707  0  0.101012  0.113584  0  0.993971  0
H  H49  1  0.16842468  0.26466891  0.25143128  1  0.016755  0  0.102844  0.113752  0  0.978742  0
H  H50  1  0.32444801  0.34026028  0.29994210  1  0.125722  0  0.134333  0.060932  0  0.96342  0
H  H51  1  0.34154123  0.79193129  0.81736126  1  0.442211  0  0.32375  0.278458  0  0.928632  0
H  H52  1  0.42027439  0.94852772  0.18660559  1  0.448066  0  0.312412  0.258431  0  0.971195  0
H  H53  1  0.65798266  0.49616713  0.86337507  1  0.435732  0  0.315839  0.264117  0  0.955139  0
H  H54  1  0.16455559  0.75686946  0.99653300  1  0.10067  0  0.108642  0.11441  0  0.993211  0
H  H55  1  0.12992573  0.74741610  0.88128010  1  0.030771  0  0.102259  0.092842  0  1.026749  0
H  H56  1  0.15126458  0.97960923  0.97555351  1  0.114295  0  0.108563  0.112472  0  0.994401  0
H  H57  1  0.18564633  0.98882209  0.09235955  1  0.066365  0  0.10707  0.103713  0  0.997032  0
H  H58  1  0.04049708  0.67282071  0.70714618  1  0.107345  0  0.105624  0.118125  0  1.048528  0
H  H59  1  0.99571611  0.71896012  0.53623661  1  0.149498  0  0.114785  0.129644  0  1.016457  0
H  H60  1  0.08567897  0.88554989  0.73515399  1  0.14874  0  0.109356  0.136717  0  1.026387  0
H  H61  1  0.10269192  0.99157305  0.29520471  1  0.108821  0  0.115936  0.133272  0  0.98571  0
H  H62  1  0.23330901  0.95203530  0.43549919  1  0.133446  0  0.117507  0.129376  0  1.004233  0
H  H63  1  0.30864391  0.89688585  0.22372807  1  0.077134  0  0.101377  0.109678  0  1.032118  0
H  H64  1  0.76929875  0.78061483  0.06512366  1  0.118319  0  0.116563  0.123116  0  0.980797  0
H  H65  1  0.76960551  0.57583916  0.06251102  1  0.015137  0  0.107176  0.10318  0  0.997586  0
H  H66  1  0.88443189  0.82406014  0.26279927  1  0.140615  0  0.112199  0.131767  0  1.01751  0
H  H67  1  0.97816165  0.77138977  0.41415769  1  0.172433  0  0.118561  0.134864  0  1.025405  0
H  H68  1  0.86828270  0.60555226  0.23023142  1  0.068847  0  0.103905  0.116417  0  1.008004  0
H  H69  1  0.02131049  0.66000877  0.91084725  1  0.069846  0  0.116188  0.129341  0  0.987851  0
H  H70  1  0.99619379  0.60022022  0.94340878  1  0.051747  0  0.10594  0.115504  0  0.97545  0
H  H71  1  0.93623634  0.66761776  0.94916302  1  0.075819  0  0.108029  0.120612  0  0.980304  0
H  H72  1  0.90912741  0.48113748  0.83371293  1  0.063505  0  0.106651  0.115871  0  0.977457  0
H  H73  1  0.85953950  0.52195082  0.79233684  1  0.099924  0  0.115388  0.137865  0  0.98659  0
H  H74  1  0.85947866  0.56209452  0.88874530  1  0.04763  0  0.099347  0.10788  0  1.035977  0
H  H75  1  0.02861526  0.60317660  0.79219804  1  0.141339  0  0.132281  0.064098  0  1.001607  0
H  H76  1  0.72504668  0.48792288  0.63218750  1  0.044819  0  0.105421  0.113604  0  1.022309  0
H  H77  1  0.69779871  0.39539530  0.58069078  1  0.05336  0  0.100678  0.113937  0  0.99617  0
H  H78  1  0.69243040  0.45432381  0.54299515  1  0.135175  0  0.114107  0.149977  0  1.010881  0
H  H79  1  0.85279973  0.36158205  0.45457932  1  0.096392  0  0.11426  0.135884  0  0.99855  0
H  H80  1  0.76008614  0.34738187  0.44555710  1  0.081687  0  0.109324  0.125395  0  1.001288  0
H  H81  1  0.81219572  0.30649335  0.48569134  1  0.069223  0  0.107671  0.121242  0  0.974267  0
H  H82  1  0.83576396  0.50457122  0.64264754  1  0.063721  0  0.123599  0.038869  0  0.998816  0
H  H83  1  0.11179203  0.64424531  0.35287296  1  0.108  0  0.11556  0.136778  0  1.015898  0
H  H84  1  0.20321953  0.62167552  0.33911083  1  0.04727  0  0.099359  0.107309  0  1.01106  0
H  H85  1  0.15774020  0.64153499  0.27803520  1  0.027057  0  0.095242  0.09906  0  0.995609  0
H  H86  1  0.25251742  0.81470992  0.40559487  1  0.08966  0  0.119408  0.147648  0  1.000507  0
H  H87  1  0.25258233  0.74507276  0.31267763  1  0.051293  0  0.104528  0.118647  0  0.976553  0
H  H88  1  0.28906842  0.72698272  0.37879262  1  0.072501  0  0.102026  0.112685  0  1.001526  0
H  H89  1  0.08404982  0.75338432  0.43243278  1  0.142351  0  0.130382  0.061382  0  1.021081  0
H  H90  1  0.29310512  0.93911492  0.55109505  1  0.134767  0  0.121801  0.152473  0  0.98464  0
H  H91  1  0.35322711  0.92841992  0.60956930  1  0.044813  0  0.105774  0.120701  0  0.981163  0
H  H92  1  0.36106371  0.00408368  0.59521956  1  0.083983  0  0.106863  0.122711  0  1.02068  0
H  H93  1  0.26657486  0.08310584  0.77235940  1  0.079055  0  0.108846  0.126216  0  1.014715  0
H  H94  1  0.34779058  0.08726392  0.73299784  1  0.037598  0  0.101015  0.113603  0  0.99402  0
H  H95  1  0.33157594  0.01323914  0.74856793  1  0.033316  0  0.102848  0.113802  0  0.978715  0
H  H96  1  0.17555252  0.04032103  0.70005978  1  0.110215  0  0.134386  0.060987  0  0.963411  0
H  H97  1  0.15845868  0.97457011  0.18263997  1  0.441048  0  0.323737  0.278424  0  0.928763  0
H  H98  1  0.07972661  0.76192319  0.81339430  1  0.444336  0  0.312438  0.258544  0  0.971216  0
H  H99  1  0.84201571  0.63279318  0.13662704  1  0.453245  0  0.315855  0.264158  0  0.955325  0
H  H100  1  0.66455760  0.23966473  0.99653282  1  0.099415  0  0.108617  0.114399  0  0.99322  0
H  H101  1  0.62992678  0.13386533  0.88127951  1  0.034879  0  0.102233  0.092754  0  1.026746  0
H  H102  1  0.65126563  0.99594490  0.97555288  1  0.11463  0  0.108558  0.112473  0  0.994409  0
H  H103  1  0.68564603  0.10353743  0.09235980  1  0.068782  0  0.107055  0.103675  0  0.997053  0
H  H104  1  0.54049553  0.03432542  0.70714494  1  0.102544  0  0.105618  0.118095  0  1.048542  0
H  H105  1  0.49571550  0.81727733  0.53623407  1  0.150616  0  0.114773  0.129635  0  1.016479  0
H  H106  1  0.58567745  0.84960288  0.73515266  1  0.157419  0  0.109345  0.136705  0  1.02632  0
H  H107  1  0.60269302  0.30363153  0.29520674  1  0.092586  0  0.115959  0.133351  0  0.985745  0
H  H108  1  0.73330627  0.48346603  0.43550030  1  0.146122  0  0.117486  0.129363  0  1.004238  0
H  H109  1  0.80864387  0.32684473  0.22373050  1  0.074152  0  0.101394  0.109692  0  1.032105  0
H  H110  1  0.26929914  0.28450907  0.06512464  1  0.114774  0  0.116555  0.123125  0  0.980781  0
H  H111  1  0.26960557  0.48667190  0.06251087  1  0.019443  0  0.107206  0.103247  0  0.997562  0
H  H112  1  0.38443272  0.43874108  0.26279942  1  0.140483  0  0.112166  0.131874  0  1.017557  0
H  H113  1  0.47816226  0.64277014  0.41416014  1  0.166485  0  0.118565  0.134861  0  1.025419  0
H  H114  1  0.36828424  0.62468010  0.23023175  1  0.055789  0  0.10389  0.116416  0  1.007986  0
H  H115  1  0.52130875  0.25083768  0.91084663  1  0.072769  0  0.116214  0.129343  0  0.987871  0
H  H116  1  0.49619138  0.34318741  0.94340658  1  0.064369  0  0.1059  0.115416  0  0.975527  0
H  H117  1  0.43623403  0.28154498  0.94916266  1  0.068446  0  0.108052  0.120653  0  0.980276  0
H  H118  1  0.40912751  0.35257247  0.83370898  1  0.052035  0  0.106643  0.115903  0  0.977431  0
H  H119  1  0.35953760  0.27038415  0.79233425  1  0.112297  0  0.115361  0.137844  0  0.986543  0
H  H120  1  0.35947780  0.32665031  0.88874189  1  0.083956  0  0.09934  0.107924  0  1.035979  0
H  H121  1  0.52861457  0.18902157  0.79219984  1  0.133395  0  0.132267  0.064071  0  1.001599  0
H  H122  1  0.22504643  0.14426488  0.63218533  1  0.081598  0  0.10539  0.113552  0  1.022375  0
H  H123  1  0.19779940  0.18529567  0.58068913  1  0.047911  0  0.100689  0.113947  0  0.996183  0
H  H124  1  0.19242965  0.08867178  0.54299371  1  0.146006  0  0.114106  0.149934  0  1.010915  0
H  H125  1  0.35279994  0.09299794  0.45457857  1  0.096344  0  0.11426  0.13585  0  0.998579  0
H  H126  1  0.26008686  0.09817658  0.44555595  1  0.073368  0  0.109342  0.125395  0  1.001313  0
H  H127  1  0.31219633  0.17919911  0.48569097  1  0.068795  0  0.107674  0.121264  0  0.974261  0
H  H128  1  0.33576163  0.13807639  0.64264591  1  0.059475  0  0.123581  0.038903  0  0.998849  0
H  H129  1  0.61179250  0.70862673  0.35287796  1  0.099229  0  0.115625  0.136869  0  1.015871  0
H  H130  1  0.70321945  0.71743593  0.33911539  1  0.047436  0  0.099403  0.107404  0  1.011083  0
H  H131  1  0.65774074  0.63650081  0.27803977  1  0.036574  0  0.095239  0.099036  0  0.995479  0
H  H132  1  0.75252286  0.59088363  0.40559518  1  0.130589  0  0.119432  0.14772  0  1.000466  0
H  H133  1  0.75258459  0.56760574  0.31267849  1  0.064846  0  0.104525  0.118656  0  0.976549  0
H  H134  1  0.78907164  0.65181025  0.37879352  1  0.073672  0  0.102015  0.112647  0  1.001609  0
H  H135  1  0.58405094  0.67904522  0.43243480  1  0.1473  0  0.130403  0.06137  0  1.021132  0
H  H136  1  0.79310278  0.61198202  0.55109916  1  0.127325  0  0.121776  0.15238  0  0.984722  0
H  H137  1  0.85322470  0.68115068  0.60957118  1  0.049443  0  0.105795  0.120748  0  0.981134  0
H  H138  1  0.86106166  0.59113875  0.59522449  1  0.082537  0  0.106847  0.122747  0  1.020668  0
H  H139  1  0.76657489  0.68925799  0.77236341  1  0.07914  0  0.10882  0.126217  0  1.014705  0
H  H140  1  0.84779013  0.64573607  0.73299953  1  0.036856  0  0.101021  0.113623  0  0.994015  0
H  H141  1  0.83157692  0.73533184  0.74856964  1  0.016606  0  0.102854  0.113764  0  0.978803  0
H  H142  1  0.67555201  0.65974318  0.70006640  1  0.125522  0  0.134396  0.061035  0  0.963358  0
H  H143  1  0.65845933  0.20807040  0.18264059  1  0.442335  0  0.32374  0.278483  0  0.928526  0
H  H144  1  0.57972669  0.05147135  0.81339419  1  0.448025  0  0.312385  0.25842  0  0.971297  0
H  H145  1  0.34201633  0.50383503  0.13662725  1  0.435769  0  0.31587  0.264134  0  0.955139  0
H  H146  1  0.83544235  0.24313035  0.00346698  1  0.10067  0  0.108656  0.114437  0  0.9932  0
H  H147  1  0.87007221  0.25258520  0.11872028  1  0.030753  0  0.102238  0.092795  0  1.026719  0
H  H148  1  0.84873441  0.02039090  0.02444896  1  0.114267  0  0.108602  0.112491  0  0.99444  0
H  H149  1  0.81435318  0.01117541  0.90764084  1  0.066408  0  0.107059  0.103695  0  0.997034  0
H  H150  1  0.95950296  0.32718180  0.29285487  1  0.107305  0  0.1056  0.118092  0  1.048482  0
H  H151  1  0.00428444  0.28104239  0.46376443  1  0.149481  0  0.1148  0.12966  0  1.016435  0
H  H152  1  0.91432211  0.11445328  0.26484825  1  0.149036  0  0.109337  0.136687  0  1.026398  0
H  H153  1  0.89730655  0.00842339  0.70479300  1  0.108785  0  0.115981  0.133376  0  0.985713  0
H  H154  1  0.76669050  0.04796079  0.56449980  1  0.133384  0  0.117538  0.129418  0  1.00419  0
H  H155  1  0.69135508  0.10311209  0.77627003  1  0.077124  0  0.101386  0.109659  0  1.032202  0
H  H156  1  0.23070024  0.21938459  0.93487484  1  0.118315  0  0.116563  0.123143  0  0.980793  0
H  H157  1  0.23039661  0.42416092  0.93748868  1  0.015129  0  0.107177  0.103168  0  0.997589  0
H  H158  1  0.11556710  0.17594203  0.73720306  1  0.140632  0  0.112167  0.131702  0  1.017476  0
H  H159  1  0.02183787  0.22861012  0.58584128  1  0.172398  0  0.118565  0.134842  0  1.025416  0
H  H160  1  0.13171786  0.39444865  0.76976748  1  0.06884  0  0.103865  0.116416  0  1.007993  0
H  H161  1  0.97868797  0.33999488  0.08915547  1  0.069895  0  0.116206  0.129369  0  0.987857  0
H  H162  1  0.00380467  0.39978370  0.05659367  1  0.051704  0  0.10594  0.115496  0  0.975444  0
H  H163  1  0.06376212  0.33238503  0.05083776  1  0.075907  0  0.10803  0.120632  0  0.980396  0
H  H164  1  0.09087419  0.51886288  0.16628651  1  0.0635  0  0.106653  0.115891  0  0.977438  0
H  H165  1  0.14046264  0.47804934  0.20766186  1  0.099958  0  0.115384  0.137862  0  0.986558  0
H  H166  1  0.14052086  0.43790584  0.11125414  1  0.047637  0  0.099363  0.107926  0  1.03593  0
H  H167  1  0.97138425  0.39682713  0.20780367  1  0.14137  0  0.132241  0.064053  0  1.001696  0
H  H168  1  0.27495073  0.51207807  0.36781416  1  0.04487  0  0.10539  0.113562  0  1.022358  0
H  H169  1  0.30219975  0.60460518  0.41931041  1  0.053595  0  0.100688  0.113956  0  0.996152  0
H  H170  1  0.30756963  0.54567639  0.45700631  1  0.135264  0  0.114087  0.149953  0  1.010872  0
H  H171  1  0.14720134  0.63841996  0.54542501  1  0.09555  0  0.114251  0.135834  0  0.998597  0
H  H172  1  0.23991493  0.65261771  0.55444590  1  0.08159  0  0.109292  0.125359  0  1.001365  0
H  H173  1  0.18780588  0.69350838  0.51431327  1  0.069389  0  0.107693  0.121277  0  0.974307  0
H  H174  1  0.16423450  0.49543384  0.35735658  1  0.063907  0  0.123546  0.038825  0  0.998923  0
H  H175  1  0.88820697  0.35574691  0.64712054  1  0.107955  0  0.115607  0.136752  0  1.015909  0
H  H176  1  0.79677947  0.37832014  0.66088393  1  0.047436  0  0.099344  0.107275  0  1.011092  0
H  H177  1  0.84225932  0.35846012  0.72196009  1  0.027115  0  0.095257  0.099042  0  0.995417  0
H  H178  1  0.74747685  0.18528732  0.59440581  1  0.089692  0  0.119439  0.147738  0  1.000429  0
H  H179  1  0.74741561  0.25492603  0.68732243  1  0.051287  0  0.104517  0.118647  0  0.976577  0
H  H180  1  0.71092742  0.27301608  0.62120744  1  0.07245  0  0.102  0.112623  0  1.001563  0
H  H181  1  0.91594761  0.24660793  0.56756348  1  0.142513  0  0.130428  0.061382  0  1.021191  0
H  H182  1  0.70689650  0.06088399  0.44890022  1  0.134858  0  0.121756  0.152357  0  0.984697  0
H  H183  1  0.64677346  0.07158005  0.39042866  1  0.044779  0  0.105792  0.120735  0  0.981179  0
H  H184  1  0.63893685  0.99591656  0.40477812  1  0.083936  0  0.106843  0.122728  0  1.020678  0
H  H185  1  0.73342151  0.91689347  0.22763736  1  0.079467  0  0.108828  0.126236  0  1.014652  0
H  H186  1  0.65220736  0.91273672  0.26700133  1  0.037546  0  0.101036  0.113663  0  0.994041  0
H  H187  1  0.66842044  0.98676064  0.25142930  1  0.03312  0  0.102844  0.113788  0  0.978691  0
H  H188  1  0.82444596  0.95967654  0.29993308  1  0.110102  0  0.134379  0.060999  0  0.963367  0
H  H189  1  0.84154188  0.02542774  0.81735915  1  0.441019  0  0.323716  0.27841  0  0.92871  0
H  H190  1  0.92027133  0.23807932  0.18660675  1  0.444291  0  0.312465  0.258515  0  0.971114  0
H  H191  1  0.15798485  0.36720737  0.86337314  1  0.453243  0  0.315854  0.264156  0  0.955333  0
C  C192  1  0.32612322  0.82022538  0.94716908  1  -0.010934  0  -0.012645  -0.028889  0  3.988721  0
C  C193  1  0.34193574  0.81333011  0.00759198  1  -0.005691  0  -0.080881  -0.083924  0  3.977248  0
C  C194  1  0.36143039  0.87377311  0.07231863  1  -0.064852  0  -0.091742  -0.124587  0  4.015316  0
C  C195  1  0.36439581  0.94295794  0.07870454  1  -0.045993  0  -0.014524  -0.028399  0  3.984068  0
C  C196  1  0.34809526  0.94977240  0.01820140  1  -0.037475  0  -0.081094  -0.088311  0  3.964975  0
C  C197  1  0.32957158  0.88909811  0.95292863  1  -0.057895  0  -0.084794  -0.109364  0  3.989226  0
C  C198  1  0.38096183  0.01176518  0.14785201  1  1.394846  0  0.23318  0.465137  0  4.14223  0
C  C199  1  0.30178115  0.75307872  0.88096269  1  1.37597  0  0.234381  0.47151  0  4.143074  0
C  C200  1  0.43561886  0.05202194  0.26931716  1  0.384194  0  0.090471  0.237959  0  4.048026  0
C  C201  1  0.46113383  0.02399198  0.31218334  1  -0.045526  0  -0.090117  -0.200291  0  3.932975  0
C  C202  1  0.48618793  0.07055432  0.38177617  1  0.0175  0  -0.019866  -0.04507  0  4.0126  0
C  C203  1  0.48587058  0.14580221  0.40919806  1  -0.046824  0  -0.074477  -0.115956  0  3.917787  0
C  C204  1  0.45999888  0.17343568  0.36644604  1  -0.029117  0  -0.015446  -0.009024  0  3.986123  0
C  C205  1  0.43471487  0.12737256  0.29665259  1  -0.10467  0  -0.081863  -0.176038  0  3.880147  0
C  C206  1  0.51146277  0.03943809  0.42726677  1  1.619534  0  0.245681  0.667784  0  4.150942  0
C  C207  1  0.45704569  0.25394969  0.39635613  1  1.562866  0  0.184721  0.566374  0  4.243882  0
C  C208  1  0.29542336  0.69229998  0.74870020  1  0.320784  0  0.086888  0.229379  0  4.063155  0
C  C209  1  0.34722531  0.66828249  0.69530807  1  -0.001984  0  -0.07888  -0.179267  0  3.917813  0
C  C210  1  0.33669184  0.60501045  0.62902161  1  0.018193  0  -0.01343  -0.024737  0  3.982656  0
C  C211  1  0.27404888  0.56648836  0.61576168  1  -0.081206  0  -0.07102  -0.109267  0  3.918134  0
C  C212  1  0.22125387  0.59194269  0.66842274  1  -0.022174  0  -0.016667  -0.022184  0  3.985771  0
C  C213  1  0.23210619  0.65465370  0.73517498  1  0.011424  0  -0.079566  -0.161363  0  3.914216  0
C  C214  1  0.15320345  0.55219281  0.65265874  1  1.541331  0  0.192839  0.579714  0  4.214525  0
C  C215  1  0.39475792  0.57627181  0.57410178  1  1.606478  0  0.231263  0.638928  0  4.185783  0
C  C216  1  0.72640334  0.61102905  0.92795241  1  -0.032472  0  -0.012677  -0.030743  0  4.005714  0
C  C217  1  0.73896150  0.68618330  0.96421401  1  -0.085584  0  -0.075424  -0.091548  0  3.959872  0
C  C218  1  0.73800414  0.57215079  0.96446112  1  -0.004425  0  -0.091693  -0.126237  0  4.026393  0
C  C219  1  0.70212959  0.57673113  0.85084825  1  1.418812  0  0.235196  0.461516  0  4.16153  0
C  C220  1  0.62776651  0.47382877  0.76172093  1  0.218675  0  0.082949  0.223211  0  4.069365  0
C  C221  1  0.60411336  0.50500783  0.72114968  1  0.015741  0  -0.081003  -0.177794  0  3.908832  0
C  C222  1  0.56518419  0.46295038  0.65847609  1  0.006975  0  -0.007147  -0.006842  0  3.941784  0
C  C223  1  0.55018060  0.39017118  0.63602056  1  -0.025444  0  -0.070493  -0.113573  0  3.889164  0
C  C224  1  0.57380697  0.35934537  0.67687261  1  -0.047213  0  -0.018946  -0.011486  0  4.00755  0
C  C225  1  0.61298453  0.40100406  0.73942721  1  0.011743  0  -0.094289  -0.211907  0  3.968528  0
C  C226  1  0.54074126  0.49654792  0.61440900  1  1.606591  0  0.229724  0.642653  0  4.168286  0
C  C227  1  0.55754828  0.28194837  0.65481502  1  1.564611  0  0.183882  0.553793  0  4.26897  0
C  C228  1  0.52245196  0.71344843  0.08422014  1  0.257874  0  -0.119818  -0.269221  0  3.932414  0
C  C229  1  0.60879274  0.69369433  0.16048618  1  0.226307  0  -0.130218  -0.266134  0  3.895868  0
C  C230  1  0.51850425  0.78588292  0.21608796  1  1.373487  0  0.191882  0.322335  0  4.084156  0
C  C231  1  0.77653252  0.86264436  0.42231039  1  0.209987  0  -0.134025  -0.290758  0  3.901722  0
C  C232  1  0.69452513  0.87509474  0.52020048  1  0.233743  0  -0.12607  -0.258504  0  3.860659  0
C  C233  1  0.65048738  0.86673740  0.41001859  1  1.414776  0  0.187396  0.321511  0  4.124686  0
C  C234  1  0.33810797  0.32053407  0.66479265  1  0.265929  0  -0.131415  -0.278895  0  3.935713  0
C  C235  1  0.25290106  0.38756263  0.63130965  1  0.206617  0  -0.13133  -0.266428  0  3.887605  0
C  C236  1  0.36756563  0.35158322  0.57246191  1  1.352333  0  0.186116  0.318535  0  4.082065  0
C  C237  1  0.17632270  0.36710711  0.39926300  1  0.241557  0  -0.132355  -0.271355  0  3.866786  0
C  C238  1  0.19293668  0.31751227  0.26710528  1  0.333093  0  -0.12896  -0.27592  0  3.94439  0
C  C239  1  0.29283128  0.35730903  0.34931034  1  1.378774  0  0.193591  0.334147  0  4.083225  0
C  C240  1  0.17387780  0.87305735  0.05283234  1  -0.031418  0  -0.012714  -0.028975  0  3.988786  0
C  C241  1  0.15806429  0.80573913  0.99240948  1  -0.051374  0  -0.080884  -0.083862  0  3.977201  0
C  C242  1  0.13856802  0.80145588  0.92768442  1  -0.001116  0  -0.091742  -0.12469  0  4.015336  0
C  C243  1  0.13560145  0.86425557  0.92129647  1  -0.054261  0  -0.014503  -0.028451  0  3.983976  0
C  C244  1  0.15190298  0.93157398  0.98180180  1  -0.074672  0  -0.081077  -0.088176  0  3.964792  0
C  C245  1  0.17042880  0.93617187  0.04707457  1  -0.011617  0  -0.084754  -0.109413  0  3.989189  0
C  C246  1  0.11903673  0.86391400  0.85214760  1  1.395919  0  0.233236  0.465346  0  4.141996  0
C  C247  1  0.19821940  0.87211723  0.11903675  1  1.396488  0  0.234329  0.471422  0  4.143193  0
C  C248  1  0.06438287  0.78270304  0.73068310  1  0.325825  0  0.090588  0.238086  0  4.048047  0
C  C249  1  0.03887007  0.71180822  0.68781624  1  -0.056822  0  -0.090106  -0.200244  0  3.932942  0
C  C250  1  0.01381490  0.68877774  0.61822357  1  0.002009  0  -0.019918  -0.045134  0  4.012712  0
C  C251  1  0.01413163  0.73660469  0.59080264  1  -0.033342  0  -0.074418  -0.115966  0  3.917935  0
C  C252  1  0.04000325  0.80698849  0.63355472  1  -0.087854  0  -0.015389  -0.008834  0  3.986287  0
C  C253  1  0.06528833  0.83071897  0.70334768  1  0.031409  0  -0.081971  -0.17619  0  3.880142  0
C  C254  1  0.98853914  0.61217332  0.57273210  1  1.603005  0  0.245675  0.667752  0  4.15096  0
C  C255  1  0.04295790  0.85759103  0.60364393  1  1.571255  0  0.184628  0.566106  0  4.244258  0
C  C256  1  0.20457718  0.94359979  0.25129944  1  0.312003  0  0.086927  0.229456  0  4.063019  0
C  C257  1  0.15277470  0.97297334  0.30469175  1  0.025878  0  -0.078868  -0.179241  0  3.917913  0
C  C258  1  0.16330874  0.97598828  0.37097887  1  -0.030244  0  -0.013492  -0.024904  0  3.982787  0
C  C259  1  0.22595333  0.95072553  0.38423855  1  -0.063896  0  -0.070917  -0.109132  0  3.918099  0
C  C260  1  0.27874781  0.92351858  0.33157711  1  -0.004974  0  -0.016686  -0.022201  0  3.985912  0
C  C261  1  0.26789440  0.91947743  0.26482458  1  0.011712  0  -0.079631  -0.161518  0  3.914264  0
C  C262  1  0.34679934  0.89953027  0.34733955  1  1.540935  0  0.192883  0.579857  0  4.2145  0
C  C263  1  0.10524192  0.00216839  0.42589878  1  1.603327  0  0.23135  0.639103  0  4.185872  0
C  C264  1  0.77359594  0.68307774  0.07204744  1  -0.024101  0  -0.012603  -0.030546  0  4.005564  0
C  C265  1  0.76103821  0.72196847  0.03578355  1  -0.029939  0  -0.075522  -0.09176  0  3.959907  0
C  C266  1  0.76199838  0.60769110  0.03553910  1  -0.052611  0  -0.091733  -0.126322  0  4.026341  0
C  C267  1  0.79786812  0.72588542  0.14915199  1  1.419041  0  0.235212  0.46144  0  4.161188  0
C  C268  1  0.87223181  0.71211111  0.23828235  1  0.226845  0  0.082968  0.223208  0  4.06926  0
C  C269  1  0.89588488  0.78386067  0.27885114  1  -0.015147  0  -0.08102  -0.177852  0  3.908809  0
C  C270  1  0.93481669  0.80447547  0.34152257  1  -0.00226  0  -0.007197  -0.006875  0  3.94176  0
C  C271  1  0.94982090  0.75415264  0.36397882  1  -0.042397  0  -0.070366  -0.113355  0  3.888968  0
C  C272  1  0.92619409  0.68247381  0.32312537  1  -0.013055  0  -0.018964  -0.011666  0  4.007963  0
C  C273  1  0.88701389  0.66157912  0.26057285  1  -0.013293  0  -0.094251  -0.211711  0  3.968556  0
C  C274  1  0.95925796  0.88213776  0.38559052  1  1.624052  0  0.229645  0.64257  0  4.168278  0
C  C275  1  0.94245081  0.62713570  0.34518327  1  1.555385  0  0.183892  0.553893  0  4.268956  0
C  C276  1  0.97754938  0.62922529  0.91578059  1  0.262143  0  -0.119849  -0.269316  0  3.93236  0
C  C277  1  0.89120974  0.53320573  0.83951424  1  0.265751  0  -0.130319  -0.266116  0  3.896029  0
C  C278  1  0.98149708  0.56979180  0.78391345  1  1.362105  0  0.191814  0.322247  0  4.084192  0
C  C279  1  0.72346780  0.44033587  0.57769054  1  0.250355  0  -0.134059  -0.290837  0  3.901626  0
C  C280  1  0.80547368  0.35489585  0.47979913  1  0.227281  0  -0.126097  -0.258498  0  3.860632  0
C  C281  1  0.84951345  0.45671625  0.58998051  1  1.424739  0  0.18737  0.321579  0  4.124626  0
C  C282  1  0.16189207  0.65574026  0.33520534  1  0.270545  0  -0.131392  -0.278894  0  3.935684  0
C  C283  1  0.24709780  0.75625243  0.36868769  1  0.263943  0  -0.131262  -0.266328  0  3.887694  0
C  C284  1  0.13243533  0.77912005  0.42753786  1  1.366679  0  0.186105  0.318485  0  4.082048  0
C  C285  1  0.32367600  0.96784503  0.60073727  1  0.226915  0  -0.132406  -0.271424  0  3.866989  0
C  C286  1  0.30706438  0.05040928  0.73289545  1  0.316095  0  -0.129041  -0.276117  0  3.944455  0
C  C287  1  0.20716716  0.00800252  0.65069212  1  1.40159  0  0.193483  0.33401  0  4.083147  0
C  C288  1  0.67387996  0.17977611  0.05283202  1  -0.011373  0  -0.012594  -0.028814  0  3.988651  0
C  C289  1  0.65806586  0.18667193  0.99240859  1  -0.005756  0  -0.080873  -0.08393  0  3.977141  0
C  C290  1  0.63857174  0.12622811  0.92768274  1  -0.064819  0  -0.091673  -0.124404  0  4.015263  0
C  C291  1  0.63560528  0.05704195  0.92129443  1  -0.04591  0  -0.014538  -0.02857  0  3.984106  0
C  C292  1  0.65190373  0.05022910  0.98179972  1  -0.037535  0  -0.081103  -0.088267  0  3.964828  0
C  C293  1  0.67042845  0.11090331  0.04707350  1  -0.057767  0  -0.08478  -0.109381  0  3.98913  0
C  C294  1  0.61904135  0.98823431  0.85214548  1  1.394586  0  0.233181  0.465244  0  4.142038  0
C  C295  1  0.69822151  0.24692054  0.11903783  1  1.376446  0  0.234355  0.471455  0  4.143224  0
C  C296  1  0.56438484  0.94797876  0.73068099  1  0.384362  0  0.090563  0.237918  0  4.048199  0
C  C297  1  0.53887040  0.97600724  0.68781441  1  -0.045488  0  -0.090088  -0.200118  0  3.932966  0
C  C298  1  0.51381420  0.92944666  0.61822171  1  0.017448  0  -0.019877  -0.045169  0  4.01269  0
C  C299  1  0.51413155  0.85419748  0.59080017  1  -0.046913  0  -0.074438  -0.115955  0  3.917947  0
C  C300  1  0.54000273  0.82656549  0.63355258  1  -0.029059  0  -0.015426  -0.008973  0  3.986226  0
C  C301  1  0.56528726  0.87262760  0.70334611  1  -0.104651  0  -0.081859  -0.175995  0  3.880092  0
C  C302  1  0.48853675  0.96056038  0.57273079  1  1.619533  0  0.245662  0.667757  0  4.151074  0
C  C303  1  0.54295487  0.74605168  0.60364323  1  1.562803  0  0.184762  0.566384  0  4.243796  0
C  C304  1  0.70457772  0.30770023  0.25130126  1  0.32068  0  0.08693  0.229513  0  4.063076  0
C  C305  1  0.65277629  0.33171724  0.30469292  1  -0.002076  0  -0.078851  -0.179341  0  3.917842  0
C  C306  1  0.66330923  0.39498987  0.37098159  1  0.018243  0  -0.01349  -0.024844  0  3.982499  0
C  C307  1  0.72595273  0.43351462  0.38423982  1  -0.081272  0  -0.070933  -0.109208  0  3.918076  0
C  C308  1  0.77874668  0.40806064  0.33157749  1  -0.022164  0  -0.016737  -0.022224  0  3.98583  0
C  C309  1  0.76789436  0.34534705  0.26482593  1  0.01168  0  -0.079601  -0.161475  0  3.914183  0
C  C310  1  0.84679502  0.44781178  0.34733839  1  1.541306  0  0.192916  0.579968  0  4.214528  0
C  C311  1  0.60524106  0.42372852  0.42590143  1  1.606536  0  0.231378  0.639063  0  4.185711  0
C  C312  1  0.27359669  0.38896920  0.07204818  1  -0.032486  0  -0.012625  -0.030639  0  4.005408  0
C  C313  1  0.26103801  0.31381463  0.03578409  1  -0.085317  0  -0.075511  -0.091732  0  3.959874  0
C  C314  1  0.26199851  0.42784773  0.03553919  1  -0.004474  0  -0.091765  -0.126339  0  4.026233  0
C  C315  1  0.29787097  0.42326927  0.14915394  1  1.41886  0  0.235163  0.461467  0  4.161425  0
C  C316  1  0.37223300  0.52617061  0.23828134  1  0.218583  0  0.082956  0.223141  0  4.069371  0
C  C317  1  0.39588615  0.49499265  0.27885151  1  0.015729  0  -0.080988  -0.17803  0  3.909125  0
C  C318  1  0.43481585  0.53704924  0.34152315  1  0.006904  0  -0.007131  -0.006876  0  3.941917  0
C  C319  1  0.44982310  0.60982687  0.36397928  1  -0.025762  0  -0.070434  -0.113402  0  3.889008  0
C  C320  1  0.42619621  0.64065134  0.32312482  1  -0.047016  0  -0.018908  -0.01161  0  4.007827  0
C  C321  1  0.38701550  0.59899426  0.26057237  1  0.011754  0  -0.09425  -0.211713  0  3.968461  0
C  C322  1  0.45925563  0.50345459  0.38559205  1  1.606221  0  0.229701  0.642728  0  4.168346  0
C  C323  1  0.44245071  0.71804949  0.34518410  1  1.56468  0  0.183806  0.553784  0  4.268995  0
C  C324  1  0.47754703  0.28655444  0.91577963  1  0.257727  0  -0.119828  -0.269201  0  3.93244  0
C  C325  1  0.39120783  0.30630787  0.83951238  1  0.226306  0  -0.130224  -0.26609  0  3.895772  0
C  C326  1  0.48149631  0.21412053  0.78391401  1  1.373504  0  0.191864  0.322373  0  4.084158  0
C  C327  1  0.22346699  0.13735451  0.57768865  1  0.210037  0  -0.134042  -0.290745  0  3.901705  0
C  C328  1  0.30547438  0.12490393  0.47979782  1  0.233637  0  -0.126134  -0.258507  0  3.860743  0
C  C329  1  0.34951265  0.13326378  0.58998004  1  1.41476  0  0.187258  0.321328  0  4.124847  0
C  C330  1  0.66189311  0.67946551  0.33521036  1  0.265646  0  -0.131574  -0.279151  0  3.936062  0
C  C331  1  0.74710107  0.61243542  0.36869020  1  0.206681  0  -0.131327  -0.266354  0  3.887903  0
C  C332  1  0.63243650  0.64841448  0.42753921  1  1.35222  0  0.186161  0.318612  0  4.082079  0
C  C333  1  0.82367419  0.63289490  0.60074135  1  0.241249  0  -0.132357  -0.271396  0  3.866959  0
C  C334  1  0.80706491  0.68248993  0.73289979  1  0.333273  0  -0.128993  -0.276081  0  3.944519  0
C  C335  1  0.70716507  0.64269498  0.65069763  1  1.378608  0  0.193456  0.333911  0  4.0832  0
C  C336  1  0.82612119  0.12694164  0.94716845  1  -0.031337  0  -0.012696  -0.028911  0  3.988658  0
C  C337  1  0.84193470  0.19426162  0.00759144  1  -0.051894  0  -0.080865  -0.083885  0  3.977066  0
C  C338  1  0.86142887  0.19854405  0.07231732  1  -0.000722  0  -0.091718  -0.124596  0  4.015379  0
C  C339  1  0.86439597  0.13574687  0.07870559  1  -0.053962  0  -0.014517  -0.028443  0  3.984084  0
C  C340  1  0.84809652  0.06842830  0.01820227  1  -0.074818  0  -0.081096  -0.088204  0  3.964939  0
C  C341  1  0.82957175  0.06382845  0.95292863  1  -0.011655  0  -0.084785  -0.109472  0  3.989227  0
C  C342  1  0.88096121  0.13608863  0.14785519  1  1.39584  0  0.233195  0.465212  0  4.141961  0
C  C343  1  0.80177958  0.12788082  0.88096310  1  1.396486  0  0.234338  0.471442  0  4.143114  0
C  C344  1  0.93561454  0.21729940  0.26931895  1  0.325869  0  0.090637  0.238082  0  4.047819  0
C  C345  1  0.96112943  0.28819488  0.31218702  1  -0.056806  0  -0.090064  -0.200161  0  3.932778  0
C  C346  1  0.98618670  0.31122477  0.38177747  1  0.002061  0  -0.019894  -0.045166  0  4.012559  0
C  C347  1  0.98586893  0.26339728  0.40919894  1  -0.033257  0  -0.074445  -0.115977  0  3.917885  0
C  C348  1  0.95999626  0.19301301  0.36644639  1  -0.088199  0  -0.01544  -0.00895  0  3.986274  0
C  C349  1  0.93471223  0.16928252  0.29665344  1  0.03122  0  -0.081921  -0.176092  0  3.880138  0
C  C350  1  0.01146456  0.38783082  0.42726731  1  1.603097  0  0.245763  0.667931  0  4.150962  0
C  C351  1  0.95704266  0.14240878  0.39635605  1  1.571526  0  0.184662  0.566187  0  4.244049  0
C  C352  1  0.79542181  0.05639779  0.74869995  1  0.312444  0  0.086837  0.229397  0  4.063228  0
C  C353  1  0.84722376  0.02702201  0.69530705  1  0.025814  0  -0.078857  -0.179349  0  3.917809  0
C  C354  1  0.83668973  0.02400499  0.62901731  1  -0.030486  0  -0.013483  -0.024875  0  3.98253  0
C  C355  1  0.77404566  0.04927017  0.61575896  1  -0.063818  0  -0.070991  -0.109153  0  3.918111  0
C  C356  1  0.72125223  0.07647637  0.66842020  1  -0.005118  0  -0.016655  -0.022303  0  3.985999  0
C  C357  1  0.73210407  0.08051812  0.73517495  1  0.011683  0  -0.079605  -0.161411  0  3.914311  0
C  C358  1  0.65320280  0.10046434  0.65265904  1  1.540877  0  0.19289  0.579916  0  4.214549  0
C  C359  1  0.89475759  0.99782426  0.57409895  1  1.603114  0  0.231259  0.638937  0  4.18578  0
C  C360  1  0.22640409  0.31692207  0.92795254  1  -0.024291  0  -0.012635  -0.030669  0  4.005603  0
C  C361  1  0.23896182  0.27803142  0.96421542  1  -0.029948  0  -0.075437  -0.091603  0  3.959962  0
C  C362  1  0.23800427  0.39230965  0.96446181  1  -0.052349  0  -0.091713  -0.126288  0  4.026298  0
C  C363  1  0.20213087  0.27411400  0.85084651  1  1.419049  0  0.235268  0.461563  0  4.161067  0
C  C364  1  0.12776822  0.28788984  0.76171931  1  0.22702  0  0.082931  0.223196  0  4.069242  0
C  C365  1  0.10411359  0.21613988  0.72114904  1  -0.015241  0  -0.080987  -0.17773  0  3.9087  0
C  C366  1  0.06518387  0.19552414  0.65847667  1  -0.002125  0  -0.007209  -0.006958  0  3.941822  0
C  C367  1  0.05017861  0.24584670  0.63602069  1  -0.042481  0  -0.070427  -0.113402  0  3.888988  0
C  C368  1  0.07380595  0.31752561  0.67687313  1  -0.012991  0  -0.018925  -0.011552  0  4.007646  0
C  C369  1  0.11298614  0.33842198  0.73942679  1  -0.013242  0  -0.094261  -0.211842  0  3.968487  0
C  C370  1  0.04074261  0.11786064  0.61440805  1  1.624052  0  0.229694  0.642689  0  4.168347  0
C  C371  1  0.05754871  0.37286509  0.65481388  1  1.555521  0  0.183976  0.553889  0  4.268801  0
C  C372  1  0.02244909  0.37077742  0.08422120  1  0.262126  0  -0.119829  -0.269318  0  3.932521  0
C  C373  1  0.10879134  0.46679463  0.16048519  1  0.265757  0  -0.130307  -0.266146  0  3.895827  0
C  C374  1  0.01850243  0.43021091  0.21608833  1  1.362468  0  0.191836  0.322243  0  4.084305  0
C  C375  1  0.27653171  0.55966481  0.42231139  1  0.249985  0  -0.134006  -0.290742  0  3.901615  0
C  C376  1  0.19452739  0.64510589  0.52020547  1  0.228313  0  -0.126139  -0.258517  0  3.860869  0
C  C377  1  0.15048501  0.54328693  0.41002174  1  1.424227  0  0.187372  0.321599  0  4.124947  0
C  C378  1  0.83810640  0.34425344  0.66478855  1  0.27045  0  -0.131538  -0.278943  0  3.935868  0
C  C379  1  0.75289805  0.24374422  0.63131077  1  0.263778  0  -0.13132  -0.266402  0  3.887874  0
C  C380  1  0.86756262  0.22087287  0.57245961  1  1.366522  0  0.186149  0.318526  0  4.08199  0
C  C381  1  0.67632405  0.03215482  0.39925894  1  0.226981  0  -0.132332  -0.271346  0  3.866948  0
C  C382  1  0.69293252  0.94959049  0.26710178  1  0.31582  0  -0.129012  -0.276206  0  3.944451  0
C  C383  1  0.79283183  0.99199842  0.34930301  1  1.401588  0  0.193506  0.333963  0  4.083224  0
N  N384  1  0.30879907  0.75400869  0.81707285  1  -1.222348  0  -0.404735  -0.39509  0  3.561607  0
N  N385  1  0.41242695  0.00101504  0.19964622  1  -1.262203  0  -0.399503  -0.36802  0  3.595334  0
N  N386  1  0.66376247  0.51458096  0.82788249  1  -1.247053  0  -0.400884  -0.3757  0  3.600265  0
N  N387  1  0.70542017  0.86972325  0.44986109  1  -1.204156  0  -0.276563  0.032584  0  3.710118  0
N  N388  1  0.32076326  0.35225782  0.62008965  1  -1.208305  0  -0.282946  0.023368  0  3.711987  0
N  N389  1  0.22347859  0.34824763  0.33860046  1  -1.239375  0  -0.284137  0.015358  0  3.728414  0
N  N390  1  0.54937527  0.73414591  0.15560687  1  -1.217669  0  -0.279829  0.025263  0  3.706693  0
N  N391  1  0.19120090  0.93693713  0.18292815  1  -1.239605  0  -0.40474  -0.395012  0  3.561622  0
N  N392  1  0.08757219  0.80136713  0.80035263  1  -1.254002  0  -0.399604  -0.368273  0  3.59553  0
N  N393  1  0.83623374  0.68669986  0.17211892  1  -1.259813  0  -0.400978  -0.375868  0  3.60027  0
N  N394  1  0.79457964  0.41986212  0.55013935  1  -1.218824  0  -0.276529  0.03259  0  3.710101  0
N  N395  1  0.17923669  0.73216786  0.37991003  1  -1.210932  0  -0.282963  0.023409  0  3.711858  0
N  N396  1  0.27652091  0.00965146  0.66140124  1  -1.230078  0  -0.284035  0.015492  0  3.728376  0
N  N397  1  0.95062766  0.57853470  0.84439420  1  -1.207209  0  -0.279723  0.025381  0  3.706835  0
N  N398  1  0.69120253  0.24599245  0.18292954  1  -1.222466  0  -0.404794  -0.395203  0  3.561519  0
N  N399  1  0.58757623  0.99898433  0.80034951  1  -1.262064  0  -0.399577  -0.368056  0  3.595344  0
N  N400  1  0.33623494  0.48542074  0.17211936  1  -1.247056  0  -0.400916  -0.375672  0  3.600209  0
N  N401  1  0.29457778  0.13027523  0.55013648  1  -1.204143  0  -0.276436  0.032694  0  3.710068  0
N  N402  1  0.67924096  0.64774313  0.37991199  1  -1.208305  0  -0.28288  0.023389  0  3.712129  0
N  N403  1  0.77652039  0.65175497  0.66140610  1  -1.238651  0  -0.284136  0.015442  0  3.728455  0
N  N404  1  0.45062477  0.26585640  0.84439343  1  -1.217717  0  -0.279832  0.025179  0  3.706831  0
N  N405  1  0.80879809  0.06306194  0.81707163  1  -1.239593  0  -0.404708  -0.39499  0  3.561579  0
N  N406  1  0.91242418  0.19863578  0.19964990  1  -1.253992  0  -0.399696  -0.368228  0  3.595205  0
N  N407  1  0.16376629  0.31330057  0.82787951  1  -1.259964  0  -0.400955  -0.375859  0  3.600317  0
N  N408  1  0.20542143  0.58014044  0.44986444  1  -1.218678  0  -0.276501  0.032564  0  3.710167  0
N  N409  1  0.82075759  0.26782867  0.62008668  1  -1.21074  0  -0.282873  0.023504  0  3.712062  0
N  N410  1  0.72347756  0.99034913  0.33859518  1  -1.22974  0  -0.284113  0.015518  0  3.728396  0
N  N411  1  0.04937132  0.42146746  0.15560812  1  -1.207595  0  -0.279763  0.02534  0  3.706884  0
O  O412  1  0.50740408  0.97088857  0.40079282  1  -1.228001  0  -0.423782  -0.705302  0  2.356542  0
O  O413  1  0.53705966  0.08245980  0.48881966  1  -1.201613  0  -0.410143  -0.664885  0  2.332536  0
O  O414  1  0.47943623  0.29599780  0.46036549  1  -1.184429  0  -0.382253  -0.634515  0  2.227798  0
O  O415  1  0.43043360  0.27890553  0.35809122  1  -1.175777  0  -0.39344  -0.637652  0  2.164539  0
O  O416  1  0.10359096  0.57607223  0.69932998  1  -1.196076  0  -0.378168  -0.649486  0  2.232609  0
O  O417  1  0.14545090  0.49464589  0.59093749  1  -1.17534  0  -0.397283  -0.635279  0  2.18295  0
O  O418  1  0.38399621  0.51562122  0.51711096  1  -1.205362  0  -0.403612  -0.68532  0  2.386314  0
O  O419  1  0.45004252  0.61369452  0.58847777  1  -1.181052  0  -0.387867  -0.648215  0  2.320925  0
O  O420  1  0.27690619  0.70087442  0.88420713  1  -1.128406  0  -0.305337  -0.482783  0  2.07869  0
O  O421  1  0.36719174  0.07230320  0.15559289  1  -1.116738  0  -0.303866  -0.477225  0  2.066366  0
O  O422  1  0.51188377  0.24742197  0.60568442  1  -1.186927  0  -0.378252  -0.628512  0  2.205297  0
O  O423  1  0.58929534  0.25199594  0.68592864  1  -1.186045  0  -0.384076  -0.638334  0  2.199706  0
O  O424  1  0.49771232  0.46033560  0.56389177  1  -1.20633  0  -0.397608  -0.696317  0  2.373118  0
O  O425  1  0.56578465  0.55813499  0.63030009  1  -1.179207  0  -0.377913  -0.639123  0  2.248593  0
O  O426  1  0.71567163  0.60462815  0.81314060  1  -1.133645  0  -0.290141  -0.477673  0  2.114226  0
O  O427  1  0.54055086  0.80461682  0.27814648  1  -1.171917  0  -0.348436  -0.54102  0  2.351024  0
O  O428  1  0.58836400  0.86859637  0.42938425  1  -1.177065  0  -0.365379  -0.544297  0  2.409909  0
O  O429  1  0.35755238  0.38167128  0.53554890  1  -1.165402  0  -0.347809  -0.528955  0  2.357785  0
O  O430  1  0.31966721  0.38344307  0.41040490  1  -1.161523  0  -0.356814  -0.527324  0  2.414595  0
O  O431  1  0.99259553  0.57009364  0.59920166  1  -1.223314  0  -0.423775  -0.70527  0  2.356548  0
O  O432  1  0.96293961  0.59364461  0.51118018  1  -1.192959  0  -0.410143  -0.664907  0  2.332445  0
O  O433  1  0.02056839  0.83563067  0.53963512  1  -1.186267  0  -0.382176  -0.634349  0  2.228049  0
O  O434  1  0.06956835  0.92081429  0.64190779  1  -1.180096  0  -0.393459  -0.637603  0  2.164632  0
O  O435  1  0.39641026  0.87674232  0.30066811  1  -1.201706  0  -0.378157  -0.649478  0  2.232576  0
O  O436  1  0.35455037  0.90369986  0.40905877  1  -1.17121  0  -0.39735  -0.635366  0  2.18293  0
O  O437  1  0.11600548  0.99850386  0.48288746  1  -1.202305  0  -0.403613  -0.685367  0  2.386358  0
O  O438  1  0.04995885  0.02521537  0.41152378  1  -1.184669  0  -0.387937  -0.648292  0  2.321064  0
O  O439  1  0.22309864  0.81667083  0.11579308  1  -1.132122  0  -0.305269  -0.482721  0  2.078831  0
O  O440  1  0.13280515  0.91671040  0.84440511  1  -1.1196  0  -0.303859  -0.477272  0  2.066376  0
O  O441  1  0.98811952  0.64173822  0.39431369  1  -1.182537  0  -0.378233  -0.628503  0  2.205089  0
O  O442  1  0.91070853  0.56606676  0.31406963  1  -1.18534  0  -0.384181  -0.638515  0  2.199885  0
O  O443  1  0.00228898  0.89644222  0.43610620  1  -1.200356  0  -0.397515  -0.696203  0  2.373015  0
O  O444  1  0.93421710  0.92783568  0.36969810  1  -1.177785  0  -0.377877  -0.639097  0  2.248461  0
O  O445  1  0.78432809  0.79149008  0.18686014  1  -1.144403  0  -0.290164  -0.477624  0  2.114005  0
O  O446  1  0.95944839  0.52646678  0.72185395  1  -1.17767  0  -0.348452  -0.541033  0  2.350901  0
O  O447  1  0.91163736  0.43921136  0.57061586  1  -1.177589  0  -0.365418  -0.544411  0  2.409874  0
O  O448  1  0.14244588  0.84612140  0.46445179  1  -1.178533  0  -0.347795  -0.528907  0  2.357743  0
O  O449  1  0.18033094  0.97304097  0.58959794  1  -1.167327  0  -0.356807  -0.527248  0  2.414593  0
O  O450  1  0.49259544  0.02910877  0.59920307  1  -1.227961  0  -0.423757  -0.705242  0  2.356712  0
O  O451  1  0.46293723  0.91753833  0.51117919  1  -1.201713  0  -0.410175  -0.664912  0  2.332553  0
O  O452  1  0.52056486  0.70400080  0.53963382  1  -1.184449  0  -0.382255  -0.634484  0  2.227968  0
O  O453  1  0.56956277  0.72109280  0.64190837  1  -1.175766  0  -0.393548  -0.637756  0  2.16441  0
O  O454  1  0.89640699  0.42392782  0.30066698  1  -1.196132  0  -0.378185  -0.649523  0  2.232499  0
O  O455  1  0.85454706  0.50536178  0.40905566  1  -1.175275  0  -0.397306  -0.635433  0  2.183096  0
O  O456  1  0.61600329  0.48437672  0.48289367  1  -1.205437  0  -0.40361  -0.68533  0  2.386214  0
O  O457  1  0.54995803  0.38630666  0.41152738  1  -1.181069  0  -0.387969  -0.64829  0  2.320925  0
O  O458  1  0.72310065  0.29912394  0.11579519  1  -1.128499  0  -0.305295  -0.48273  0  2.078807  0
O  O459  1  0.63281039  0.92769676  0.84440507  1  -1.116719  0  -0.303831  -0.477256  0  2.066446  0
O  O460  1  0.48811732  0.75257596  0.39431369  1  -1.186804  0  -0.378214  -0.628479  0  2.205227  0
O  O461  1  0.41070417  0.74800520  0.31407375  1  -1.186252  0  -0.384147  -0.638393  0  2.19973  0
O  O462  1  0.50228615  0.53966347  0.43610801  1  -1.206327  0  -0.397555  -0.696275  0  2.373082  0
O  O463  1  0.43421120  0.44186643  0.36970205  1  -1.178838  0  -0.37795  -0.639254  0  2.248638  0
O  O464  1  0.28432892  0.39537394  0.18686273  1  -1.133722  0  -0.290143  -0.477701  0  2.114127  0
O  O465  1  0.45944865  0.19538468  0.72185463  1  -1.171878  0  -0.348452  -0.541057  0  2.350954  0
O  O466  1  0.41163604  0.13140481  0.57061438  1  -1.177125  0  -0.365334  -0.544259  0  2.410004  0
O  O467  1  0.64245236  0.61832986  0.46445348  1  -1.165467  0  -0.347832  -0.528958  0  2.357885  0
O  O468  1  0.68032915  0.61656074  0.58960233  1  -1.161232  0  -0.356728  -0.527156  0  2.414453  0
O  O469  1  0.00740922  0.42990789  0.40079567  1  -1.223561  0  -0.42376  -0.70534  0  2.356681  0
O  O470  1  0.03706619  0.40636055  0.48881916  1  -1.193067  0  -0.410226  -0.665004  0  2.332616  0
O  O471  1  0.97943059  0.16436851  0.46036641  1  -1.186296  0  -0.382189  -0.634391  0  2.227945  0
O  O472  1  0.93043588  0.07918520  0.35808969  1  -1.180028  0  -0.39348  -0.637625  0  2.164535  0
O  O473  1  0.60359135  0.12325518  0.69933228  1  -1.201995  0  -0.378185  -0.649544  0  2.232566  0
O  O474  1  0.64545019  0.09629561  0.59094177  1  -1.170831  0  -0.397335  -0.635388  0  2.182952  0
O  O475  1  0.88399718  0.00148420  0.51710733  1  -1.202222  0  -0.403602  -0.685314  0  2.386133  0
O  O476  1  0.95004067  0.97477720  0.58847496  1  -1.184631  0  -0.387825  -0.648186  0  2.320946  0
O  O477  1  0.77690192  0.18332757  0.88420549  1  -1.132039  0  -0.305256  -0.482714  0  2.078725  0
O  O478  1  0.86719279  0.08329231  0.15559667  1  -1.119585  0  -0.303835  -0.477224  0  2.066386  0
O  O479  1  0.01188577  0.35825946  0.60568090  1  -1.18268  0  -0.378306  -0.628546  0  2.205092  0
O  O480  1  0.08929518  0.43393053  0.68592349  1  -1.185372  0  -0.384126  -0.638387  0  2.199701  0
O  O481  1  0.99771839  0.10355593  0.56388886  1  -1.200428  0  -0.397548  -0.696298  0  2.373204  0
O  O482  1  0.06578504  0.07216233  0.63029900  1  -1.177807  0  -0.377928  -0.639162  0  2.248461  0
O  O483  1  0.21567352  0.20850988  0.81313781  1  -1.144434  0  -0.290172  -0.477665  0  2.113975  0
O  O484  1  0.04055217  0.47353424  0.27814670  1  -1.177723  0  -0.348461  -0.540997  0  2.350905  0
O  O485  1  0.08836266  0.56079499  0.42938792  1  -1.177705  0  -0.365315  -0.54432  0  2.410112  0
O  O486  1  0.85754735  0.15387348  0.53554655  1  -1.178633  0  -0.347827  -0.528909  0  2.357756  0
O  O487  1  0.81966963  0.02696079  0.41039637  1  -1.167529  0  -0.35677  -0.527199  0  2.414511  0
