# generated using pymatgen
data_Zn2H31C51S2N3O10
_symmetry_space_group_name_H-M   'P 1'
_cell_length_a   17.05098549
_cell_length_b   18.54425026
_cell_length_c   21.68879565
_cell_angle_alpha   90.00006687
_cell_angle_beta   102.86377949
_cell_angle_gamma   90.00006024
_symmetry_Int_Tables_number   1
_chemical_formula_structural   Zn2H31C51S2N3O10
_chemical_formula_sum   'Zn8 H124 C204 S8 N12 O40'
_cell_volume   6685.82832546
_cell_formula_units_Z   4
loop_
 _symmetry_equiv_pos_site_id
 _symmetry_equiv_pos_as_xyz
  1  'x, y, z'
loop_
 _atom_site_type_symbol
 _atom_site_label
 _atom_site_symmetry_multiplicity
 _atom_site_fract_x
 _atom_site_fract_y
 _atom_site_fract_z
 _atom_site_occupancy
 _atom_site_pbe_bader_charge
 _atom_site_pbe_bader_spin_density
 _atom_site_pbe_cm5_charge
 _atom_site_pbe_ddec_charge
 _atom_site_pbe_ddec_spin_density
 _atom_site_pbe_ddec_sum_bond_order
 _atom_site_pbe_magmom
Zn  Zn0  1  0.69561472  0.43964206  0.48926940  1  1.294478  0  0.668553  0.825641  0  2.399243  0
Zn  Zn1  1  0.80438428  0.93964259  0.01073104  1  1.294477  0  0.668558  0.825663  0  2.399137  0
Zn  Zn2  1  0.30438657  0.56035693  0.51073198  1  1.294446  0  0.66858  0.825667  0  2.399156  0
Zn  Zn3  1  0.19561522  0.06035694  0.98926817  1  1.294369  0  0.668552  0.825626  0  2.39925  0
Zn  Zn4  1  0.82155309  0.54404054  0.51072249  1  1.29506  0  0.671974  0.829813  0  2.405966  0
Zn  Zn5  1  0.67844607  0.04403999  0.98927748  1  1.295064  0  0.671964  0.829816  0  2.405897  0
Zn  Zn6  1  0.17844760  0.45595900  0.48927786  1  1.294951  0  0.671967  0.829745  0  2.405987  0
Zn  Zn7  1  0.32155162  0.95595793  0.01072280  1  1.295192  0  0.671982  0.829812  0  2.405911  0
H  H8  1  0.55249942  0.41342744  0.54251642  1  0.135491  0  0.12727  0.107012  0  0.98414  0
H  H9  1  0.94750030  0.91342871  0.95748218  1  0.135279  0  0.127295  0.107044  0  0.984044  0
H  H10  1  0.44750248  0.58657318  0.45748322  1  0.135498  0  0.127301  0.107038  0  0.984081  0
H  H11  1  0.05249920  0.08657136  0.04251658  1  0.135453  0  0.127328  0.107095  0  0.984033  0
H  H12  1  0.23066106  0.18191995  0.55112234  1  0.081628  0  0.106801  0.080567  0  1.008648  0
H  H13  1  0.26933911  0.68192050  0.94887811  1  0.081607  0  0.106795  0.080552  0  1.008651  0
H  H14  1  0.76933964  0.81808013  0.44887801  1  0.081614  0  0.106802  0.08057  0  1.008685  0
H  H15  1  0.73066279  0.31807957  0.05112291  1  0.081597  0  0.106788  0.080571  0  1.008694  0
H  H16  1  0.38746967  0.01219673  0.45938664  1  0.089456  0  0.107027  0.120191  0  1.000231  0
H  H17  1  0.11253130  0.51219604  0.04061527  1  0.08945  0  0.107006  0.120103  0  1.000238  0
H  H18  1  0.61253163  0.98780334  0.54061336  1  0.089449  0  0.107025  0.120192  0  1.000239  0
H  H19  1  0.88747240  0.48780296  0.95938929  1  0.089541  0  0.107029  0.120166  0  1.000247  0
H  H20  1  0.04889759  0.37774190  0.78139993  1  0.082627  0  0.105664  0.120104  0  0.989898  0
H  H21  1  0.45110287  0.87774178  0.71859985  1  0.082635  0  0.105659  0.120112  0  0.98992  0
H  H22  1  0.95110311  0.62225979  0.21859904  1  0.08266  0  0.105666  0.120105  0  0.989909  0
H  H23  1  0.54889662  0.12225938  0.28139983  1  0.08266  0  0.105662  0.120109  0  0.989935  0
H  H24  1  0.07339714  0.01690377  0.56494470  1  0.072412  0  0.103143  0.0732  0  1.017085  0
H  H25  1  0.42660218  0.51690446  0.93505359  1  0.072414  0  0.103163  0.07322  0  1.017125  0
H  H26  1  0.92660356  0.98309522  0.43505472  1  0.072396  0  0.103164  0.073226  0  1.017139  0
H  H27  1  0.57339852  0.48309508  0.06494538  1  0.072469  0  0.103145  0.073229  0  1.017111  0
H  H28  1  0.44831263  0.62746010  0.23892995  1  0.057011  0  0.107909  0.12312  0  0.986693  0
H  H29  1  0.05168670  0.12745750  0.26107041  1  0.057014  0  0.107891  0.12311  0  0.986634  0
H  H30  1  0.55168806  0.37254214  0.76107179  1  0.056937  0  0.107894  0.123105  0  0.986628  0
H  H31  1  0.94831038  0.87254042  0.73892793  1  0.05687  0  0.107906  0.123096  0  0.986607  0
H  H32  1  0.45864506  0.88519871  0.17791743  1  0.08678  0  0.111087  0.131496  0  0.982199  0
H  H33  1  0.04135105  0.38519780  0.32208262  1  0.086883  0  0.111082  0.131503  0  0.982239  0
H  H34  1  0.54135504  0.11480029  0.82208282  1  0.086781  0  0.111083  0.131476  0  0.982178  0
H  H35  1  0.95864603  0.61479958  0.67791756  1  0.086798  0  0.111094  0.131483  0  0.982172  0
H  H36  1  0.93557968  0.79806761  0.55412111  1  0.076892  0  0.104733  0.113706  0  1.003409  0
H  H37  1  0.56442046  0.29806743  0.94587791  1  0.076897  0  0.104726  0.113696  0  1.003368  0
H  H38  1  0.06442162  0.20193301  0.44587843  1  0.076907  0  0.104736  0.113729  0  1.003359  0
H  H39  1  0.43557903  0.70193264  0.05412085  1  0.076922  0  0.104736  0.113698  0  1.003382  0
H  H40  1  0.63269107  0.78437626  0.30840233  1  0.083864  0  0.106364  0.12312  0  0.994348  0
H  H41  1  0.86731071  0.28437657  0.19159983  1  0.083865  0  0.106381  0.123143  0  0.994344  0
H  H42  1  0.36731143  0.21562274  0.69159880  1  0.083746  0  0.106377  0.123154  0  0.994355  0
H  H43  1  0.13268818  0.71562459  0.80840067  1  0.0835  0  0.106384  0.123146  0  0.994403  0
H  H44  1  0.70417662  0.69443364  0.38773468  1  0.10857  0  0.101619  0.107958  0  1.010615  0
H  H45  1  0.79582382  0.19443593  0.11226623  1  0.108606  0  0.101588  0.10793  0  1.010644  0
H  H46  1  0.29582588  0.30556374  0.61226507  1  0.108669  0  0.101644  0.107991  0  1.010585  0
H  H47  1  0.20417447  0.80556576  0.88773277  1  0.108678  0  0.10158  0.107836  0  1.010689  0
H  H48  1  0.45594473  0.31411736  0.54629008  1  0.108264  0  0.105922  0.117535  0  1.019464  0
H  H49  1  0.04405443  0.81411824  0.95370802  1  0.108301  0  0.10592  0.117522  0  1.019468  0
H  H50  1  0.54405657  0.68588325  0.45370945  1  0.108214  0  0.105914  0.117507  0  1.019434  0
H  H51  1  0.95594506  0.18588183  0.04628981  1  0.108355  0  0.105924  0.117515  0  1.019443  0
H  H52  1  0.51902463  0.53875614  0.32050245  1  0.080805  0  0.105761  0.110112  0  1.005444  0
H  H53  1  0.98097377  0.03875547  0.17949518  1  0.080805  0  0.105746  0.11008  0  1.005459  0
H  H54  1  0.48097547  0.46124393  0.67949595  1  0.080801  0  0.105743  0.110092  0  1.00546  0
H  H55  1  0.01902211  0.96124407  0.82050202  1  0.080751  0  0.10572  0.110048  0  1.005508  0
H  H56  1  0.80258003  0.29558840  0.62897695  1  0.085654  0  0.103481  0.108814  0  1.001841  0
H  H57  1  0.69742251  0.79558931  0.87102156  1  0.085665  0  0.103499  0.108807  0  1.001765  0
H  H58  1  0.19742367  0.70441060  0.37102346  1  0.085605  0  0.103475  0.108791  0  1.001821  0
H  H59  1  0.30257819  0.20440915  0.12897557  1  0.085588  0  0.103462  0.108782  0  1.001848  0
H  H60  1  0.85910747  0.28491248  0.83249596  1  0.084578  0  0.105836  0.121949  0  0.992421  0
H  H61  1  0.64089205  0.78491144  0.66750293  1  0.084176  0  0.105859  0.121964  0  0.992409  0
H  H62  1  0.14088541  0.71509083  0.16750440  1  0.084292  0  0.10583  0.121941  0  0.992399  0
H  H63  1  0.35910624  0.21508917  0.33249700  1  0.084596  0  0.10586  0.121961  0  0.992418  0
H  H64  1  0.03831385  0.11873389  0.84217424  1  0.089211  0  0.112771  0.135759  0  0.981851  0
H  H65  1  0.46168502  0.61873316  0.65782546  1  0.089208  0  0.112742  0.135714  0  0.98186  0
H  H66  1  0.96167963  0.88127158  0.15782530  1  0.089146  0  0.112734  0.135755  0  0.981752  0
H  H67  1  0.53831387  0.38126692  0.34217412  1  0.089245  0  0.112769  0.135729  0  0.98196  0
H  H68  1  0.83965012  0.69643983  0.55458333  1  0.111943  0  0.12055  0.094795  0  0.998403  0
H  H69  1  0.66035047  0.19643921  0.94541704  1  0.111939  0  0.120572  0.094829  0  0.998361  0
H  H70  1  0.16035058  0.30356186  0.44541840  1  0.11197  0  0.12059  0.094858  0  0.998293  0
H  H71  1  0.33965023  0.80356032  0.05458146  1  0.111981  0  0.120568  0.094829  0  0.99842  0
H  H72  1  0.59148153  0.18377561  0.44034390  1  0.067056  0  0.108331  0.112942  0  1.002489  0
H  H73  1  0.90851950  0.68377684  0.05965618  1  0.066888  0  0.108352  0.112974  0  1.002491  0
H  H74  1  0.40851917  0.81622500  0.55965553  1  0.067066  0  0.108335  0.11297  0  1.002447  0
H  H75  1  0.09148541  0.31622431  0.94034675  1  0.06709  0  0.108277  0.112949  0  1.002483  0
H  H76  1  0.71084442  0.78915555  0.12976249  1  0.061909  0  0.102232  0.105257  0  1.002771  0
H  H77  1  0.78915435  0.28915333  0.37023960  1  0.061821  0  0.102246  0.105309  0  1.002752  0
H  H78  1  0.28915567  0.21084129  0.87023867  1  0.061941  0  0.102162  0.105129  0  1.002848  0
H  H79  1  0.21084514  0.71084351  0.62976100  1  0.061875  0  0.102244  0.105272  0  1.002696  0
H  H80  1  0.06402341  0.65881748  0.45034754  1  0.10109  0  0.109071  0.11644  0  1.03628  0
H  H81  1  0.43597537  0.15881821  0.04965137  1  0.101065  0  0.109064  0.11646  0  1.036258  0
H  H82  1  0.93597368  0.34118205  0.54965126  1  0.101061  0  0.109064  0.11642  0  1.036256  0
H  H83  1  0.56402533  0.84118295  0.95034852  1  0.101064  0  0.109085  0.116463  0  1.036251  0
H  H84  1  0.63501284  0.71556725  0.19308907  1  0.063815  0  0.104672  0.121276  0  1.001568  0
H  H85  1  0.86498522  0.21556448  0.30691421  1  0.063712  0  0.104667  0.121254  0  1.001484  0
H  H86  1  0.36498605  0.28443121  0.80691327  1  0.063845  0  0.104628  0.121136  0  1.001772  0
H  H87  1  0.13501367  0.78443290  0.69308582  1  0.063813  0  0.104672  0.12125  0  1.001605  0
H  H88  1  0.53324960  0.95676482  0.11249579  1  0.103083  0  0.104521  0.108167  0  1.020445  0
H  H89  1  0.96674462  0.45676549  0.38750153  1  0.103396  0  0.104552  0.108223  0  1.020386  0
H  H90  1  0.46674990  0.04323202  0.88750297  1  0.103378  0  0.104513  0.108207  0  1.020446  0
H  H91  1  0.03325187  0.54323350  0.61249624  1  0.103411  0  0.104527  0.108239  0  1.020432  0
H  H92  1  0.96370487  0.56332525  0.45621829  1  0.147721  0  0.123895  0.103107  0  1.002878  0
H  H93  1  0.53629598  0.06332612  0.04378256  1  0.147732  0  0.123897  0.103117  0  1.002877  0
H  H94  1  0.03629462  0.43667428  0.54378277  1  0.147701  0  0.123937  0.103162  0  1.002942  0
H  H95  1  0.46370472  0.93667504  0.95621733  1  0.147697  0  0.123907  0.103118  0  1.00285  0
H  H96  1  0.86817900  0.21555721  0.71823466  1  0.085317  0  0.107325  0.124097  0  0.995196  0
H  H97  1  0.63182042  0.71555687  0.78176461  1  0.085301  0  0.107333  0.124112  0  0.99522  0
H  H98  1  0.13182230  0.78444394  0.28176718  1  0.085308  0  0.107382  0.124133  0  0.995093  0
H  H99  1  0.36817607  0.28444213  0.21823362  1  0.085339  0  0.107332  0.12405  0  0.995236  0
H  H100  1  0.98398714  0.45650471  0.68990773  1  0.094376  0  0.106039  0.10991  0  1.005227  0
H  H101  1  0.51601384  0.95650483  0.81009251  1  0.09439  0  0.106018  0.109889  0  1.005246  0
H  H102  1  0.01601476  0.54349537  0.31009053  1  0.094432  0  0.106001  0.109806  0  1.005265  0
H  H103  1  0.48398806  0.04349579  0.18990713  1  0.094382  0  0.106014  0.109879  0  1.005239  0
H  H104  1  0.77863254  0.20251173  0.88565323  1  0.087458  0  0.100783  0.102599  0  1.013875  0
H  H105  1  0.72136745  0.70250962  0.61434751  1  0.087504  0  0.100771  0.102589  0  1.013887  0
H  H106  1  0.22136033  0.79749104  0.11434575  1  0.087672  0  0.100784  0.102559  0  1.013921  0
H  H107  1  0.27863264  0.29749099  0.38565366  1  0.087466  0  0.100769  0.102569  0  1.013912  0
H  H108  1  0.50967629  0.09098994  0.44747774  1  0.076865  0  0.108731  0.120198  0  0.997305  0
H  H109  1  0.99032219  0.59099071  0.05252088  1  0.07643  0  0.108696  0.120157  0  0.997254  0
H  H110  1  0.49032441  0.90901121  0.55252123  1  0.076363  0  0.108713  0.120196  0  0.997267  0
H  H111  1  0.00967910  0.40900991  0.94747957  1  0.076406  0  0.108676  0.120167  0  0.997264  0
H  H112  1  0.95901403  0.03823180  0.89741453  1  0.118477  0  0.105539  0.109485  0  1.014059  0
H  H113  1  0.54098452  0.53823058  0.60258487  1  0.118584  0  0.105514  0.10945  0  1.01408  0
H  H114  1  0.04098125  0.96177098  0.10258579  1  0.118638  0  0.10549  0.109418  0  1.014096  0
H  H115  1  0.45901377  0.46176950  0.39741322  1  0.118589  0  0.105501  0.109459  0  1.014059  0
H  H116  1  0.68275613  0.28913284  0.44232745  1  0.130401  0  0.121896  0.097757  0  0.999672  0
H  H117  1  0.81724506  0.78913344  0.05767230  1  0.130444  0  0.12186  0.097694  0  0.999727  0
H  H118  1  0.31724577  0.71086724  0.55767265  1  0.130418  0  0.121878  0.097725  0  0.999733  0
H  H119  1  0.18275805  0.21086663  0.94232801  1  0.130353  0  0.121884  0.097763  0  0.999684  0
H  H120  1  0.16734621  0.73346063  0.47435713  1  0.116365  0  0.111882  0.130141  0  1.011663  0
H  H121  1  0.33265208  0.23346014  0.02564268  1  0.116369  0  0.111886  0.130162  0  1.011619  0
H  H122  1  0.83265328  0.26653944  0.52564162  1  0.116378  0  0.111884  0.130134  0  1.011677  0
H  H123  1  0.66734801  0.76653885  0.97435802  1  0.116366  0  0.111886  0.130165  0  1.011651  0
H  H124  1  0.28140423  0.96885495  0.48954622  1  0.047896  0  0.106183  0.106747  0  1.006904  0
H  H125  1  0.21859742  0.46885595  0.01045442  1  0.047924  0  0.106169  0.106714  0  1.006953  0
H  H126  1  0.71859827  0.03114512  0.51045444  1  0.047931  0  0.106151  0.106699  0  1.006902  0
H  H127  1  0.78140448  0.53114412  0.98954615  1  0.047952  0  0.106149  0.10668  0  1.006941  0
H  H128  1  0.24864020  0.85389100  0.48515259  1  0.038886  0  0.102875  0.112937  0  1.013102  0
H  H129  1  0.25135947  0.35389096  0.01484713  1  0.038689  0  0.102875  0.112967  0  1.013033  0
H  H130  1  0.75135929  0.14610854  0.51484571  1  0.03891  0  0.102883  0.112943  0  1.013046  0
H  H131  1  0.74864182  0.64610858  0.98515379  1  0.038892  0  0.102881  0.112965  0  1.013001  0
C  C132  1  0.55880168  0.36114437  0.52110731  1  0.510765  0  0.059372  0.110395  0  3.914526  0
C  C133  1  0.94119795  0.86114513  0.97889168  1  0.510917  0  0.059344  0.110394  0  3.914333  0
C  C134  1  0.44119962  0.63885624  0.47889223  1  0.51075  0  0.059417  0.110486  0  3.914319  0
C  C135  1  0.05880335  0.13885494  0.02110878  1  0.510717  0  0.059338  0.110319  0  3.914347  0
C  C136  1  0.21649559  0.12450106  0.54390910  1  0.510826  0  0.036186  0.027623  0  3.961654  0
C  C137  1  0.28350510  0.62450218  0.95609092  1  0.510875  0  0.036203  0.027675  0  3.961609  0
C  C138  1  0.78350631  0.87549740  0.45609054  1  0.510894  0  0.036192  0.027639  0  3.961644  0
C  C139  1  0.71649680  0.37549736  0.04391056  1  0.510815  0  0.03626  0.027661  0  3.96157  0
C  C140  1  0.39558095  0.06792615  0.47533992  1  0.00158  0  -0.106474  -0.153086  0  4.028472  0
C  C141  1  0.10441830  0.56792758  0.02466174  1  0.001557  0  -0.10645  -0.152928  0  4.028533  0
C  C142  1  0.60442095  0.93207392  0.52466064  1  0.001574  0  -0.106477  -0.153089  0  4.028472  0
C  C143  1  0.89558300  0.43207411  0.97534102  1  0.001735  0  -0.106471  -0.153034  0  4.028331  0
C  C144  1  0.45923833  0.17995014  0.49242319  1  -0.171997  0  -0.014772  -0.022998  0  4.017912  0
C  C145  1  0.04076229  0.67994933  0.00757514  1  -0.172004  0  -0.014847  -0.023141  0  4.017704  0
C  C146  1  0.54076297  0.82004940  0.50757681  1  -0.172045  0  -0.014737  -0.022938  0  4.017809  0
C  C147  1  0.95924142  0.32004913  0.99242574  1  -0.171465  0  -0.014762  -0.023027  0  4.017928  0
C  C148  1  0.95230022  0.20571655  0.83335577  1  0.381124  0  0.082323  0.256482  0  4.050749  0
C  C149  1  0.54769979  0.70571596  0.66664359  1  0.381122  0  0.082297  0.256424  0  4.05068  0
C  C150  1  0.04769446  0.79428892  0.16664722  1  0.381043  0  0.082243  0.256163  0  4.050695  0
C  C151  1  0.45230031  0.29428466  0.33335481  1  0.381164  0  0.08233  0.256241  0  4.050675  0
C  C152  1  0.34172023  0.10451916  0.50372310  1  -0.220372  0  -0.013704  -0.012293  0  4.035043  0
C  C153  1  0.15827982  0.60451913  0.99627956  1  -0.220347  0  -0.013666  -0.012338  0  4.035018  0
C  C154  1  0.65828047  0.89548146  0.49627679  1  -0.220384  0  -0.013698  -0.012268  0  4.035096  0
C  C155  1  0.84172268  0.39547987  0.00372480  1  -0.220599  0  -0.013666  -0.012278  0  4.034784  0
C  C156  1  0.07011575  0.79188734  0.50315617  1  -0.231304  0  -0.009399  -0.010559  0  3.992045  0
C  C157  1  0.42988158  0.29188759  0.99684343  1  -0.231137  0  -0.00936  -0.010397  0  3.991956  0
C  C158  1  0.92988315  0.20811328  0.49684341  1  -0.231241  0  -0.009319  -0.010393  0  3.991972  0
C  C159  1  0.57011792  0.70811249  0.00315671  1  -0.231403  0  -0.009405  -0.01055  0  3.992075  0
C  C160  1  0.26780628  0.07847710  0.51911607  1  0.023425  0  -0.012785  0.032661  0  4.079994  0
C  C161  1  0.23219614  0.57847712  0.98088606  1  0.023351  0  -0.012848  0.032528  0  4.079989  0
C  C162  1  0.73219502  0.92152459  0.48088392  1  0.023342  0  -0.012795  0.032533  0  4.079994  0
C  C163  1  0.76780697  0.42152295  0.01911610  1  0.023193  0  -0.012848  0.032537  0  4.079914  0
C  C164  1  0.99505149  0.36027870  0.74747450  1  -0.032873  0  -0.105482  -0.208982  0  4.001698  0
C  C165  1  0.50494935  0.86027927  0.75252562  1  -0.032876  0  -0.105475  -0.209003  0  4.001787  0
C  C166  1  0.00494921  0.63972299  0.25252539  1  -0.032876  0  -0.105384  -0.208933  0  4.001735  0
C  C167  1  0.49505075  0.13972188  0.24747370  1  -0.032898  0  -0.105452  -0.208986  0  4.001831  0
C  C168  1  0.12873703  0.03295728  0.55101136  1  0.542802  0  0.034735  0.025238  0  3.977361  0
C  C169  1  0.37126412  0.53295740  0.94898819  1  0.5435  0  0.034726  0.025177  0  3.977503  0
C  C170  1  0.87126427  0.96704117  0.44898864  1  0.54344  0  0.034663  0.025091  0  3.977619  0
C  C171  1  0.62873658  0.46704160  0.05101170  1  0.542748  0  0.034647  0.024996  0  3.977635  0
C  C172  1  0.17395242  0.98168909  0.52555280  1  -0.05229  0  -0.01137  0.038517  0  4.072392  0
C  C173  1  0.32604940  0.48168975  0.97444686  1  -0.052951  0  -0.011422  0.038496  0  4.07237  0
C  C174  1  0.82605008  0.01831206  0.47444787  1  -0.052876  0  -0.011466  0.038425  0  4.072327  0
C  C175  1  0.67395370  0.51831033  0.02555253  1  -0.052211  0  -0.011363  0.0386  0  4.072335  0
C  C176  1  0.50390187  0.64168342  0.27237125  1  -0.017728  0  -0.102849  -0.203813  0  4.000049  0
C  C177  1  0.99609728  0.14168175  0.22762892  1  -0.017749  0  -0.102828  -0.203772  0  3.999996  0
C  C178  1  0.49609882  0.35831719  0.72763094  1  -0.017226  0  -0.102858  -0.20382  0  3.999913  0
C  C179  1  0.00390040  0.85831617  0.77236906  1  -0.017196  0  -0.102863  -0.203832  0  3.999988  0
C  C180  1  0.54320555  0.79692557  0.18995676  1  0.298296  0  0.082328  0.259287  0  4.051343  0
C  C181  1  0.95679323  0.29692128  0.31004534  1  0.298944  0  0.082371  0.259302  0  4.051238  0
C  C182  1  0.45679454  0.20307396  0.81004486  1  0.298308  0  0.082366  0.259357  0  4.051325  0
C  C183  1  0.04320626  0.70307718  0.68995434  1  0.298952  0  0.082288  0.259067  0  4.051425  0
C  C184  1  0.14858702  0.90683407  0.51527896  1  -0.191145  0  -0.016672  -0.01589  0  4.034029  0
C  C185  1  0.35141289  0.40683368  0.98471891  1  -0.191335  0  -0.016661  -0.015957  0  4.033757  0
C  C186  1  0.85141368  0.09316655  0.48471955  1  -0.191552  0  -0.016658  -0.015939  0  4.034012  0
C  C187  1  0.64858781  0.59316585  0.01528052  1  -0.191009  0  -0.01669  -0.015984  0  4.033772  0
C  C188  1  0.51434621  0.86478162  0.16768482  1  0.045665  0  -0.103375  -0.205354  0  3.994396  0
C  C189  1  0.98565147  0.36478116  0.33231763  1  0.045399  0  -0.103497  -0.205547  0  3.994622  0
C  C190  1  0.48565328  0.13521684  0.83231717  1  0.045794  0  -0.103457  -0.205427  0  3.994414  0
C  C191  1  0.01434622  0.63521622  0.66768220  1  0.045537  0  -0.10343  -0.205298  0  3.994353  0
C  C192  1  0.94385950  0.74725670  0.53116307  1  -0.019555  0  -0.084176  -0.174878  0  3.95691  0
C  C193  1  0.55614116  0.24725601  0.96883737  1  -0.019577  0  -0.084142  -0.174758  0  3.956896  0
C  C194  1  0.05614180  0.25274446  0.46883739  1  -0.019651  0  -0.084162  -0.174832  0  3.956808  0
C  C195  1  0.44386013  0.75274407  0.03116216  1  -0.019515  0  -0.084159  -0.174794  0  3.956878  0
C  C196  1  0.60814030  0.73053746  0.31132841  1  0.018374  0  -0.106772  -0.218836  0  4.037161  0
C  C197  1  0.89186079  0.23053725  0.18867266  1  0.018242  0  -0.106788  -0.218911  0  4.037157  0
C  C198  1  0.39186160  0.26946208  0.68867308  1  0.018357  0  -0.106808  -0.218947  0  4.03719  0
C  C199  1  0.10813750  0.76946283  0.81132589  1  0.018591  0  -0.106848  -0.219009  0  4.037293  0
C  C200  1  0.64758127  0.68083099  0.35532530  1  -0.113542  0  -0.089817  -0.082139  0  4.017752  0
C  C201  1  0.85241855  0.18083230  0.14467456  1  -0.113569  0  -0.089753  -0.08201  0  4.017593  0
C  C202  1  0.35242003  0.31916800  0.64467469  1  -0.113583  0  -0.089767  -0.082036  0  4.017583  0
C  C203  1  0.14757854  0.81916885  0.85532423  1  -0.113517  0  -0.089709  -0.081847  0  4.017713  0
C  C204  1  0.53720106  0.71000488  0.26890627  1  0.386752  0  0.082519  0.262312  0  4.051681  0
C  C205  1  0.96279880  0.21000318  0.23109548  1  0.386904  0  0.082515  0.262315  0  4.051639  0
C  C206  1  0.46279963  0.28999627  0.73109593  1  0.386375  0  0.08255  0.262377  0  4.051694  0
C  C207  1  0.03719889  0.78999635  0.76890296  1  0.386389  0  0.082553  0.26237  0  4.05172  0
C  C208  1  0.50540143  0.30528499  0.52278136  1  -0.053958  0  -0.080691  -0.169558  0  3.922133  0
C  C209  1  0.99459873  0.80528580  0.97721674  1  -0.054034  0  -0.080637  -0.169548  0  3.922113  0
C  C210  1  0.49459987  0.69471617  0.47721771  1  -0.05397  0  -0.08067  -0.169536  0  3.92213  0
C  C211  1  0.00540377  0.19471536  0.02278393  1  -0.054047  0  -0.080648  -0.169469  0  3.922001  0
C  C212  1  0.54332988  0.59271843  0.31763704  1  0.023087  0  -0.082338  -0.07238  0  3.985562  0
C  C213  1  0.95666920  0.09271828  0.18236307  1  0.023058  0  -0.082303  -0.072305  0  3.985523  0
C  C214  1  0.45667142  0.40728111  0.68236296  1  0.023087  0  -0.082361  -0.072394  0  3.985508  0
C  C215  1  0.04332728  0.90728234  0.81763562  1  0.023109  0  -0.082353  -0.07237  0  3.985596  0
C  C216  1  0.85689321  0.31286118  0.66236957  1  -0.015471  0  -0.084851  -0.069381  0  4.004189  0
C  C217  1  0.64310756  0.81286254  0.83762819  1  -0.015368  0  -0.08485  -0.069323  0  4.004019  0
C  C218  1  0.14310869  0.68713943  0.33762961  1  -0.015385  0  -0.084845  -0.069384  0  4.004132  0
C  C219  1  0.35689254  0.18713753  0.16236883  1  -0.015301  0  -0.084778  -0.069308  0  4.004077  0
C  C220  1  0.87990027  0.23039641  0.84599994  1  0.030615  0  -0.10722  -0.215136  0  4.032693  0
C  C221  1  0.62009857  0.73039587  0.65400016  1  0.030999  0  -0.107193  -0.215082  0  4.032625  0
C  C222  1  0.12009381  0.76960744  0.15400247  1  0.030576  0  -0.107089  -0.214978  0  4.032524  0
C  C223  1  0.37989852  0.26960420  0.34599956  1  0.030544  0  -0.107223  -0.215162  0  4.032671  0
C  C224  1  0.98106582  0.13660782  0.85133856  1  0.046031  0  -0.101057  -0.202333  0  3.984153  0
C  C225  1  0.51893588  0.63660664  0.64866103  1  0.046027  0  -0.101045  -0.202263  0  3.984283  0
C  C226  1  0.01893307  0.86339657  0.14866332  1  0.045827  0  -0.101056  -0.20241  0  3.984422  0
C  C227  1  0.48106602  0.36339343  0.35133769  1  0.045981  0  -0.101036  -0.202286  0  3.984368  0
C  C228  1  0.89028675  0.69127382  0.53176392  1  0.477784  0  0.049329  0.094081  0  3.948901  0
C  C229  1  0.60971383  0.19127372  0.96823645  1  0.477991  0  0.049299  0.094012  0  3.948869  0
C  C230  1  0.10971394  0.30872733  0.46823736  1  0.478088  0  0.049268  0.093978  0  3.948916  0
C  C231  1  0.39028627  0.80872635  0.03176287  1  0.477958  0  0.04928  0.093964  0  3.948969  0
C  C232  1  0.58129328  0.23287602  0.46492848  1  -0.023479  0  -0.086107  -0.179462  0  3.958928  0
C  C233  1  0.91870782  0.73287777  0.03507075  1  -0.023312  0  -0.086192  -0.179584  0  3.959108  0
C  C234  1  0.41870742  0.76712460  0.53507049  1  -0.023513  0  -0.086092  -0.179466  0  3.958966  0
C  C235  1  0.08129769  0.26712285  0.96493137  1  -0.02328  0  -0.086027  -0.179396  0  3.958885  0
C  C236  1  0.65583697  0.80997115  0.14082318  1  0.056146  0  -0.085444  -0.065373  0  4.000084  0
C  C237  1  0.84416184  0.30996951  0.35917987  1  0.056095  0  -0.085505  -0.06551  0  4.000266  0
C  C238  1  0.34416373  0.19002515  0.85917810  1  0.056129  0  -0.085327  -0.065167  0  4.000145  0
C  C239  1  0.15583706  0.69002787  0.64082017  1  0.056103  0  -0.085451  -0.065324  0  4.000017  0
C  C240  1  0.96155119  0.29295001  0.75527465  1  0.39064  0  0.086134  0.268466  0  4.046002  0
C  C241  1  0.53844895  0.79295059  0.74472435  1  0.390624  0  0.08619  0.268492  0  4.046008  0
C  C242  1  0.03844951  0.70705223  0.24472754  1  0.390472  0  0.08617  0.268236  0  4.046184  0
C  C243  1  0.46154934  0.20704948  0.25527419  1  0.390477  0  0.086131  0.268144  0  4.046288  0
C  C244  1  0.01555988  0.66980309  0.47407524  1  0.077265  0  -0.076273  -0.155185  0  3.909094  0
C  C245  1  0.48444072  0.16980275  0.02592400  1  0.077021  0  -0.076277  -0.155216  0  3.909111  0
C  C246  1  0.98443901  0.33019645  0.52592387  1  0.077253  0  -0.07632  -0.155163  0  3.909122  0
C  C247  1  0.51556058  0.83019679  0.97407508  1  0.077186  0  -0.076328  -0.155194  0  3.909187  0
C  C248  1  0.61367200  0.76891314  0.17620152  1  0.020566  0  -0.109919  -0.223301  0  4.02811  0
C  C249  1  0.88632674  0.26891096  0.32380194  1  0.020254  0  -0.109901  -0.223227  0  4.02798  0
C  C250  1  0.38632869  0.23108424  0.82380022  1  0.020665  0  -0.109918  -0.223219  0  4.028383  0
C  C251  1  0.11367155  0.73108750  0.67619799  1  0.020259  0  -0.109861  -0.223168  0  4.028094  0
C  C252  1  0.51528067  0.23907199  0.49373014  1  -0.005226  0  0.010093  0.119592  0  4.041561  0
C  C253  1  0.98471923  0.73907323  0.00626796  1  -0.005148  0  0.010133  0.119674  0  4.041558  0
C  C254  1  0.48472183  0.76092862  0.50626822  1  -0.005209  0  0.010007  0.119509  0  4.041885  0
C  C255  1  0.01528266  0.26092846  0.99373353  1  -0.005387  0  0.010065  0.119514  0  4.041462  0
C  C256  1  0.62765340  0.87789999  0.11757246  1  -0.062177  0  -0.030648  -0.065211  0  3.99305  0
C  C257  1  0.87234250  0.37789787  0.38242738  1  -0.062815  0  -0.030618  -0.065179  0  3.992929  0
C  C258  1  0.37234610  0.12209793  0.88242722  1  -0.062765  0  -0.030649  -0.065192  0  3.992902  0
C  C259  1  0.12765518  0.62209951  0.61757198  1  -0.062876  0  -0.030689  -0.065331  0  3.99311  0
C  C260  1  0.61613216  0.61137387  0.35878615  1  -0.01496  0  -0.02833  -0.056331  0  3.985135  0
C  C261  1  0.88386755  0.11137413  0.14121409  1  -0.014962  0  -0.028365  -0.056482  0  3.985138  0
C  C262  1  0.38387034  0.38862459  0.64121405  1  -0.014967  0  -0.028343  -0.056428  0  3.985135  0
C  C263  1  0.11613014  0.88862595  0.85878435  1  -0.014947  0  -0.028275  -0.056292  0  3.985211  0
C  C264  1  0.55643493  0.90459234  0.13125662  1  -0.043432  0  -0.081099  -0.067644  0  3.983934  0
C  C265  1  0.94356341  0.40459242  0.36874275  1  -0.043699  0  -0.081048  -0.067518  0  3.983865  0
C  C266  1  0.44356636  0.09540504  0.86874292  1  -0.043425  0  -0.081075  -0.067692  0  3.983923  0
C  C267  1  0.05643488  0.59540603  0.63125672  1  -0.043874  0  -0.08106  -0.067675  0  3.983998  0
C  C268  1  0.95977253  0.61643499  0.47677159  1  0.452861  0  0.056284  0.108655  0  3.908126  0
C  C269  1  0.54022719  0.11643529  0.02322912  1  0.453095  0  0.056319  0.108694  0  3.908088  0
C  C270  1  0.04022576  0.38356617  0.52322972  1  0.452838  0  0.056284  0.108615  0  3.907944  0
C  C271  1  0.45977411  0.88356532  0.97676996  1  0.452833  0  0.056315  0.108614  0  3.907898  0
C  C272  1  0.84867304  0.42627958  0.59882891  1  1.538594  0  0.205074  0.575942  0  4.209597  0
C  C273  1  0.65132790  0.92627995  0.90117083  1  1.538806  0  0.205072  0.575892  0  4.20994  0
C  C274  1  0.15132766  0.57372050  0.40117098  1  1.53853  0  0.205055  0.575864  0  4.209631  0
C  C275  1  0.34867460  0.07371904  0.09882938  1  1.538607  0  0.20504  0.575954  0  4.209592  0
C  C276  1  0.00946781  0.73694899  0.50261246  1  -0.017152  0  0.014595  0.125663  0  4.029623  0
C  C277  1  0.49053304  0.23694876  0.99738725  1  -0.017231  0  0.014572  0.125535  0  4.029656  0
C  C278  1  0.99053168  0.26305163  0.49738768  1  -0.017154  0  0.014604  0.125562  0  4.029728  0
C  C279  1  0.50946706  0.76305402  0.00261115  1  -0.016984  0  0.014602  0.125584  0  4.029698  0
C  C280  1  0.89299681  0.26851110  0.71213903  1  -0.066229  0  -0.105745  -0.212795  0  4.01946  0
C  C281  1  0.60700449  0.76851128  0.78785970  1  -0.066236  0  -0.105785  -0.212878  0  4.019467  0
C  C282  1  0.10700569  0.73148951  0.28786210  1  -0.066316  0  -0.105795  -0.212799  0  4.019484  0
C  C283  1  0.39299380  0.23148826  0.21213839  1  -0.066176  0  -0.105762  -0.212675  0  4.019577  0
C  C284  1  0.95886863  0.40378162  0.69664820  1  -0.030349  0  -0.081622  -0.067845  0  3.982556  0
C  C285  1  0.54113347  0.90378122  0.80335173  1  -0.030347  0  -0.081602  -0.067797  0  3.982706  0
C  C286  1  0.04113327  0.59622061  0.30335098  1  -0.030328  0  -0.081669  -0.067795  0  3.982597  0
C  C287  1  0.45886903  0.09621940  0.19664802  1  -0.030398  0  -0.081638  -0.06781  0  3.982578  0
C  C288  1  0.88905834  0.38084669  0.65388930  1  0.019574  0  -0.030763  -0.066107  0  3.998563  0
C  C289  1  0.61094313  0.88084802  0.84611050  1  0.019571  0  -0.030769  -0.066141  0  3.998723  0
C  C290  1  0.11094296  0.61915339  0.34611070  1  0.019631  0  -0.030723  -0.066088  0  3.998636  0
C  C291  1  0.38905997  0.11915259  0.15388843  1  0.019557  0  -0.030756  -0.066209  0  3.998653  0
C  C292  1  0.83532148  0.18459569  0.87559485  1  -0.10598  0  -0.089464  -0.07896  0  4.015907  0
C  C293  1  0.66467789  0.68459354  0.62440576  1  -0.105959  0  -0.089472  -0.079007  0  4.015916  0
C  C294  1  0.16467139  0.81540762  0.12440597  1  -0.105772  0  -0.089446  -0.078932  0  4.015952  0
C  C295  1  0.33531980  0.31540600  0.37559452  1  -0.105909  0  -0.089459  -0.078952  0  4.015777  0
C  C296  1  0.46170479  0.11050865  0.46890252  1  -0.034153  0  -0.101112  -0.138071  0  4.022974  0
C  C297  1  0.03829572  0.61050841  0.03109710  1  -0.033751  0  -0.101032  -0.137946  0  4.022813  0
C  C298  1  0.53829710  0.88949088  0.53109850  1  -0.033591  0  -0.10109  -0.138096  0  4.022763  0
C  C299  1  0.96170738  0.38949113  0.96890506  1  -0.033996  0  -0.101118  -0.138112  0  4.022943  0
C  C300  1  0.67099057  0.91918987  0.07616892  1  1.566118  0  0.211269  0.588096  0  4.182909  0
C  C301  1  0.82900539  0.41918992  0.42383005  1  1.566041  0  0.211326  0.58805  0  4.18294  0
C  C302  1  0.32900772  0.08080805  0.92383009  1  1.565553  0  0.211288  0.588086  0  4.182739  0
C  C303  1  0.17099350  0.58080907  0.57616907  1  1.566055  0  0.211286  0.588063  0  4.183064  0
C  C304  1  0.66192053  0.55911352  0.40610018  1  1.567738  0  0.207432  0.586222  0  4.194436  0
C  C305  1  0.83807850  0.05911529  0.09390034  1  1.567736  0  0.207469  0.58634  0  4.194388  0
C  C306  1  0.33808136  0.44088278  0.59389992  1  1.567717  0  0.207524  0.586426  0  4.194371  0
C  C307  1  0.16191919  0.94088586  0.90609856  1  1.56775  0  0.207429  0.586169  0  4.194609  0
C  C308  1  0.93636170  0.09172544  0.88202403  1  -0.047909  0  -0.082212  -0.072025  0  3.981564  0
C  C309  1  0.56363692  0.59172481  0.61797636  1  -0.048109  0  -0.08222  -0.072085  0  3.98177  0
C  C310  1  0.06363177  0.90827679  0.11797736  1  -0.047986  0  -0.082143  -0.071891  0  3.981536  0
C  C311  1  0.43636197  0.40827635  0.38202321  1  -0.048073  0  -0.082212  -0.072092  0  3.981597  0
C  C312  1  0.86286485  0.11488462  0.89397133  1  -0.056537  0  -0.029756  -0.059781  0  3.98788  0
C  C313  1  0.63713502  0.61488296  0.60602975  1  -0.056524  0  -0.029711  -0.05967  0  3.987807  0
C  C314  1  0.13713103  0.88511869  0.10602817  1  -0.056222  0  -0.029761  -0.059809  0  3.987696  0
C  C315  1  0.36286448  0.38511874  0.39397085  1  -0.056509  0  -0.0297  -0.059669  0  3.987715  0
C  C316  1  0.63202131  0.29120409  0.46529009  1  0.484453  0  0.051415  0.096534  0  3.940337  0
C  C317  1  0.86797987  0.79120418  0.03470921  1  0.484475  0  0.051496  0.09663  0  3.940276  0
C  C318  1  0.36797998  0.70879598  0.53470852  1  0.484533  0  0.051446  0.096522  0  3.940412  0
C  C319  1  0.13202263  0.20879644  0.96529100  1  0.484449  0  0.051411  0.096455  0  3.940381  0
C  C320  1  0.81494615  0.06776058  0.92789060  1  1.573478  0  0.210964  0.589003  0  4.181087  0
C  C321  1  0.68505305  0.56775999  0.57211032  1  1.573403  0  0.210964  0.58903  0  4.18114  0
C  C322  1  0.18504974  0.93224004  0.07210891  1  1.573399  0  0.211011  0.589171  0  4.181185  0
C  C323  1  0.31494705  0.43224224  0.42789084  1  1.5735  0  0.210925  0.588967  0  4.181251  0
C  C324  1  0.14491486  0.78453846  0.48836665  1  0.02124  0  -0.093211  -0.128203  0  3.985999  0
C  C325  1  0.35508531  0.28453797  0.01163217  1  0.021174  0  -0.093304  -0.128391  0  3.98624  0
C  C326  1  0.85508464  0.21546216  0.51163211  1  0.021209  0  -0.093288  -0.128319  0  3.986102  0
C  C327  1  0.64491598  0.71546157  0.98836737  1  0.021193  0  -0.093261  -0.128289  0  3.986195  0
C  C328  1  0.24459358  0.00620724  0.50968192  1  0.011742  0  -0.074679  -0.128207  0  3.892962  0
C  C329  1  0.25540692  0.50620784  0.99031979  1  0.011771  0  -0.074635  -0.128105  0  3.892916  0
C  C330  1  0.75540832  0.99379229  0.49031818  1  0.011825  0  -0.074645  -0.128056  0  3.892914  0
C  C331  1  0.74459437  0.49379224  0.00968251  1  0.011918  0  -0.074685  -0.128127  0  3.892991  0
C  C332  1  0.18893713  0.84939902  0.49499148  1  0.010729  0  -0.106712  -0.151549  0  4.022951  0
C  C333  1  0.31106194  0.34939632  0.00500720  1  0.010793  0  -0.106668  -0.151487  0  4.022635  0
C  C334  1  0.81106297  0.15060160  0.50500738  1  0.010742  0  -0.106709  -0.151505  0  4.02291  0
C  C335  1  0.68893876  0.65060267  0.99499269  1  0.010388  0  -0.10666  -0.151492  0  4.02266  0
S  S336  1  0.37416357  0.19161842  0.52209628  1  0.243735  0  0.109739  0.117293  0  2.903323  0
S  S337  1  0.12583842  0.69161834  0.97790542  1  0.243741  0  0.109746  0.11734  0  2.903265  0
S  S338  1  0.62583893  0.80838165  0.47790485  1  0.243719  0  0.109773  0.117342  0  2.903211  0
S  S339  1  0.87416528  0.30838120  0.02209730  1  0.243492  0  0.10977  0.117375  0  2.903213  0
S  S340  1  0.05571264  0.87929503  0.52569411  1  0.218602  0  0.096244  0.098988  0  2.897253  0
S  S341  1  0.44428601  0.37929419  0.97430350  1  0.218894  0  0.09624  0.098984  0  2.897241  0
S  S342  1  0.94428685  0.12070558  0.47430372  1  0.218866  0  0.096263  0.099013  0  2.897179  0
S  S343  1  0.55571348  0.62070481  0.02569525  1  0.218805  0  0.096263  0.099045  0  2.897191  0
N  N344  1  0.62093944  0.35456013  0.49259264  1  -1.249356  0  -0.327759  -0.211997  0  3.53441  0
N  N345  1  0.87906184  0.85456181  0.00740581  1  -1.249334  0  -0.327818  -0.212053  0  3.534297  0
N  N346  1  0.37906366  0.64544048  0.50740629  1  -1.249302  0  -0.327846  -0.212071  0  3.534257  0
N  N347  1  0.12093946  0.14543827  0.99259464  1  -1.249291  0  -0.327838  -0.212001  0  3.534234  0
N  N348  1  0.89831800  0.62653029  0.50562561  1  -1.259401  0  -0.331361  -0.218142  0  3.540202  0
N  N349  1  0.60168308  0.12652968  0.99437524  1  -1.259575  0  -0.331374  -0.21817  0  3.540095  0
N  N350  1  0.10168329  0.37346925  0.49437531  1  -1.259559  0  -0.331367  -0.218119  0  3.54002  0
N  N351  1  0.39831701  0.87346986  0.00562362  1  -1.259521  0  -0.331333  -0.218006  0  3.539907  0
N  N352  1  0.14886523  0.10243921  0.55939483  1  -1.190292  0  -0.32872  -0.252536  0  3.382004  0
N  N353  1  0.35113542  0.60243930  0.94060563  1  -1.190304  0  -0.328716  -0.25248  0  3.382074  0
N  N354  1  0.85113727  0.89756032  0.44060676  1  -1.190389  0  -0.328639  -0.252389  0  3.38229  0
N  N355  1  0.64886587  0.39756024  0.05939483  1  -1.19031  0  -0.328657  -0.252371  0  3.38216  0
O  O356  1  0.99991593  0.25075747  0.80568752  1  -1.101533  0  -0.159484  -0.227625  0  2.536267  0
O  O357  1  0.50008294  0.75075795  0.69431215  1  -1.10156  0  -0.159505  -0.227595  0  2.536182  0
O  O358  1  0.00008055  0.74924800  0.19431993  1  -1.101572  0  -0.159629  -0.227212  0  2.535859  0
O  O359  1  0.49991475  0.24924213  0.30568583  1  -1.101474  0  -0.15952  -0.227056  0  2.535891  0
O  O360  1  0.49707611  0.75734835  0.22312813  1  -1.110124  0  -0.161485  -0.225671  0  2.526452  0
O  O361  1  0.00292342  0.25734411  0.27687515  1  -1.110096  0  -0.161476  -0.22565  0  2.526455  0
O  O362  1  0.50292398  0.24265388  0.77687396  1  -1.110102  0  -0.161455  -0.22567  0  2.526486  0
O  O363  1  0.99707487  0.74265489  0.72312478  1  -1.110158  0  -0.161444  -0.225566  0  2.526465  0
O  O364  1  0.74710499  0.09211634  0.93384552  1  -1.16932  0  -0.319214  -0.54974  0  2.341337  0
O  O365  1  0.75289424  0.59211690  0.56615497  1  -1.169243  0  -0.319266  -0.549806  0  2.341368  0
O  O366  1  0.25288729  0.90788211  0.06615243  1  -1.169221  0  -0.319261  -0.549875  0  2.341524  0
O  O367  1  0.24710645  0.40788426  0.43384676  1  -1.169228  0  -0.319233  -0.549772  0  2.341396  0
O  O368  1  0.63542607  0.97430611  0.04778892  1  -1.177886  0  -0.313597  -0.551543  0  2.363769  0
O  O369  1  0.86457238  0.47430569  0.45221238  1  -1.17786  0  -0.313555  -0.551474  0  2.363831  0
O  O370  1  0.36457342  0.02569181  0.95221214  1  -1.177911  0  -0.313552  -0.551494  0  2.36363  0
O  O371  1  0.13542771  0.52569438  0.54778833  1  -1.177894  0  -0.313541  -0.551445  0  2.363881  0
O  O372  1  0.88095895  0.48621892  0.58972203  1  -1.15902  0  -0.315773  -0.535927  0  2.285406  0
O  O373  1  0.61904267  0.98621658  0.91027836  1  -1.159329  0  -0.315775  -0.535889  0  2.2855  0
O  O374  1  0.11903994  0.51378061  0.41027616  1  -1.15904  0  -0.315818  -0.535901  0  2.285178  0
O  O375  1  0.38095922  0.01377810  0.08972313  1  -1.159261  0  -0.315756  -0.535926  0  2.285381  0
O  O376  1  0.78488375  0.40005145  0.56391289  1  -1.17576  0  -0.322988  -0.572113  0  2.363896  0
O  O377  1  0.71511534  0.90005301  0.93608512  1  -1.175756  0  -0.322986  -0.572071  0  2.364031  0
O  O378  1  0.21511454  0.59994647  0.43608612  1  -1.175727  0  -0.32295  -0.572035  0  2.364024  0
O  O379  1  0.28488596  0.09994760  0.06391211  1  -1.17568  0  -0.322982  -0.572096  0  2.363881  0
O  O380  1  0.62765065  0.50028396  0.41565662  1  -1.161548  0  -0.320217  -0.541234  0  2.27535  0
O  O381  1  0.87234649  0.00028413  0.08434352  1  -1.161457  0  -0.320202  -0.541241  0  2.275408  0
O  O382  1  0.37235005  0.49971342  0.58434281  1  -1.16141  0  -0.320268  -0.541305  0  2.275434  0
O  O383  1  0.12765120  0.99971864  0.91565400  1  -1.16155  0  -0.32019  -0.541185  0  2.27531  0
O  O384  1  0.73254258  0.57840797  0.43386696  1  -1.183514  0  -0.321988  -0.563125  0  2.354484  0
O  O385  1  0.76745588  0.07841017  0.06613256  1  -1.183573  0  -0.322015  -0.563198  0  2.354393  0
O  O386  1  0.26745871  0.42158833  0.56613349  1  -1.183418  0  -0.321987  -0.563189  0  2.354393  0
O  O387  1  0.23254000  0.92158991  0.93386787  1  -1.183453  0  -0.32202  -0.56315  0  2.354602  0
O  O388  1  0.84568106  0.00752037  0.94904572  1  -1.178434  0  -0.317361  -0.550587  0  2.329377  0
O  O389  1  0.65431745  0.50752027  0.55095456  1  -1.178378  0  -0.317301  -0.550545  0  2.329395  0
O  O390  1  0.15431723  0.99248132  0.05095420  1  -1.17845  0  -0.317366  -0.55063  0  2.329417  0
O  O391  1  0.34568144  0.49247927  0.44904594  1  -1.178521  0  -0.317347  -0.550545  0  2.329569  0
O  O392  1  0.73956508  0.89552812  0.07113386  1  -1.172076  0  -0.319624  -0.553092  0  2.335302  0
O  O393  1  0.76043145  0.39552919  0.42886380  1  -1.1714  0  -0.319772  -0.553187  0  2.335417  0
O  O394  1  0.26043261  0.10447034  0.92886366  1  -1.171449  0  -0.319709  -0.553168  0  2.335397  0
O  O395  1  0.23956804  0.60447035  0.57113588  1  -1.171384  0  -0.319735  -0.553179  0  2.335444  0
