# generated using pymatgen
data_Cu2H34C44N8O9
_symmetry_space_group_name_H-M   'P 1'
_cell_length_a   10.22436957
_cell_length_b   18.75089591
_cell_length_c   22.49028176
_cell_angle_alpha   97.06676746
_cell_angle_beta   89.99972321
_cell_angle_gamma   90.00034609
_symmetry_Int_Tables_number   1
_chemical_formula_structural   Cu2H34C44N8O9
_chemical_formula_sum   'Cu8 H136 C176 N32 O36'
_cell_volume   4278.99450762
_cell_formula_units_Z   4
loop_
 _symmetry_equiv_pos_site_id
 _symmetry_equiv_pos_as_xyz
  1  'x, y, z'
loop_
 _atom_site_type_symbol
 _atom_site_label
 _atom_site_symmetry_multiplicity
 _atom_site_fract_x
 _atom_site_fract_y
 _atom_site_fract_z
 _atom_site_occupancy
 _atom_site_pbe_bader_charge
 _atom_site_pbe_bader_spin_density
 _atom_site_pbe_cm5_charge
 _atom_site_pbe_ddec_charge
 _atom_site_pbe_ddec_spin_density
 _atom_site_pbe_ddec_sum_bond_order
 _atom_site_pbe_magmom
Cu  Cu0  1  0.46900681  0.10273459  0.67962802  1  1.03807  -0.55085  0.740186  0.757494  -0.767332  2.247463  -0.55
Cu  Cu1  1  0.96897984  0.39727875  0.82037766  1  1.038442  0.551679  0.740382  0.757678  0.72524  2.247764  0.551
Cu  Cu2  1  0.53099640  0.89726432  0.32037397  1  1.038103  -0.550845  0.740151  0.757478  -0.767331  2.247397  -0.55
Cu  Cu3  1  0.03102239  0.60272124  0.17962312  1  1.03849  0.551676  0.740374  0.757652  0.72523  2.247701  0.551
Cu  Cu4  1  0.45888504  0.76858922  0.61384498  1  1.045346  0.563591  0.741764  0.76667  0.738011  2.248904  0.562
Cu  Cu5  1  0.95889270  0.73138319  0.88616560  1  1.045656  0.564484  0.741853  0.76683  0.739169  2.248695  0.563
Cu  Cu6  1  0.54111328  0.23141131  0.38615541  1  1.04533  0.563589  0.741745  0.766612  0.738007  2.248903  0.562
Cu  Cu7  1  0.04110562  0.26861735  0.11383390  1  1.045645  0.564483  0.741851  0.766838  0.739166  2.248626  0.563
H  H8  1  0.21380005  0.77899244  0.80045996  1  0.109953  -0.000141  0.102969  0.103597  -0.000101  1.04741  0.0
H  H9  1  0.71378904  0.72100830  0.69954080  1  0.109983  0.000174  0.102966  0.103565  4.9e-05  1.047408  0.0
H  H10  1  0.78619925  0.22100487  0.19953831  1  0.109985  -0.000141  0.102983  0.103564  -0.000101  1.047462  0.0
H  H11  1  0.28620831  0.27899224  0.30045736  1  0.109934  0.000174  0.102964  0.103561  4.9e-05  1.047452  0.0
H  H12  1  0.06569411  0.85041591  0.87308173  1  0.110189  -0.000347  0.101022  0.108861  -0.000353  1.078805  0.0
H  H13  1  0.56570361  0.64957902  0.62691563  1  0.110189  -0.000299  0.101016  0.108761  -0.0003  1.078841  0.0
H  H14  1  0.93430226  0.14958194  0.12691748  1  0.110122  -0.000347  0.101024  0.108832  -0.000353  1.078825  0.0
H  H15  1  0.43429569  0.35041991  0.37308103  1  0.110226  -0.000299  0.101018  0.108778  -0.0003  1.078875  0.0
H  H16  1  0.23205714  0.04531291  0.82321112  1  0.043273  -3.6e-05  0.103628  0.117461  -1.6e-05  1.038296  0.0
H  H17  1  0.73204896  0.45468360  0.67679243  1  0.043372  7.8e-05  0.103574  0.117349  1.1e-05  1.038318  0.0
H  H18  1  0.76794314  0.95468654  0.17679004  1  0.043245  -3.6e-05  0.10361  0.117443  -1.6e-05  1.038259  0.0
H  H19  1  0.26794839  0.54531586  0.32320829  1  0.043479  7.8e-05  0.103593  0.117385  1.1e-05  1.038318  0.0
H  H20  1  0.05860525  0.08748790  0.98133227  1  0.086522  0.000181  0.106693  0.122931  0.000122  1.018245  0.0
H  H21  1  0.55862664  0.41251242  0.51866450  1  0.08555  7.6e-05  0.106739  0.122908  0.000107  1.018226  0.0
H  H22  1  0.94138623  0.91250995  0.01866828  1  0.086551  0.000181  0.106704  0.122931  0.000122  1.018154  0.0
H  H23  1  0.44137462  0.58748488  0.48133866  1  0.085453  7.6e-05  0.106715  0.122886  0.000107  1.018129  0.0
H  H24  1  0.91861966  0.17177344  0.79068689  1  0.085506  0.000324  0.098347  0.098019  0.00013  1.025901  0.0
H  H25  1  0.41857839  0.32822582  0.70930541  1  0.085933  0.000176  0.098214  0.097954  0.000116  1.025946  0.0
H  H26  1  0.08138356  0.82822548  0.20931199  1  0.085515  0.000324  0.098346  0.098051  0.00013  1.025861  0.0
H  H27  1  0.58142091  0.67177741  0.29069259  1  0.085918  0.000176  0.098249  0.098004  0.000116  1.025969  0.0
H  H28  1  0.97009203  0.04354274  0.79328055  1  0.131464  7.9e-05  0.101263  0.113065  2.2e-05  1.054897  0.0
H  H29  1  0.47006982  0.45645130  0.70671510  1  0.131629  -7.1e-05  0.101229  0.11306  -9e-06  1.054865  0.0
H  H30  1  0.02990923  0.95645834  0.20671900  1  0.131439  7.9e-05  0.101296  0.113159  2.2e-05  1.054899  0.0
H  H31  1  0.52992362  0.54355032  0.29328407  1  0.131615  -7.1e-05  0.101239  0.113059  -9e-06  1.054903  0.0
H  H32  1  0.61957526  0.11740876  0.55694741  1  0.232848  -0.000213  0.135644  0.125157  1e-05  1.02494  0.0
H  H33  1  0.11957906  0.38259175  0.94304613  1  0.232901  0.000235  0.135695  0.125233  4.5e-05  1.024915  0.0
H  H34  1  0.38042600  0.88259177  0.44305342  1  0.232851  -0.000213  0.135655  0.125165  1e-05  1.024926  0.0
H  H35  1  0.88041926  0.61740824  0.05695509  1  0.232919  0.000235  0.135688  0.125232  4.5e-05  1.024916  0.0
H  H36  1  0.48946183  0.93456793  0.63329157  1  0.159174  -0.000907  0.116567  0.116898  -0.00043  1.060115  -0.001
H  H37  1  0.98945808  0.56543257  0.86670945  1  0.159147  0.000615  0.116559  0.116844  0.000215  1.060105  0.001
H  H38  1  0.51053552  0.06543153  0.36670782  1  0.159203  -0.000908  0.116568  0.116901  -0.00043  1.060071  -0.001
H  H39  1  0.01054220  0.43456689  0.13329038  1  0.159147  0.000614  0.116525  0.116792  0.000215  1.06019  0.001
H  H40  1  0.61710425  0.88970777  0.52615323  1  0.142347  -0.00112  0.124285  0.134011  -0.000601  1.016092  -0.001
H  H41  1  0.11710959  0.61029430  0.97384611  1  0.142364  0.001069  0.124272  0.134011  0.000533  1.016181  0.001
H  H42  1  0.38289506  0.11029330  0.47384677  1  0.142341  -0.001121  0.124292  0.134024  -0.000601  1.0161  -0.001
H  H43  1  0.88289166  0.38970516  0.02615327  1  0.142352  0.001069  0.124266  0.133985  0.000533  1.016209  0.001
H  H44  1  0.69789325  0.05548370  0.45407686  1  0.120331  1.5e-05  0.121118  0.11386  1e-05  0.967523  0.0
H  H45  1  0.19788826  0.44451690  0.04592249  1  0.120012  -3.3e-05  0.121102  0.113802  -3.7e-05  0.967589  0.0
H  H46  1  0.30210898  0.94451522  0.54592336  1  0.1203  1.5e-05  0.121103  0.113824  1e-05  0.967529  0.0
H  H47  1  0.80211202  0.55548310  0.95407784  1  0.120037  -3.3e-05  0.121094  0.113776  -3.7e-05  0.967612  0.0
H  H48  1  0.69273811  0.96017097  0.44089868  1  0.103203  -0.000257  0.117643  0.109984  -0.000135  0.991927  0.0
H  H49  1  0.19273828  0.53983120  0.05910069  1  0.103283  0.000259  0.117673  0.110022  0.000123  0.991898  0.0
H  H50  1  0.30726412  0.03982956  0.55910082  1  0.103204  -0.000257  0.117649  0.109994  -0.000134  0.991908  0.0
H  H51  1  0.80726005  0.46016934  0.94089970  1  0.103416  0.000258  0.117664  0.110011  0.000123  0.991886  0.0
H  H52  1  0.86145979  0.89130857  0.50185812  1  0.069144  -1.2e-05  0.101889  0.100164  -1.6e-05  1.015531  0.0
H  H53  1  0.36146095  0.60869208  0.99814275  1  0.069099  2.1e-05  0.101906  0.100196  2.1e-05  1.015511  0.0
H  H54  1  0.13854147  0.10869035  0.49814210  1  0.06895  -1.2e-05  0.101862  0.100157  -1.6e-05  1.015531  0.0
H  H55  1  0.63853933  0.39130952  0.00185997  1  0.068992  2.1e-05  0.101877  0.100171  2.1e-05  1.015496  0.0
H  H56  1  0.90158329  0.11332092  0.47380389  1  0.063918  1e-05  0.101263  0.099719  5e-06  1.000954  0.0
H  H57  1  0.40157982  0.38667867  0.02619757  1  0.063883  -2e-06  0.101257  0.099739  -7e-06  1.000859  0.0
H  H58  1  0.09841601  0.88667800  0.52619588  1  0.063933  1e-05  0.101266  0.099744  5e-06  1.000919  0.0
H  H59  1  0.59841850  0.61332132  0.97380543  1  0.063928  -2e-06  0.101247  0.099708  -7e-06  1.000946  0.0
H  H60  1  0.23624042  0.46893609  0.50200724  1  0.085367  6e-06  0.10073  0.10475  4e-06  1.002431  0.0
H  H61  1  0.73623978  0.03106691  0.99799164  1  0.085308  -1e-06  0.100793  0.104892  -3e-06  1.002508  0.0
H  H62  1  0.76375888  0.53106714  0.49799121  1  0.085307  6e-06  0.100792  0.104874  4e-06  1.002535  0.0
H  H63  1  0.26375854  0.96893633  0.00200547  1  0.085364  -1e-06  0.100722  0.104765  -3e-06  1.002369  0.0
H  H64  1  0.88943963  0.55748725  0.59211517  1  0.055054  3.3e-05  0.098041  0.100564  2.2e-05  1.035393  0.0
H  H65  1  0.38943860  0.94251457  0.90788265  1  0.055044  -1.4e-05  0.09807  0.100586  -1.2e-05  1.035316  0.0
H  H66  1  0.11056261  0.44251544  0.40788322  1  0.055047  3.3e-05  0.098057  0.100563  2.2e-05  1.035321  0.0
H  H67  1  0.61056266  0.05748866  0.09211402  1  0.055027  -1.4e-05  0.098033  0.1006  -1.2e-05  1.035346  0.0
H  H68  1  0.23991361  0.50198961  0.60902558  1  0.076211  7e-06  0.114526  0.101424  -4e-06  0.97772  0.0
H  H69  1  0.73991635  0.99801014  0.89097413  1  0.076141  1.6e-05  0.11448  0.101366  7e-06  0.977754  0.0
H  H70  1  0.76008471  0.49801039  0.39097430  1  0.07618  7e-06  0.114509  0.101388  -4e-06  0.977715  0.0
H  H71  1  0.26009175  0.00199040  0.10902404  1  0.076282  1.6e-05  0.114444  0.101258  7e-06  0.977739  0.0
H  H72  1  0.09344090  0.52187030  0.65043919  1  0.160869  0.000249  0.114956  0.121075  0.000139  1.001617  0.0
H  H73  1  0.59344484  0.97813063  0.84956096  1  0.160852  0.000321  0.114952  0.121077  0.000186  1.001713  0.0
H  H74  1  0.90655351  0.47812970  0.34956158  1  0.16089  0.000249  0.114969  0.121087  0.000139  1.001667  0.0
H  H75  1  0.40656033  0.02187153  0.15043781  1  0.160641  0.000321  0.114989  0.121103  0.000186  1.00164  0.0
H  H76  1  0.37692621  0.60627114  0.58083320  1  0.16163  0.000299  0.134442  0.103631  5.2e-05  1.035246  0.0
H  H77  1  0.87692358  0.89371935  0.91916523  1  0.162139  0.000315  0.134411  0.10362  6.7e-05  1.03525  0.0
H  H78  1  0.62307114  0.39372886  0.41916668  1  0.161608  0.000298  0.134432  0.103613  5.2e-05  1.035241  0.0
H  H79  1  0.12307865  0.10627903  0.08083449  1  0.161928  0.000315  0.134426  0.103648  6.7e-05  1.035201  0.0
H  H80  1  0.01475015  0.65676853  0.66747079  1  0.191368  0.000845  0.120528  0.123726  0.000436  1.052922  0.001
H  H81  1  0.51473615  0.84323700  0.83252781  1  0.191122  0.000821  0.120555  0.123813  0.000408  1.052988  0.001
H  H82  1  0.98525111  0.34323200  0.33253004  1  0.191378  0.000845  0.120533  0.123732  0.000436  1.05292  0.001
H  H83  1  0.48526804  0.15676407  0.16747130  1  0.191126  0.000821  0.120544  0.12378  0.000408  1.053009  0.001
H  H84  1  0.15916954  0.78146750  0.66473506  1  0.150255  0.000674  0.118229  0.114025  0.000276  1.013534  0.001
H  H85  1  0.65916098  0.71853577  0.83526476  1  0.15047  0.000675  0.118167  0.113984  0.000274  1.013584  0.001
H  H86  1  0.84082780  0.21853303  0.33526577  1  0.150278  0.000674  0.11823  0.114052  0.000276  1.0135  0.001
H  H87  1  0.34083833  0.28146585  0.16473352  1  0.150439  0.000675  0.118173  0.113953  0.000274  1.013619  0.001
H  H88  1  0.12617528  0.62706697  0.79037162  1  0.181772  0.000375  0.138156  0.114749  9.2e-05  1.032046  0.0
H  H89  1  0.62616780  0.87293137  0.70962597  1  0.181795  0.000353  0.138176  0.114813  4.4e-05  1.032069  0.0
H  H90  1  0.87382500  0.37293141  0.20962854  1  0.181797  0.000375  0.138165  0.114754  9.2e-05  1.032066  0.0
H  H91  1  0.37382955  0.12706755  0.29037336  1  0.181778  0.000353  0.13819  0.114859  4.4e-05  1.032042  0.0
H  H92  1  0.23786025  0.75303677  0.95124359  1  0.138841  0.000587  0.123713  0.12768  0.00022  0.993908  0.001
H  H93  1  0.73785797  0.74696298  0.54875435  1  0.13881  0.000591  0.123717  0.127715  0.000223  0.993922  0.001
H  H94  1  0.76214003  0.24696431  0.04875552  1  0.138865  0.000587  0.1237  0.127688  0.00022  0.993893  0.001
H  H95  1  0.26214036  0.25303647  0.45124637  1  0.138847  0.000591  0.123707  0.127727  0.000223  0.993916  0.001
H  H96  1  0.45992279  0.69081591  0.89475316  1  0.142706  0.001095  0.124422  0.121959  0.000558  1.012348  0.001
H  H97  1  0.95991278  0.80918504  0.60524619  1  0.142857  0.001093  0.12434  0.121905  0.000559  1.012307  0.001
H  H98  1  0.54007651  0.30918462  0.10524678  1  0.142699  0.001095  0.124397  0.121938  0.000558  1.012381  0.001
H  H99  1  0.04008554  0.19081442  0.39475319  1  0.142857  0.001093  0.124331  0.121879  0.000559  1.012363  0.001
H  H100  1  0.34483237  0.59901558  0.74345426  1  0.051762  1.2e-05  0.122339  0.117171  1e-06  0.947294  0.0
H  H101  1  0.84482960  0.90098395  0.75654564  1  0.051731  2.1e-05  0.122401  0.117244  -4e-06  0.947359  0.0
H  H102  1  0.65516595  0.40098335  0.25654596  1  0.051735  1.2e-05  0.122394  0.117244  1e-06  0.947313  0.0
H  H103  1  0.15516873  0.09901605  0.24345291  1  0.051454  2.1e-05  0.122401  0.117237  -4e-06  0.94736  0.0
H  H104  1  0.48818399  0.63286370  0.78036177  1  0.102124  0.000215  0.118379  0.113114  0.000126  0.976066  0.0
H  H105  1  0.98817634  0.86713572  0.71963735  1  0.102265  0.000205  0.118435  0.113201  0.000128  0.976092  0.0
H  H106  1  0.51182020  0.36713683  0.21963817  1  0.102148  0.000215  0.11843  0.113207  0.000126  0.976091  0.0
H  H107  1  0.01182296  0.13286320  0.28036242  1  0.102273  0.000205  0.118403  0.113162  0.000128  0.976112  0.0
H  H108  1  0.22179118  0.49516404  0.79367032  1  0.136065  -5.7e-05  0.098247  0.105667  -6.4e-05  1.056474  0.0
H  H109  1  0.72178455  0.00483406  0.70633120  1  0.135964  4.6e-05  0.098243  0.105668  4.3e-05  1.056547  0.0
H  H110  1  0.77821203  0.50483434  0.20633029  1  0.136019  -5.7e-05  0.098262  0.105676  -6.4e-05  1.056572  0.0
H  H111  1  0.27821475  0.99516486  0.29366858  1  0.136004  4.6e-05  0.098245  0.105677  4.3e-05  1.056511  0.0
H  H112  1  0.26100353  0.37636601  0.82645773  1  0.067669  -0.000289  0.096803  0.092116  -0.000276  1.050788  0.0
H  H113  1  0.76100149  0.12363436  0.67354349  1  0.067655  0.000287  0.096786  0.092074  0.000262  1.050829  0.0
H  H114  1  0.73900067  0.62363398  0.17354305  1  0.067646  -0.000289  0.096799  0.09207  -0.000276  1.050789  0.0
H  H115  1  0.23899781  0.87636617  0.32645645  1  0.067667  0.000287  0.096785  0.092067  0.000262  1.050803  0.0
H  H116  1  0.67079716  0.42644867  0.84935193  1  0.121085  -9.4e-05  0.102389  0.106263  -0.000113  1.030917  0.0
H  H117  1  0.17079575  0.07355036  0.65064846  1  0.121088  9.8e-05  0.10238  0.106237  9.6e-05  1.030938  0.0
H  H118  1  0.32920312  0.57355187  0.15064846  1  0.121063  -9.4e-05  0.102385  0.106233  -0.000113  1.030925  0.0
H  H119  1  0.82920257  0.92644856  0.34935176  1  0.121065  9.8e-05  0.102386  0.10624  9.7e-05  1.030933  0.0
H  H120  1  0.63155743  0.54649245  0.81882886  1  0.070976  0.000186  0.100787  0.108413  0.000199  1.016093  0.0
H  H121  1  0.13155110  0.95350967  0.68117178  1  0.071058  -0.000121  0.100814  0.108448  -0.000104  1.016156  0.0
H  H122  1  0.36844578  0.45350809  0.18117153  1  0.071185  0.000186  0.100792  0.108416  0.000199  1.016152  0.0
H  H123  1  0.86844624  0.04648980  0.31882760  1  0.071174  -0.000121  0.100802  0.108407  -0.000104  1.016163  0.0
H  H124  1  0.44974499  0.32181841  0.90837277  1  0.065258  -0.000191  0.117124  0.106647  -0.000113  0.963921  0.0
H  H125  1  0.94974638  0.17817931  0.59162597  1  0.065237  0.000213  0.117149  0.106652  0.000116  0.963931  0.0
H  H126  1  0.55025627  0.67818105  0.09162794  1  0.065271  -0.000191  0.117125  0.106616  -0.000113  0.963934  0.0
H  H127  1  0.05025390  0.82181961  0.40837380  1  0.065229  0.000213  0.117149  0.106668  0.000116  0.963898  0.0
H  H128  1  0.59990991  0.31327949  0.86896165  1  0.14282  -5.5e-05  0.118004  0.121514  -2e-05  0.991849  0.0
H  H129  1  0.09990996  0.18671933  0.63103754  1  0.142844  5.7e-05  0.117989  0.121482  1.6e-05  0.991897  0.0
H  H130  1  0.40009037  0.68671943  0.13103901  1  0.142826  -5.5e-05  0.118005  0.121529  -2e-05  0.991814  0.0
H  H131  1  0.90009423  0.81328013  0.36896185  1  0.142869  5.7e-05  0.118006  0.121508  1.6e-05  0.991929  0.0
H  H132  1  0.60494698  0.23129889  0.76689023  1  0.157922  -0.0004  0.13864  0.107037  -0.000113  1.001472  0.0
H  H133  1  0.10494197  0.26870048  0.73310945  1  0.158014  0.000402  0.138629  0.107057  9.9e-05  1.001446  0.0
H  H134  1  0.39505428  0.76869950  0.23310948  1  0.157991  -0.0004  0.138656  0.107065  -0.000113  1.001464  0.0
H  H135  1  0.89505929  0.73129897  0.26689083  1  0.158019  0.000402  0.138605  0.106983  9.9e-05  1.001492  0.0
H  H136  1  0.24293897  0.25517209  0.85960336  1  0.175324  -0.000448  0.12429  0.138724  -2.6e-05  1.025509  0.0
H  H137  1  0.74294059  0.24482825  0.64039211  1  0.175039  0.000441  0.124287  0.138721  -1.7e-05  1.025491  0.0
H  H138  1  0.75706033  0.74482791  0.14039563  1  0.175288  -0.000448  0.124275  0.138702  -2.6e-05  1.025482  0.0
H  H139  1  0.25706067  0.75517283  0.35960744  1  0.175039  0.000441  0.124285  0.138723  -1.7e-05  1.025551  0.0
H  H140  1  0.22775255  0.14002292  0.76911555  1  0.129634  -0.000767  0.118766  0.115136  -0.00036  1.024144  -0.001
H  H141  1  0.72775057  0.35997629  0.73088251  1  0.12969  0.00078  0.118796  0.115231  0.00034  1.024069  0.001
H  H142  1  0.77224675  0.85997762  0.23088395  1  0.129606  -0.000767  0.11879  0.11518  -0.00036  1.024143  -0.001
H  H143  1  0.27224873  0.64002478  0.26911749  1  0.129671  0.00078  0.118786  0.115208  0.000341  1.024123  0.001
C  C144  1  0.38549147  0.82381636  0.72634523  1  1.554511  -0.001696  0.192032  0.555052  -0.000446  4.249022  -0.004
C  C145  1  0.88549385  0.67619190  0.77365283  1  1.554866  -0.001325  0.191996  0.555113  -0.000254  4.24938  -0.004
C  C146  1  0.61451076  0.17618364  0.27365466  1  1.554521  -0.001696  0.192042  0.555028  -0.000446  4.249021  -0.004
C  C147  1  0.11450643  0.32380810  0.22634661  1  1.55476  -0.001325  0.192062  0.555284  -0.000254  4.249129  -0.004
C  C148  1  0.30675901  0.87117317  0.77152904  1  -0.084913  0.006524  -0.027955  -0.091839  0.004834  3.991738  0.006
C  C149  1  0.80676428  0.62883000  0.72847266  1  -0.084668  0.012477  -0.027991  -0.091961  0.008661  3.991555  0.009
C  C150  1  0.69324029  0.12882629  0.22847079  1  -0.084924  0.006524  -0.027947  -0.091866  0.004834  3.991809  0.006
C  C151  1  0.19323796  0.37116946  0.27152628  1  -0.084841  0.012478  -0.027946  -0.091887  0.008661  3.991512  0.009
C  C152  1  0.21822018  0.83730987  0.80627071  1  0.021432  0.001415  -0.085881  -0.073059  0.000883  4.004317  0.001
C  C153  1  0.71821934  0.66269142  0.69373099  1  0.021422  0.001393  -0.085838  -0.073039  0.000919  4.004289  0.001
C  C154  1  0.78177815  0.16269013  0.19372873  1  0.021409  0.001414  -0.085889  -0.073017  0.000883  4.004359  0.001
C  C155  1  0.28178192  0.33730805  0.30626706  1  0.021569  0.001393  -0.085861  -0.073084  0.000919  4.004382  0.001
C  C156  1  0.13349809  0.87678596  0.84571855  1  -0.071161  -0.001837  -0.104528  -0.20067  -0.001269  3.9959  -0.001
C  C157  1  0.63350115  0.62321346  0.65428492  1  -0.07153  0.004369  -0.10446  -0.200463  0.002862  3.99579  0.003
C  C158  1  0.86650023  0.12321351  0.15428083  1  -0.071061  -0.001836  -0.104571  -0.200656  -0.001268  3.995876  -0.001
C  C159  1  0.36649816  0.37678654  0.34571452  1  -0.071505  0.00437  -0.104484  -0.200489  0.002863  3.995823  0.003
C  C160  1  0.13678474  0.95162576  0.85086125  1  0.443473  0.000998  0.082138  0.26285  0.000717  4.042901  0.001
C  C161  1  0.63678702  0.54837259  0.64914477  1  0.442898  0.000297  0.082052  0.262882  0.000103  4.042976  0.0
C  C162  1  0.86321260  0.04837424  0.14913775  1  0.443465  0.000998  0.082194  0.262868  0.000717  4.042797  0.001
C  C163  1  0.36321228  0.45162848  0.35085568  1  0.442966  0.000297  0.082078  0.262884  0.000103  4.042945  0.0
C  C164  1  0.22660190  0.98689615  0.81779128  1  0.030342  -0.002562  -0.105169  -0.242858  -0.001858  3.98074  -0.001
C  C165  1  0.72659366  0.51310353  0.68221690  1  0.0303  0.002499  -0.104961  -0.242593  0.001642  3.980667  0.001
C  C166  1  0.77339545  0.01310385  0.18220816  1  0.030382  -0.002562  -0.10521  -0.242915  -0.001858  3.980619  -0.001
C  C167  1  0.27340173  0.48689701  0.31778215  1  0.030226  0.0025  -0.104965  -0.242532  0.001642  3.98053  0.001
C  C168  1  0.31133768  0.94665937  0.77791175  1  -0.043894  -0.0091  -0.009792  -0.013161  -0.006831  3.955892  -0.008
C  C169  1  0.81134119  0.55334004  0.72209443  1  -0.043557  0.009834  -0.009846  -0.013233  0.007042  3.95552  0.008
C  C170  1  0.68866065  0.05334063  0.22208858  1  -0.043922  -0.009101  -0.009757  -0.013069  -0.006832  3.955755  -0.008
C  C171  1  0.18865518  0.44665942  0.27790495  1  -0.043781  0.009834  -0.009943  -0.013478  0.007041  3.955836  0.008
C  C172  1  0.41128555  0.98599407  0.74497515  1  1.581753  0.001292  0.20649  0.580289  -0.000284  4.216568  0.003
C  C173  1  0.91129611  0.51400085  0.75501923  1  1.582854  -0.000571  0.206492  0.580112  0.000752  4.216943  -0.003
C  C174  1  0.58871473  0.01400593  0.25502563  1  1.581764  0.001292  0.206407  0.580071  -0.000285  4.216653  0.003
C  C175  1  0.08870320  0.48599807  0.24498143  1  1.583071  -0.000572  0.206509  0.580141  0.000753  4.21697  -0.003
C  C176  1  0.02068834  0.05863390  0.88757884  1  0.367796  0.004309  0.073123  0.237523  0.002813  4.083917  0.003
C  C177  1  0.52070221  0.44136200  0.61241711  1  0.367817  -0.0045  0.073118  0.237411  -0.00325  4.084541  -0.003
C  C178  1  0.97930803  0.94136502  0.11242138  1  0.367764  0.00431  0.073102  0.23752  0.002813  4.083906  0.003
C  C179  1  0.47929514  0.55863800  0.38758145  1  0.367896  -0.0045  0.073015  0.237259  -0.00325  4.084554  -0.003
C  C180  1  0.02848343  0.10650380  0.93963947  1  0.056661  0.000812  -0.095651  -0.208665  0.000728  3.970744  0.0
C  C181  1  0.52852960  0.39350018  0.56035864  1  0.057345  0.001797  -0.095876  -0.208485  0.00121  3.970867  0.001
C  C182  1  0.97151001  0.89349512  0.06036163  1  0.056693  0.000812  -0.095645  -0.208601  0.000727  3.97057  0.0
C  C183  1  0.47147166  0.60649820  0.43964197  1  0.057419  0.001796  -0.095711  -0.208355  0.00121  3.970616  0.001
C  C184  1  0.00119120  0.17949179  0.93809936  1  -0.006544  0.012162  -0.01299  -0.025949  0.008445  3.957911  0.009
C  C185  1  0.50126980  0.32050940  0.56190653  1  -0.007071  0.00344  -0.013148  -0.026477  0.002708  3.9585  0.003
C  C186  1  0.99880321  0.82050659  0.06190214  1  -0.006486  0.012163  -0.013008  -0.02595  0.008445  3.957931  0.009
C  C187  1  0.49873537  0.67949113  0.43809564  1  -0.007077  0.003439  -0.013195  -0.026448  0.002707  3.958432  0.003
C  C188  1  0.96389548  0.20374316  0.88406668  1  -0.012206  0.010046  -0.010795  -0.038927  0.007131  3.93035  0.008
C  C189  1  0.46390375  0.29625410  0.61592398  1  -0.011747  -0.004787  -0.010701  -0.03886  -0.004048  3.930005  -0.004
C  C190  1  0.03610382  0.79625576  0.11593443  1  -0.012292  0.010046  -0.010875  -0.039076  0.007131  3.93042  0.008
C  C191  1  0.53610044  0.70374267  0.38407601  1  -0.012037  -0.004787  -0.010781  -0.038988  -0.004048  3.929861  -0.004
C  C192  1  0.95052546  0.15379946  0.83265374  1  -0.093561  0.004832  -0.089341  -0.087812  0.003126  3.986737  0.003
C  C193  1  0.45054352  0.34619343  0.66734405  1  -0.094163  -0.003898  -0.089289  -0.087845  -0.002657  3.986777  -0.002
C  C194  1  0.04947482  0.84620107  0.16734664  1  -0.093596  0.004832  -0.089303  -0.087765  0.003126  3.986671  0.003
C  C195  1  0.54945774  0.65380550  0.33265306  1  -0.093858  -0.003897  -0.089296  -0.087855  -0.002657  3.986697  -0.002
C  C196  1  0.97852384  0.08139171  0.83386180  1  -0.034612  0.000535  -0.100871  -0.193258  0.000396  4.001168  0.0
C  C197  1  0.47854565  0.41859696  0.66613593  1  -0.034578  0.002567  -0.10077  -0.193143  0.001601  4.001357  0.002
C  C198  1  0.02147546  0.91860775  0.16613892  1  -0.03461  0.000535  -0.100887  -0.193386  0.000396  4.001294  0.0
C  C199  1  0.52145365  0.58140251  0.33386123  1  -0.034644  0.002567  -0.100753  -0.193099  0.001601  4.0013  0.002
C  C200  1  0.93934773  0.28148548  0.87725897  1  1.57705  -0.000539  0.198917  0.580798  0.000533  4.230159  -0.003
C  C201  1  0.43930323  0.21851709  0.62272874  1  1.576395  0.000669  0.198974  0.581132  -0.000758  4.230304  0.003
C  C202  1  0.06065255  0.71851452  0.12274136  1  1.577634  -0.000539  0.198887  0.580787  0.000532  4.230172  -0.003
C  C203  1  0.56069998  0.78148129  0.37727275  1  1.576413  0.000669  0.199133  0.581268  -0.000757  4.229868  0.003
C  C204  1  0.60570413  0.06204800  0.56525531  1  0.924436  0.001294  0.140548  0.094128  5.7e-05  3.873002  0.0
C  C205  1  0.10570276  0.43795298  0.93474498  1  0.924344  -0.001162  0.140456  0.093943  -0.000154  3.873044  0.0
C  C206  1  0.39429517  0.93795146  0.43474452  1  0.924307  0.001293  0.140504  0.094088  5.6e-05  3.872979  0.0
C  C207  1  0.89429849  0.56204594  0.06525524  1  0.924302  -0.001162  0.14048  0.093977  -0.000154  3.873124  0.0
C  C208  1  0.53901045  0.96567043  0.60262204  1  0.408423  -0.001229  -0.004799  -0.036425  -0.001667  3.99856  -0.001
C  C209  1  0.03900696  0.53433355  0.89738122  1  0.408918  0.001085  -0.004708  -0.036137  0.001326  3.998664  0.001
C  C210  1  0.46099179  0.03432849  0.39737862  1  0.40837  -0.001229  -0.004803  -0.03642  -0.001667  3.998615  -0.001
C  C211  1  0.96099332  0.46566591  0.10261905  1  0.408878  0.001086  -0.004701  -0.036128  0.001326  3.998718  0.001
C  C212  1  0.60286588  0.94284492  0.55006621  1  0.346506  -0.003486  0.002282  -0.100952  -0.002546  3.899093  -0.002
C  C213  1  0.10286894  0.55715657  0.94993488  1  0.346386  0.003368  0.002284  -0.101163  0.002294  3.899148  0.002
C  C214  1  0.39713342  0.05715454  0.44993407  1  0.346602  -0.003486  0.002266  -0.101013  -0.002546  3.899137  -0.002
C  C215  1  0.89713232  0.44284289  0.05006451  1  0.346404  0.003367  0.002274  -0.101148  0.002294  3.899162  0.002
C  C216  1  0.72263181  0.00608961  0.47307594  1  0.244953  -0.001095  -0.04483  -0.116908  -0.000861  3.882666  -0.001
C  C217  1  0.22262854  0.49391106  0.02692381  1  0.245163  0.001083  -0.044835  -0.116928  0.000802  3.882738  0.001
C  C218  1  0.27736749  0.99390985  0.52692434  1  0.244964  -0.001095  -0.044846  -0.116876  -0.000861  3.882735  -0.001
C  C219  1  0.77736880  0.50608947  0.97307702  1  0.245067  0.001083  -0.044815  -0.116836  0.000802  3.882732  0.001
C  C220  1  0.86644890  0.00283049  0.48655607  1  0.010119  -0.000107  -0.011582  0.093076  -7.5e-05  3.985001  0.0
C  C221  1  0.36644777  0.49717223  0.01344357  1  0.010329  0.000106  -0.011539  0.093133  6.7e-05  3.984968  0.0
C  C222  1  0.13355236  0.99717112  0.51344354  1  0.010104  -0.000107  -0.011571  0.093052  -7.5e-05  3.985139  0.0
C  C223  1  0.63355055  0.50282992  0.98655654  1  0.010135  0.000106  -0.011597  0.092947  6.7e-05  3.985127  0.0
C  C224  1  0.92221295  0.93904769  0.50107032  1  -0.003434  -0.000141  -0.089494  -0.122704  -0.000102  3.981624  0.0
C  C225  1  0.42221162  0.56095422  0.99892966  1  -0.003397  0.00014  -0.089565  -0.122864  9.9e-05  3.981671  0.0
C  C226  1  0.07778929  0.06095284  0.49892918  1  -0.003218  -0.000141  -0.089525  -0.12276  -0.000103  3.981698  0.0
C  C227  1  0.57778671  0.43904739  0.00107128  1  -0.003345  0.00014  -0.089474  -0.122685  9.9e-05  3.981624  0.0
C  C228  1  0.94508392  0.06365779  0.48554351  1  -0.114685  -0.000104  -0.090628  -0.135147  -6.6e-05  4.009605  0.0
C  C229  1  0.44508015  0.43634301  0.01445576  1  -0.114706  0.000109  -0.090673  -0.135236  6.5e-05  4.009534  0.0
C  C230  1  0.05491929  0.93634275  0.51445599  1  -0.114635  -0.000104  -0.090689  -0.135254  -6.6e-05  4.009638  0.0
C  C231  1  0.55491817  0.56365860  0.98554430  1  -0.114708  0.000109  -0.090631  -0.13509  6.5e-05  4.009594  0.0
C  C232  1  0.01786703  0.23007925  0.99461994  1  1.557954  -0.000595  0.19432  0.558637  0.000491  4.230986  -0.003
C  C233  1  0.51788209  0.26990154  0.50538954  1  1.559097  -0.00124  0.194622  0.558965  9.4e-05  4.231682  -0.003
C  C234  1  0.98212738  0.76992075  0.00538039  1  1.557639  -0.000595  0.194333  0.558526  0.000491  4.231305  -0.003
C  C235  1  0.48212015  0.73009738  0.49461113  1  1.5595  -0.001239  0.194614  0.559043  9.4e-05  4.23192  -0.003
C  C236  1  0.13251283  0.48276875  0.50132509  1  -0.026268  0.000123  -0.092813  -0.1329  7.6e-05  3.989964  0.0
C  C237  1  0.63251791  0.01723393  0.99867577  1  -0.026354  0.000118  -0.09285  -0.133024  7.3e-05  3.990372  0.0
C  C238  1  0.86748256  0.51723393  0.49867597  1  -0.026239  0.000123  -0.09287  -0.133017  7.6e-05  3.990268  0.0
C  C239  1  0.36748824  0.98276768  0.00132562  1  -0.026281  0.000118  -0.092813  -0.132896  7.4e-05  3.98997  0.0
C  C240  1  0.07166595  0.51531469  0.55356713  1  -0.012286  0.000138  -0.014919  0.084944  8.2e-05  3.984705  0.0
C  C241  1  0.57167285  0.98468886  0.94643290  1  -0.012297  0.000129  -0.015056  0.08469  7.9e-05  3.984902  0.0
C  C242  1  0.92832846  0.48468585  0.44643281  1  -0.01228  0.000138  -0.014964  0.084765  8.2e-05  3.984789  0.0
C  C243  1  0.42833428  0.01531436  0.05356643  1  -0.012286  0.000129  -0.01498  0.084777  7.8e-05  3.984844  0.0
C  C244  1  0.93837964  0.53234750  0.55174103  1  -0.079361  0.000186  -0.093053  -0.125017  0.000125  3.97585  0.0
C  C245  1  0.43838140  0.96765339  0.94825836  1  -0.079251  0.000144  -0.092996  -0.124925  9.4e-05  3.975543  0.0
C  C246  1  0.06161771  0.46765358  0.44825852  1  -0.079288  0.000186  -0.093036  -0.124954  0.000125  3.975646  0.0
C  C247  1  0.56162377  0.03234715  0.05174069  1  -0.079333  0.000144  -0.093047  -0.125006  9.4e-05  3.975801  0.0
C  C248  1  0.14885779  0.53323090  0.61076584  1  0.219648  0.001106  -0.045911  -0.114762  0.000822  3.870161  0.001
C  C249  1  0.64886119  0.96677074  0.88923249  1  0.219316  0.001186  -0.045857  -0.114585  0.000872  3.870149  0.001
C  C250  1  0.85113857  0.46676803  0.38923348  1  0.219735  0.001106  -0.045874  -0.114641  0.000822  3.870175  0.001
C  C251  1  0.35114496  0.03323303  0.11076557  1  0.21948  0.001186  -0.045835  -0.114492  0.000872  3.870124  0.001
C  C252  1  0.29836983  0.63801290  0.60285845  1  0.979285  -0.001352  0.13675  0.084026  -0.000256  3.91265  0.0
C  C253  1  0.79836318  0.86198328  0.89713719  1  0.978426  -0.001334  0.136823  0.084102  -0.000237  3.912842  0.0
C  C254  1  0.70163045  0.36198709  0.39714232  1  0.979295  -0.001352  0.13676  0.084071  -0.000256  3.912548  0.0
C  C255  1  0.20163710  0.13801779  0.10286280  1  0.978547  -0.001335  0.136764  0.084042  -0.000237  3.912771  0.0
C  C256  1  0.10986815  0.66521714  0.64846531  1  0.265358  0.003287  0.004034  -0.093242  0.0022  3.898564  0.002
C  C257  1  0.60985776  0.83478761  0.85153077  1  0.265069  0.003294  0.004018  -0.093328  0.00221  3.898818  0.002
C  C258  1  0.89013213  0.33478446  0.35153608  1  0.265322  0.003287  0.004013  -0.093272  0.0022  3.898638  0.002
C  C259  1  0.39014448  0.16521400  0.14846884  1  0.265218  0.003294  0.004064  -0.093255  0.00221  3.898704  0.002
C  C260  1  0.18163429  0.72676822  0.64639990  1  0.35636  0.000845  -0.005266  -0.029495  0.001062  3.998363  0.001
C  C261  1  0.68162125  0.77323622  0.85359465  1  0.356705  0.000855  -0.00543  -0.029675  0.001069  3.998928  0.001
C  C262  1  0.81836599  0.27323232  0.35360048  1  0.356367  0.000845  -0.005242  -0.029493  0.001063  3.998293  0.001
C  C263  1  0.31837708  0.22676539  0.14640452  1  0.356689  0.000855  -0.00548  -0.029748  0.001069  3.99893  0.001
C  C264  1  0.18443506  0.65407887  0.82670105  1  0.998327  -0.001374  0.14857  0.098102  -0.000338  3.890762  0.0
C  C265  1  0.68442376  0.84591803  0.67329626  1  0.99863  -0.001443  0.148437  0.09794  -0.0004  3.890889  0.0
C  C266  1  0.81556326  0.34592059  0.17329922  1  0.998325  -0.001374  0.148546  0.098081  -0.000338  3.890718  0.0
C  C267  1  0.31557652  0.15408250  0.32670324  1  0.998615  -0.001443  0.148472  0.097845  -0.0004  3.890908  0.0
C  C268  1  0.24760072  0.71703895  0.91004013  1  0.379493  0.001175  0.000815  -0.032329  0.001371  4.001697  0.001
C  C269  1  0.74759058  0.78295760  0.58995878  1  0.379683  0.001128  0.000637  -0.032405  0.001342  4.002041  0.001
C  C270  1  0.75239760  0.28296105  0.08995931  1  0.379635  0.001176  0.000822  -0.032345  0.001371  4.001686  0.001
C  C271  1  0.25240970  0.21704078  0.41004182  1  0.379651  0.001128  0.000727  -0.032342  0.001342  4.002042  0.001
C  C272  1  0.35759379  0.68679402  0.88252352  1  0.297509  0.003183  0.005748  -0.099595  0.002143  3.923132  0.002
C  C273  1  0.85758271  0.81320233  0.61747558  1  0.298306  0.003299  0.005901  -0.09951  0.002224  3.923074  0.002
C  C274  1  0.64240551  0.31320544  0.11747720  1  0.2975  0.003183  0.005746  -0.099616  0.002144  3.923083  0.002
C  C275  1  0.14241757  0.18679767  0.38252431  1  0.29831  0.003299  0.005844  -0.099649  0.002224  3.923283  0.002
C  C276  1  0.39752002  0.60332547  0.78632627  1  0.313391  0.001132  -0.040184  -0.104011  0.000853  3.868989  0.001
C  C277  1  0.89751178  0.89667207  0.71367286  1  0.313247  0.001133  -0.040388  -0.104357  0.000853  3.869456  0.001
C  C278  1  0.60248222  0.39667291  0.21367478  1  0.313344  0.001133  -0.040342  -0.104231  0.000853  3.869217  0.001
C  C279  1  0.10248850  0.10332739  0.28632697  1  0.313493  0.001133  -0.04034  -0.104321  0.000853  3.869396  0.001
C  C280  1  0.42360718  0.53001952  0.80532771  1  -0.092246  -0.000271  -0.018399  0.070826  -0.000201  3.98891  0.0
C  C281  1  0.92360680  0.96997918  0.69467060  1  -0.092195  0.000193  -0.018339  0.071009  0.000129  3.988911  0.0
C  C282  1  0.57639017  0.46998048  0.19467307  1  -0.091847  -0.000271  -0.018369  0.070904  -0.000201  3.988818  0.0
C  C283  1  0.07639250  0.03002082  0.30532840  1  -0.092232  0.000193  -0.018309  0.070996  0.000129  3.988849  0.0
C  C284  1  0.32031740  0.48088868  0.80692700  1  -0.112596  0.00013  -0.093408  -0.125306  4.2e-05  3.959645  0.0
C  C285  1  0.82031498  0.01911027  0.69307305  1  -0.112593  0.000236  -0.093404  -0.125357  0.000183  3.959652  0.0
C  C286  1  0.67968483  0.51911186  0.19307383  1  -0.112842  0.00013  -0.093414  -0.125342  4.2e-05  3.959731  0.0
C  C287  1  0.17968432  0.98088973  0.30692639  1  -0.112576  0.000236  -0.093428  -0.125345  0.000183  3.959668  0.0
C  C288  1  0.34282199  0.41348130  0.82490962  1  0.012099  -0.000268  -0.096648  -0.134861  -0.000216  3.985398  0.0
C  C289  1  0.84282148  0.08651879  0.67509005  1  0.012176  0.000239  -0.096633  -0.134808  0.000191  3.98537  0.0
C  C290  1  0.65717731  0.58651924  0.17509032  1  0.012168  -0.000268  -0.096628  -0.134794  -0.000216  3.985337  0.0
C  C291  1  0.15717782  0.91348228  0.32490994  1  0.012189  0.000238  -0.096624  -0.134817  0.000191  3.985398  0.0
C  C292  1  0.46890780  0.39325062  0.84099815  1  -0.0823  0.000262  -0.016636  0.079903  0.000174  3.978383  0.0
C  C293  1  0.96890867  0.10674824  0.65900157  1  -0.082331  0.000189  -0.016649  0.079818  0.000118  3.978372  0.0
C  C294  1  0.53109150  0.60674831  0.15900207  1  -0.082162  0.000261  -0.016661  0.079838  0.000174  3.978379  0.0
C  C295  1  0.03109063  0.89325230  0.34099838  1  -0.082151  0.000189  -0.016657  0.079831  0.000118  3.978406  0.0
C  C296  1  0.57182788  0.44174851  0.83815714  1  -0.089747  -0.000349  -0.090702  -0.125132  -0.000203  3.970477  0.0
C  C297  1  0.07182911  0.05825076  0.66184261  1  -0.08977  0.000272  -0.090685  -0.125015  0.000128  3.9704  0.0
C  C298  1  0.42817044  0.55825203  0.16184236  1  -0.089779  -0.000349  -0.090614  -0.124908  -0.000203  3.970361  0.0
C  C299  1  0.92817019  0.94174870  0.33815722  1  -0.089749  0.000272  -0.090673  -0.125035  0.000128  3.970565  0.0
C  C300  1  0.54930667  0.50985551  0.82098127  1  0.015824  0.000438  -0.090983  -0.126916  0.000363  3.978058  0.0
C  C301  1  0.04930272  0.99014420  0.67901886  1  0.015789  4.5e-05  -0.091025  -0.127062  -4.8e-05  3.978203  0.0
C  C302  1  0.45069263  0.49014609  0.17901923  1  0.0156  0.000438  -0.091073  -0.127105  0.000363  3.97818  0.0
C  C303  1  0.95069364  0.00985526  0.32098097  1  0.015617  4.6e-05  -0.091048  -0.127014  -4.8e-05  3.978232  0.0
C  C304  1  0.49440421  0.32185787  0.86390812  1  0.274319  -0.00107  -0.042292  -0.116016  -0.000862  3.874744  -0.001
C  C305  1  0.99440416  0.17814159  0.63609116  1  0.274312  0.001075  -0.042299  -0.11595  0.000818  3.87458  0.001
C  C306  1  0.50559411  0.67814105  0.13609210  1  0.274138  -0.00107  -0.042361  -0.1161  -0.000862  3.874509  -0.001
C  C307  1  0.00559710  0.82185948  0.36390884  1  0.274129  0.001075  -0.042354  -0.116036  0.000818  3.874511  0.001
C  C308  1  0.50522041  0.22062295  0.77972519  1  0.961707  0.000427  0.143583  0.094187  -0.00065  3.895853  -0.001
C  C309  1  0.00521468  0.27937881  0.72027496  1  0.961136  -0.00042  0.143589  0.094097  0.00044  3.895893  0.001
C  C310  1  0.49477987  0.77937866  0.22027486  1  0.96161  0.000427  0.143573  0.094125  -0.00065  3.895878  -0.001
C  C311  1  0.99478365  0.72062119  0.27972537  1  0.96163  -0.00042  0.14362  0.094278  0.000439  3.895861  0.001
C  C312  1  0.31575720  0.23207269  0.82782114  1  0.295637  -0.002529  0.001507  -0.108955  -0.001837  3.902536  -0.002
C  C313  1  0.81575580  0.26792570  0.67217797  1  0.295986  0.002531  0.001448  -0.109104  0.001724  3.90262  0.002
C  C314  1  0.68424700  0.76792784  0.17218058  1  0.295691  -0.002529  0.001517  -0.108912  -0.001837  3.902541  -0.002
C  C315  1  0.18424840  0.73207268  0.32782219  1  0.295918  0.002531  0.001469  -0.109004  0.001724  3.902527  0.002
C  C316  1  0.30855375  0.17579191  0.78255874  1  0.359752  -0.000267  -0.005225  -0.034614  -0.000636  3.995024  0.0
C  C317  1  0.80855249  0.32420970  0.71743762  1  0.359449  0.000284  -0.005203  -0.03462  0.000504  3.994937  0.0
C  C318  1  0.69144947  0.82420863  0.21744165  1  0.359666  -0.000267  -0.005276  -0.034702  -0.000636  3.995135  0.0
C  C319  1  0.19144975  0.67579083  0.28256188  1  0.359407  0.000284  -0.005233  -0.034629  0.000504  3.994973  0.0
N  N320  1  0.18563500  0.60957482  0.62111906  1  -1.213767  0.002372  -0.237205  0.050763  0.001458  3.763549  0.002
N  N321  1  0.68563081  0.89042531  0.87888081  1  -1.21316  0.002378  -0.237198  0.050715  0.001458  3.763803  0.002
N  N322  1  0.81436724  0.39042517  0.37888216  1  -1.213913  0.002371  -0.237199  0.050746  0.001458  3.763659  0.002
N  N323  1  0.31437240  0.10957522  0.12112002  1  -1.213264  0.002378  -0.23719  0.050685  0.001459  3.76382  0.002
N  N324  1  0.29886113  0.70914911  0.61779624  1  -1.197907  0.075638  -0.379087  -0.296278  0.051474  3.655647  0.066
N  N325  1  0.79884896  0.79084763  0.88219502  1  -1.197751  0.075902  -0.378983  -0.296243  0.051653  3.655485  0.066
N  N326  1  0.70113915  0.29084982  0.38220353  1  -1.197879  0.075633  -0.379107  -0.296307  0.051471  3.655613  0.066
N  N327  1  0.20115132  0.20915344  0.11780454  1  -1.197729  0.0759  -0.378972  -0.29615  0.051651  3.655417  0.066
N  N328  1  0.14023769  0.69611716  0.87478942  1  -1.20259  0.077372  -0.3821  -0.304714  0.052746  3.663336  0.067
N  N329  1  0.64022643  0.80387692  0.62520858  1  -1.202929  0.077316  -0.3819  -0.304669  0.052713  3.66346  0.067
N  N330  1  0.85975965  0.30388284  0.12521002  1  -1.202725  0.077373  -0.382071  -0.304688  0.052747  3.663275  0.067
N  N331  1  0.35977483  0.19612146  0.37479158  1  -1.202935  0.077319  -0.381912  -0.304578  0.052715  3.663439  0.067
N  N332  1  0.31588859  0.64768146  0.82991182  1  -1.235249  0.002089  -0.23521  0.059087  0.001241  3.761449  0.002
N  N333  1  0.81587543  0.85231583  0.67008746  1  -1.23621  0.002111  -0.235137  0.059268  0.001251  3.761509  0.002
N  N334  1  0.68411169  0.35231853  0.17008851  1  -1.235298  0.002089  -0.235181  0.059147  0.001241  3.761497  0.002
N  N335  1  0.18412582  0.14768578  0.32991215  1  -1.236173  0.002111  -0.235163  0.059397  0.001251  3.761408  0.002
N  N336  1  0.44095921  0.25961287  0.82555449  1  -1.223683  -0.00246  -0.236971  0.053883  -0.001621  3.760174  -0.002
N  N337  1  0.94095553  0.24038590  0.67444617  1  -1.223094  0.002496  -0.236964  0.053977  0.001525  3.760132  0.002
N  N338  1  0.55904107  0.74038820  0.17444685  1  -1.223605  -0.00246  -0.236899  0.054008  -0.001621  3.759913  -0.002
N  N339  1  0.05904378  0.75961303  0.32555361  1  -1.223542  0.002496  -0.236991  0.05386  0.001525  3.759976  0.002
N  N340  1  0.42736315  0.16918923  0.75310524  1  -1.178363  -0.070906  -0.377307  -0.288117  -0.051309  3.64951  -0.061
N  N341  1  0.92735774  0.33081489  0.74689200  1  -1.178453  0.071083  -0.377342  -0.288142  0.048525  3.649371  0.062
N  N342  1  0.57264007  0.83081185  0.24689342  1  -1.178294  -0.070906  -0.377237  -0.288053  -0.051308  3.649483  -0.061
N  N343  1  0.07264254  0.66918726  0.25310900  1  -1.178213  0.071085  -0.377259  -0.288167  0.048527  3.649344  0.062
N  N344  1  0.54142400  0.03995107  0.61152289  1  -1.262793  -0.078665  -0.388125  -0.314563  -0.056573  3.690709  -0.068
N  N345  1  0.04141653  0.46005562  0.88847992  1  -1.263261  0.078789  -0.388212  -0.314677  0.053485  3.691145  0.068
N  N346  1  0.45857823  0.96004892  0.38847833  1  -1.262824  -0.078664  -0.388152  -0.314558  -0.056573  3.690732  -0.068
N  N347  1  0.95858375  0.53994437  0.11152041  1  -1.263274  0.078787  -0.388204  -0.314659  0.053483  3.691099  0.068
N  N348  1  0.64376797  0.00420168  0.52721150  1  -1.242773  -0.002275  -0.239587  0.049591  -0.001478  3.770917  -0.002
N  N349  1  0.14376978  0.49579995  0.97278878  1  -1.242692  0.002259  -0.239537  0.049828  0.001365  3.770835  0.002
N  N350  1  0.35623133  0.99579670  0.47278822  1  -1.242649  -0.002274  -0.239473  0.049673  -0.001478  3.770862  -0.002
N  N351  1  0.85623246  0.50420004  0.02721111  1  -1.242696  0.002258  -0.239499  0.049847  0.001364  3.770867  0.002
O  O352  1  0.43650646  0.76744109  0.73958282  1  -1.164134  0.001426  -0.323937  -0.548994  0.000611  2.12938  0.002
O  O353  1  0.93651547  0.73256410  0.76041391  1  -1.164349  0.003593  -0.323884  -0.548948  0.002034  2.129659  0.004
O  O354  1  0.56349480  0.23255891  0.26041662  1  -1.164157  0.001426  -0.323955  -0.548989  0.000611  2.12935  0.002
O  O355  1  0.06348188  0.26743590  0.23958419  1  -1.164231  0.003593  -0.323893  -0.548991  0.002034  2.129516  0.004
O  O356  1  0.38824412  0.84498858  0.67316152  1  -1.11653  0.120422  -0.336028  -0.549267  0.078502  2.321669  0.108
O  O357  1  0.88823494  0.65501806  0.82683858  1  -1.116348  0.120525  -0.335947  -0.549236  0.078538  2.321927  0.108
O  O358  1  0.61175420  0.15501034  0.32683825  1  -1.11652  0.120426  -0.336012  -0.549218  0.078504  2.321649  0.108
O  O359  1  0.11176339  0.34498193  0.17316130  1  -1.116367  0.120525  -0.336002  -0.549338  0.078538  2.321914  0.108
O  O360  1  0.53051432  0.97672098  0.75409299  1  -1.167796  -0.002357  -0.317896  -0.558705  -0.001402  2.154331  -0.003
O  O361  1  0.03052503  0.52326792  0.74590960  1  -1.1685  0.002471  -0.317849  -0.558626  0.001206  2.154647  0.003
O  O362  1  0.46948694  0.02327848  0.24590817  1  -1.167721  -0.002357  -0.317891  -0.558653  -0.001402  2.154363  -0.003
O  O363  1  0.96947134  0.47673208  0.25409029  1  -1.168565  0.002471  -0.317911  -0.558672  0.001206  2.154618  0.003
O  O364  1  0.36121573  0.02880849  0.71029976  1  -1.114437  -0.112608  -0.32521  -0.529341  -0.077943  2.358384  -0.102
O  O365  1  0.86120653  0.47117077  0.78967767  1  -1.114639  0.113854  -0.325254  -0.529209  0.074357  2.358878  0.103
O  O366  1  0.63878553  0.97119151  0.28970057  1  -1.114466  -0.112613  -0.325129  -0.5292  -0.077947  2.358353  -0.102
O  O367  1  0.13879277  0.52882707  0.21032421  1  -1.114631  0.113843  -0.325196  -0.529121  0.07435  2.358857  0.103
O  O368  1  0.05058185  0.98709933  0.89191230  1  -1.10189  0.001704  -0.161248  -0.225286  0.001009  2.559177  0.001
O  O369  1  0.55057733  0.51290412  0.60809577  1  -1.101718  -0.000989  -0.161272  -0.225398  -0.000611  2.559237  -0.001
O  O370  1  0.94941647  0.01290012  0.10808842  1  -1.101829  0.001704  -0.16124  -0.225256  0.00101  2.559122  0.001
O  O371  1  0.44942295  0.48709587  0.39190545  1  -1.101736  -0.000989  -0.16126  -0.225356  -0.000611  2.559383  -0.001
O  O372  1  0.03806996  0.31116517  0.85348044  1  -1.110323  0.120444  -0.327626  -0.554286  0.078589  2.349614  0.109
O  O373  1  0.53804057  0.18885929  0.64651313  1  -1.11021  -0.120007  -0.327598  -0.554331  -0.083  2.349348  -0.109
O  O374  1  0.96192836  0.68883590  0.14652089  1  -1.110447  0.120458  -0.327617  -0.554304  0.078598  2.349575  0.109
O  O375  1  0.46195873  0.81113855  0.35348964  1  -1.110107  -0.120003  -0.327725  -0.554473  -0.082999  2.349105  -0.109
O  O376  1  0.83089420  0.31070733  0.88868327  1  -1.178841  0.001877  -0.336317  -0.573133  0.000874  2.094279  0.002
O  O377  1  0.33086417  0.18928360  0.61131147  1  -1.178227  -0.001835  -0.336106  -0.572999  -0.001018  2.094842  -0.002
O  O378  1  0.16910314  0.68929320  0.11131934  1  -1.179458  0.001876  -0.336282  -0.573052  0.000873  2.094284  0.002
O  O379  1  0.66914002  0.81071477  0.38869047  1  -1.178348  -0.001836  -0.336148  -0.573003  -0.001018  2.094709  -0.002
O  O380  1  0.05796374  0.29301493  0.99390289  1  -1.172288  0.000636  -0.324731  -0.564438  -8e-06  2.144374  0.001
O  O381  1  0.55800940  0.20697350  0.50610997  1  -1.172223  0.000268  -0.324804  -0.564429  -0.000237  2.144327  0.001
O  O382  1  0.94202676  0.70698614  0.00609844  1  -1.171968  0.000637  -0.32472  -0.564362  -8e-06  2.144483  0.001
O  O383  1  0.44200066  0.79302542  0.49389069  1  -1.172584  0.000268  -0.324778  -0.564459  -0.000237  2.144436  0.001
O  O384  1  0.98848922  0.20174929  0.04273461  1  -1.117874  0.115521  -0.329614  -0.542611  0.075629  2.360777  0.104
O  O385  1  0.48835794  0.29820964  0.45728106  1  -1.118067  0.114318  -0.32953  -0.542529  0.074846  2.361031  0.103
O  O386  1  0.01151008  0.79824802  0.95726500  1  -1.117831  0.115518  -0.329604  -0.542557  0.075626  2.36095  0.104
O  O387  1  0.51163647  0.70178874  0.54271954  1  -1.118116  0.114317  -0.329503  -0.542556  0.074847  2.36113  0.103
