# generated using pymatgen
data_Co3H34C54(NO3)4
_symmetry_space_group_name_H-M   'P 1'
_cell_length_a   13.91484893
_cell_length_b   23.31391720
_cell_length_c   25.50621394
_cell_angle_alpha   65.13694293
_cell_angle_beta   74.16750457
_cell_angle_gamma   72.63026596
_symmetry_Int_Tables_number   1
_chemical_formula_structural   Co3H34C54(NO3)4
_chemical_formula_sum   'Co12 H136 C216 N16 O48'
_cell_volume   7060.75443828
_cell_formula_units_Z   4
loop_
 _symmetry_equiv_pos_site_id
 _symmetry_equiv_pos_as_xyz
  1  'x, y, z'
loop_
 _atom_site_type_symbol
 _atom_site_label
 _atom_site_symmetry_multiplicity
 _atom_site_fract_x
 _atom_site_fract_y
 _atom_site_fract_z
 _atom_site_occupancy
 _atom_site_pbe_bader_charge
 _atom_site_pbe_bader_spin_density
 _atom_site_pbe_cm5_charge
 _atom_site_pbe_ddec_charge
 _atom_site_pbe_ddec_spin_density
 _atom_site_pbe_ddec_sum_bond_order
 _atom_site_pbe_magmom
Co  Co0  1  0.62485340  0.49350814  0.75707696  1  1.390889  2.666403  0.679255  1.096618  2.904832  2.37289  2.653
Co  Co1  1  0.54624011  0.59892848  0.83489807  1  1.250743  2.571014  0.668469  0.896485  2.767638  2.510679  2.526
Co  Co2  1  0.68550047  0.40011687  0.69017640  1  1.218698  2.547287  0.658085  0.848496  2.729027  2.568263  2.499
Co  Co3  1  0.12468888  0.99351209  0.25708216  1  1.387694  2.666646  0.679287  1.097675  2.905103  2.371917  2.653
Co  Co4  1  0.01992289  0.09896759  0.33488271  1  1.25395  2.570704  0.668533  0.89697  2.768431  2.507962  2.527
Co  Co5  1  0.22439937  0.90008995  0.19019154  1  1.220558  2.547542  0.658378  0.849906  2.732328  2.565652  2.499
Co  Co6  1  0.87531103  0.00648691  0.74291606  1  1.387655  2.666652  0.679328  1.097696  2.905101  2.371935  2.653
Co  Co7  1  0.98007441  0.90103481  0.66511613  1  1.253883  2.570711  0.668524  0.896962  2.768427  2.508048  2.527
Co  Co8  1  0.77559365  0.09990956  0.80980907  1  1.220429  2.547565  0.658428  0.849963  2.732333  2.565497  2.499
Co  Co9  1  0.37515142  0.50649184  0.24292249  1  1.390883  2.666391  0.679207  1.096608  2.904815  2.372865  2.653
Co  Co10  1  0.45375980  0.40107732  0.16510102  1  1.250949  2.571015  0.668431  0.896439  2.767663  2.510816  2.526
Co  Co11  1  0.31449437  0.59988164  0.30982197  1  1.218737  2.547287  0.658154  0.848593  2.729042  2.56822  2.499
H  H12  1  0.84618753  0.46162553  0.77950537  1  0.130988  0.000103  0.107667  0.119196  -0.000221  1.029801  0.0
H  H13  1  0.03486972  0.42533495  0.76570489  1  0.049375  5.2e-05  0.103232  0.103311  3.3e-05  1.00603  0.0
H  H14  1  0.05955519  0.58892303  0.79576325  1  0.050012  4.3e-05  0.101106  0.100721  2.3e-05  1.007072  0.0
H  H15  1  0.87061096  0.62551001  0.80774424  1  0.076804  0.000505  0.103555  0.106116  0.000221  1.026545  0.0
H  H16  1  0.20938807  0.57499681  0.74010598  1  0.058353  6e-06  0.097995  0.094228  -1.7e-05  1.01901  0.0
H  H17  1  0.39722398  0.53410434  0.72610839  1  0.138552  0.000295  0.106517  0.117643  -4.1e-05  1.031172  0.0
H  H18  1  0.35380144  0.33939352  0.79369570  1  0.100738  0.00025  0.105858  0.10897  0.000114  0.996055  0.0
H  H19  1  0.16526619  0.37915953  0.81012895  1  0.055178  5.9e-05  0.102967  0.102601  1.4e-05  1.004253  0.0
H  H20  1  0.42784819  0.76228066  0.69931669  1  0.071064  0.000355  0.10183  0.106081  7.5e-05  1.006436  0.0
H  H21  1  0.34915390  0.84757686  0.61435832  1  0.052998  0.000294  0.100959  0.10303  0.000116  1.02273  0.0
H  H22  1  0.38157173  0.70358752  0.54303719  1  0.040432  0.000173  0.09307  0.090383  7.8e-05  1.031524  0.0
H  H23  1  0.46428267  0.61969277  0.62665560  1  0.090734  0.0003  0.107316  0.115076  9.3e-05  0.994538  0.0
H  H24  1  0.20921655  0.88752300  0.57348595  1  0.100864  0.000286  0.100155  0.108199  4.6e-05  1.041023  0.0
H  H25  1  0.12451858  0.96912940  0.49047378  1  0.087743  0.000254  0.10263  0.104374  1.4e-05  1.012674  0.0
H  H26  1  0.31827347  0.87291408  0.37615621  1  0.088861  0.00022  0.1019  0.105409  4.7e-05  1.029197  0.0
H  H27  1  0.40431716  0.78979149  0.45920208  1  0.061415  0.000198  0.098779  0.098129  9e-05  1.009002  0.0
H  H28  1  0.53052332  0.73607308  0.84599147  1  0.135413  0.000686  0.148972  0.116295  0.000148  0.967244  0.0
H  H29  1  0.39737418  0.73049073  0.02943953  1  0.103114  5e-05  0.117662  0.13346  1e-05  1.00936  0.0
H  H30  1  0.27383625  0.91990107  0.05715174  1  0.162021  0.000501  0.141345  0.10919  -5.6e-05  1.001716  0.0
H  H31  1  0.39552183  0.76557398  0.20023543  1  0.19805  0.000856  0.129581  0.136504  0.000162  1.004398  0.001
H  H32  1  0.46664288  0.73256880  0.10225406  1  0.162033  0.000764  0.124961  0.126037  0.00032  1.033135  0.0
H  H33  1  0.39067985  0.93477146  0.96419695  1  0.096712  1e-06  0.113621  0.121419  -2.4e-05  0.988324  0.0
H  H34  1  0.40929010  0.94067256  0.86221405  1  0.086972  -7e-06  0.109085  0.10875  -8e-06  0.999828  0.0
H  H35  1  0.42055431  0.84225051  0.84367808  1  0.097328  -9e-06  0.109272  0.111867  -5e-05  1.013205  0.0
H  H36  1  0.31675007  0.67553101  0.00191078  1  0.138043  0.000651  0.124549  0.123305  0.000244  1.034867  0.0
H  H37  1  0.37743978  0.58334044  0.94963859  1  0.138789  0.000786  0.126396  0.123744  8.8e-05  1.005217  0.001
H  H38  1  0.83685229  0.22713045  0.80999374  1  0.096254  0.000412  0.107661  0.119424  2.6e-05  1.021196  0.0
H  H39  1  0.90435620  0.14002094  0.89657546  1  0.081038  0.00012  0.101411  0.102366  -1.2e-05  1.018766  0.0
H  H40  1  0.86327975  0.27996986  0.97441678  1  0.054443  0.000166  0.099627  0.097869  8.7e-05  1.01451  0.0
H  H41  1  0.78743983  0.36641106  0.88880916  1  0.085384  0.000293  0.105891  0.114294  7.7e-05  0.994836  0.0
H  H42  1  0.02892223  0.09343334  0.94517505  1  0.076643  0.000156  0.101666  0.103306  7.3e-05  1.006654  0.0
H  H43  1  0.83893241  0.19666152  0.05608938  1  0.059237  0.000145  0.095911  0.093862  6.8e-05  1.021774  0.0
H  H44  1  0.10719918  0.01024653  0.03001525  1  0.069259  0.000343  0.099277  0.099901  7.8e-05  1.016351  0.0
H  H45  1  0.92195437  0.11396803  0.14008678  1  0.108278  0.000134  0.107887  0.11615  -6e-06  0.991778  0.0
H  H46  1  0.91293009  0.96155927  0.27947904  1  0.139034  0.000104  0.107877  0.119948  -0.000221  1.02984  0.0
H  H47  1  0.77438997  0.92517041  0.26574058  1  0.055798  5e-05  0.103206  0.102755  3.3e-05  1.005756  0.0
H  H48  1  0.55588257  0.08876507  0.29574393  1  0.066942  4.2e-05  0.101438  0.101183  2.3e-05  1.006361  0.0
H  H49  1  0.69619408  0.12541832  0.30767108  1  0.0813  0.000514  0.103387  0.105815  0.000221  1.025939  0.0
H  H50  1  0.47572709  0.07483647  0.24010828  1  0.057049  6e-06  0.097666  0.094045  -1.7e-05  1.018737  0.0
H  H51  1  0.34272103  0.03398780  0.22616362  1  0.154226  0.00029  0.106785  0.118587  -4.2e-05  1.030276  0.0
H  H52  1  0.51326775  0.83923455  0.29375345  1  0.093779  0.000256  0.105855  0.109452  0.000114  0.995474  0.0
H  H53  1  0.64566302  0.87900090  0.31013277  1  0.081429  5.8e-05  0.103234  0.103638  1.4e-05  1.004724  0.0
H  H54  1  0.11081767  0.26233577  0.19930925  1  0.075938  0.000356  0.101461  0.105713  7.7e-05  1.005585  0.0
H  H55  1  0.18935367  0.34752123  0.11435751  1  0.088416  0.00029  0.100896  0.102348  0.000118  1.023885  0.0
H  H56  1  0.37194051  0.20344804  0.04303838  1  0.043311  0.000173  0.093568  0.091479  7.8e-05  1.030606  0.0
H  H57  1  0.28939213  0.11964889  0.12671309  1  0.086309  0.0003  0.107065  0.11503  9.3e-05  0.995236  0.0
H  H58  1  0.32987113  0.38745009  0.07341794  1  0.099919  0.000286  0.100426  0.108189  4.4e-05  1.041162  0.0
H  H59  1  0.41593915  0.46905826  0.99043515  1  0.073033  0.000256  0.102583  0.104293  1.4e-05  1.013417  0.0
H  H60  1  0.43274129  0.37292906  0.87604965  1  0.087637  0.000219  0.101786  0.105659  4.6e-05  1.029942  0.0
H  H61  1  0.34681817  0.28975970  0.95910062  1  0.053328  0.000199  0.098817  0.098008  9e-05  1.008386  0.0
H  H62  1  0.88758479  0.23619677  0.34599736  1  0.137549  0.000687  0.14928  0.117173  0.000148  0.967219  0.0
H  H63  1  0.84270970  0.23056793  0.52955289  1  0.110924  4.9e-05  0.117733  0.133302  1e-05  1.00958  0.0
H  H64  1  0.74895547  0.42003494  0.55710884  1  0.142345  0.000508  0.141209  0.108955  -5.7e-05  1.002142  0.0
H  H65  1  0.63859591  0.26571993  0.70024885  1  0.175651  0.000873  0.129733  0.13622  0.000163  1.005014  0.001
H  H66  1  0.69848596  0.23268475  0.60228512  1  0.114233  0.000797  0.124914  0.125823  0.000322  1.032368  0.0
H  H67  1  0.71008287  0.43480847  0.46412962  1  0.097404  2e-06  0.113811  0.121664  -2.4e-05  0.988188  0.0
H  H68  1  0.78769194  0.44060792  0.36218510  1  0.083998  -7e-06  0.109179  0.109258  -8e-06  0.999733  0.0
H  H69  1  0.89355309  0.34217568  0.34374600  1  0.094917  -1e-05  0.109388  0.112174  -5e-05  1.012271  0.0
H  H70  1  0.00593637  0.17542572  0.50197141  1  0.126821  0.000655  0.124427  0.123742  0.000244  1.034276  0.0
H  H71  1  0.08984219  0.08337190  0.44954749  1  0.138097  0.000784  0.12629  0.123573  8.6e-05  1.00522  0.001
H  H72  1  0.12604196  0.72724862  0.30995626  1  0.136261  0.000403  0.107527  0.119548  2.6e-05  1.02194  0.0
H  H73  1  0.05911320  0.64008238  0.39650238  1  0.078081  0.000123  0.101633  0.102472  -1.1e-05  1.017674  0.0
H  H74  1  0.88231937  0.77994941  0.47444142  1  0.088943  0.000162  0.099403  0.097624  8.7e-05  1.015476  0.0
H  H75  1  0.95717722  0.86644321  0.38885163  1  0.083435  0.00029  0.106094  0.114346  7.7e-05  0.994399  0.0
H  H76  1  0.93233018  0.59352282  0.44513429  1  0.040272  0.000158  0.102026  0.103438  7.3e-05  1.006418  0.0
H  H77  1  0.90842212  0.69667023  0.55607660  1  0.048027  0.000145  0.095796  0.093734  6.8e-05  1.021679  0.0
H  H78  1  0.85245886  0.51031411  0.53002074  1  0.053431  0.000346  0.099145  0.099596  7.8e-05  1.016085  0.0
H  H79  1  0.82405768  0.61399636  0.64008925  1  0.115797  0.000136  0.107727  0.116263  -6e-06  0.991855  0.0
H  H80  1  0.08706993  0.03844167  0.72051997  1  0.139233  0.000104  0.107873  0.119949  -0.000221  1.029823  0.0
H  H81  1  0.22561036  0.07482957  0.73425876  1  0.055811  5e-05  0.103202  0.102771  3.3e-05  1.005747  0.0
H  H82  1  0.44411509  0.91123395  0.70425618  1  0.066985  4.2e-05  0.101437  0.101183  2.3e-05  1.006351  0.0
H  H83  1  0.30380253  0.87458165  0.69232803  1  0.08135  0.000513  0.103376  0.105865  0.000221  1.025948  0.0
H  H84  1  0.52426956  0.92516110  0.75989215  1  0.056925  6e-06  0.097648  0.093967  -1.7e-05  1.018766  0.0
H  H85  1  0.65727839  0.96600590  0.77383870  1  0.154253  0.000289  0.106844  0.11862  -4.2e-05  1.030133  0.0
H  H86  1  0.48672985  0.16076015  0.70625227  1  0.093517  0.000257  0.105876  0.109517  0.000114  0.995492  0.0
H  H87  1  0.35433618  0.12099572  0.68987040  1  0.081258  5.8e-05  0.103218  0.103601  1.4e-05  1.004826  0.0
H  H88  1  0.88918981  0.73766519  0.80069178  1  0.075963  0.000356  0.101405  0.105615  7.7e-05  1.00554  0.0
H  H89  1  0.81065456  0.65247973  0.88564301  1  0.08849  0.00029  0.100855  0.103863  0.000117  1.022101  0.0
H  H90  1  0.62805844  0.79655387  0.95696040  1  0.043538  0.000173  0.093544  0.091433  7.8e-05  1.030598  0.0
H  H91  1  0.71060789  0.88035205  0.87328513  1  0.086328  0.0003  0.10706  0.115047  9.3e-05  0.995232  0.0
H  H92  1  0.67013699  0.61254894  0.92658335  1  0.10003  0.000286  0.100431  0.108142  4.4e-05  1.041374  0.0
H  H93  1  0.58406220  0.53094318  0.00956503  1  0.073089  0.000256  0.102582  0.104343  1.4e-05  1.013395  0.0
H  H94  1  0.56725777  0.62707480  0.12394954  1  0.087633  0.000219  0.101729  0.105537  4.6e-05  1.030006  0.0
H  H95  1  0.65318255  0.71024367  0.04089812  1  0.053334  0.000199  0.098838  0.098026  9e-05  1.008399  0.0
H  H96  1  0.11241704  0.76380322  0.65400293  1  0.13743  0.000687  0.149299  0.117254  0.000147  0.96719  0.0
H  H97  1  0.15729325  0.76942866  0.47044621  1  0.110991  4.9e-05  0.117739  0.133336  1e-05  1.009663  0.0
H  H98  1  0.25104689  0.57996116  0.44289093  1  0.142638  0.000508  0.141211  0.109005  -5.7e-05  1.002102  0.0
H  H99  1  0.36139771  0.73428004  0.29975032  1  0.175297  0.000873  0.129746  0.136227  0.000163  1.005036  0.001
H  H100  1  0.30151187  0.76731377  0.39771398  1  0.114364  0.000797  0.124938  0.125849  0.000322  1.032339  0.0
H  H101  1  0.28991783  0.56518812  0.53587098  1  0.097344  2e-06  0.113846  0.121739  -2.4e-05  0.988194  0.0
H  H102  1  0.21230871  0.55939110  0.63781535  1  0.083973  -7e-06  0.109179  0.109263  -8e-06  0.99971  0.0
H  H103  1  0.10645024  0.65782429  0.65625250  1  0.094941  -1e-05  0.109432  0.112217  -5e-05  1.01225  0.0
H  H104  1  0.99406984  0.82457232  0.49802781  1  0.126821  0.000655  0.12448  0.123759  0.000244  1.034352  0.0
H  H105  1  0.91015997  0.91662709  0.55044961  1  0.138107  0.000784  0.126316  0.123607  8.6e-05  1.005188  0.001
H  H106  1  0.87395468  0.27274897  0.69004770  1  0.136174  0.000403  0.10751  0.119536  2.6e-05  1.021911  0.0
H  H107  1  0.94088179  0.35991568  0.60350007  1  0.078098  0.000123  0.101644  0.102493  -1.1e-05  1.017692  0.0
H  H108  1  0.11767706  0.22005108  0.52556105  1  0.088952  0.000162  0.099349  0.09753  8.7e-05  1.015503  0.0
H  H109  1  0.04282029  0.13355631  0.61114988  1  0.080795  0.000292  0.106138  0.114403  7.8e-05  0.994544  0.0
H  H110  1  0.06766850  0.40647765  0.55486510  1  0.040214  0.000158  0.10203  0.103479  7.3e-05  1.006476  0.0
H  H111  1  0.09157169  0.30332688  0.44392757  1  0.048174  0.000145  0.095779  0.093737  6.8e-05  1.021585  0.0
H  H112  1  0.14753983  0.48968635  0.46997787  1  0.053511  0.000346  0.099119  0.099491  7.8e-05  1.016104  0.0
H  H113  1  0.17593347  0.38599976  0.35991218  1  0.080678  0.000136  0.107794  0.116387  -6e-06  0.99178  0.0
H  H114  1  0.15381414  0.53837493  0.22049397  1  0.130895  0.000103  0.107707  0.119224  -0.000221  1.029832  0.0
H  H115  1  0.96513366  0.57466938  0.23429307  1  0.049413  5.2e-05  0.103207  0.103246  3.3e-05  1.006082  0.0
H  H116  1  0.94044126  0.41108419  0.20423305  1  0.050452  4.3e-05  0.101124  0.100735  2.3e-05  1.007155  0.0
H  H117  1  0.12938751  0.37449336  0.19225484  1  0.076925  0.000504  0.103578  0.106208  0.000221  1.026215  0.0
H  H118  1  0.79061170  0.42500944  0.25988943  1  0.058319  6e-06  0.097984  0.094203  -1.7e-05  1.018934  0.0
H  H119  1  0.60277803  0.46590190  0.27388629  1  0.138741  0.000295  0.10658  0.117796  -4.1e-05  1.031055  0.0
H  H120  1  0.64619895  0.66061082  0.20630349  1  0.100626  0.00025  0.105889  0.109006  0.000114  0.996066  0.0
H  H121  1  0.83473180  0.62084530  0.18987119  1  0.055023  5.9e-05  0.102976  0.1027  1.4e-05  1.004277  0.0
H  H122  1  0.57215684  0.23771640  0.30068269  1  0.071218  0.000356  0.101804  0.106024  7.5e-05  1.006487  0.0
H  H123  1  0.65084232  0.15241976  0.38564490  1  0.053253  0.000294  0.100948  0.102975  0.000116  1.022768  0.0
H  H124  1  0.61842908  0.29641100  0.45696186  1  0.040651  0.000173  0.093097  0.090445  7.8e-05  1.031513  0.0
H  H125  1  0.53572456  0.38030670  0.37334095  1  0.090592  0.0003  0.107361  0.115143  9.3e-05  0.994556  0.0
H  H126  1  0.79078272  0.11247795  0.42651394  1  0.100861  0.000286  0.100155  0.108203  4.6e-05  1.041047  0.0
H  H127  1  0.87548223  0.03086913  0.50952605  1  0.087703  0.000254  0.102652  0.104386  1.4e-05  1.01261  0.0
H  H128  1  0.68172275  0.12708253  0.62384544  1  0.08884  0.00022  0.101859  0.105393  4.7e-05  1.029274  0.0
H  H129  1  0.59568051  0.21020753  0.54079882  1  0.061929  0.000198  0.098783  0.098142  9e-05  1.008984  0.0
H  H130  1  0.46947957  0.26392596  0.15401138  1  0.134989  0.000685  0.148945  0.116153  0.000148  0.967258  0.0
H  H131  1  0.60262930  0.26950877  0.97056031  1  0.103122  5e-05  0.117668  0.13345  1e-05  1.009313  0.0
H  H132  1  0.72616280  0.08009602  0.94285009  1  0.162553  0.000501  0.141374  0.109183  -5.6e-05  1.001655  0.0
H  H133  1  0.60447450  0.23442456  0.79976507  1  0.198041  0.000856  0.129551  0.136418  0.000162  1.004439  0.001
H  H134  1  0.53335943  0.26742974  0.89774711  1  0.162006  0.000764  0.124945  0.126006  0.00032  1.03322  0.0
H  H135  1  0.60931717  0.06522951  0.03580446  1  0.09676  2e-06  0.113621  0.121402  -2.4e-05  0.988347  0.0
H  H136  1  0.59070916  0.05932841  0.13778741  1  0.086976  -7e-06  0.109074  0.108745  -8e-06  0.999849  0.0
H  H137  1  0.57944735  0.15774997  0.15632282  1  0.09732  -9e-06  0.109257  0.111855  -5e-05  1.013221  0.0
H  H138  1  0.68324557  0.32447189  0.99808929  1  0.13823  0.000651  0.124557  0.123344  0.000244  1.034826  0.0
H  H139  1  0.62255437  0.41666246  0.05036170  1  0.138533  0.000786  0.126409  0.123769  8.8e-05  1.005321  0.001
H  H140  1  0.16314843  0.77287291  0.19000422  1  0.096201  0.000412  0.107641  0.119363  2.6e-05  1.021205  0.0
H  H141  1  0.09564302  0.85998242  0.10342272  1  0.080962  0.00012  0.101438  0.102446  -1.2e-05  1.018661  0.0
H  H142  1  0.13672566  0.72003060  0.02558240  1  0.054563  0.000166  0.099645  0.097866  8.7e-05  1.014565  0.0
H  H143  1  0.21256691  0.63358990  0.11119120  1  0.085413  0.000293  0.105887  0.114329  7.7e-05  0.994757  0.0
H  H144  1  0.97107410  0.90656519  0.05482505  1  0.076487  0.000156  0.101686  0.10333  7.3e-05  1.006622  0.0
H  H145  1  0.16107178  0.80334040  0.94390941  1  0.059334  0.000145  0.09594  0.093882  6.8e-05  1.02174  0.0
H  H146  1  0.89279357  0.98975152  0.96998480  1  0.06926  0.000343  0.099258  0.099874  7.8e-05  1.016304  0.0
H  H147  1  0.07804597  0.88603195  0.85991216  1  0.10825  0.000134  0.107876  0.116155  -6e-06  0.99175  0.0
C  C148  1  0.73464704  0.56442460  0.80710276  1  1.480789  -0.001979  0.210163  0.579582  -0.003389  4.150335  -0.001
C  C149  1  0.84703139  0.54526897  0.79526072  1  -0.032968  0.002995  -0.018245  -0.036125  0.001219  3.993961  0.002
C  C150  1  0.89380112  0.48908829  0.78286818  1  -0.003689  -0.000855  -0.077278  -0.071242  -0.001327  3.946749  0.0
C  C151  1  0.99942225  0.46883738  0.77573906  1  -0.034301  0.000835  -0.089399  -0.135569  0.000269  3.978161  0.001
C  C152  1  0.06134381  0.50382120  0.78057202  1  0.03664  -0.002599  -0.004684  0.071602  -0.00289  4.006416  -0.002
C  C153  1  0.01345873  0.56128789  0.79119310  1  -0.0533  0.001531  -0.095078  -0.141903  0.000648  3.999167  0.001
C  C154  1  0.90778801  0.58164195  0.79864229  1  -0.08943  -0.001042  -0.085227  -0.093337  -0.001408  3.99245  -0.001
C  C155  1  0.17305403  0.48024017  0.77473100  1  -0.02604  0.001731  -0.005565  0.068242  0.000787  4.01023  0.001
C  C156  1  0.24015142  0.52310934  0.75248141  1  -0.084277  -0.001215  -0.092585  -0.141241  -0.001377  3.991662  -0.001
C  C157  1  0.34551613  0.50072467  0.74407814  1  -0.028411  0.002567  -0.078936  -0.071548  0.001205  3.939022  0.002
C  C158  1  0.38649704  0.43434222  0.75822072  1  -0.001336  0.000515  -0.018003  -0.033402  -0.000263  3.978803  0.0
C  C159  1  0.49780028  0.40893861  0.74546766  1  1.511406  0.006437  0.20798  0.571931  0.004303  4.165434  0.004
C  C160  1  0.32064387  0.39090488  0.78233439  1  -0.047022  0.002571  -0.083189  -0.088594  0.001257  3.993847  0.002
C  C161  1  0.21556146  0.41351879  0.79061123  1  -0.05814  -0.000269  -0.091554  -0.13573  -0.00045  3.991567  0.0
C  C162  1  0.49851959  0.63431900  0.71874435  1  1.55709  -0.002286  0.222468  0.601379  -0.003535  4.153629  -0.002
C  C163  1  0.45104888  0.68579299  0.66810739  1  -0.1246  0.01081  -0.021569  -0.041099  0.005597  3.974938  0.008
C  C164  1  0.41772824  0.75016578  0.66455581  1  0.018121  -0.000463  -0.08666  -0.091208  -0.000874  3.990852  0.0
C  C165  1  0.37337190  0.79749389  0.61729388  1  -0.011924  0.000839  -0.091749  -0.132631  0.000338  3.977023  0.001
C  C166  1  0.36021356  0.78189496  0.57239444  1  -0.036931  -0.001782  -0.007943  0.067203  -0.00202  4.003312  -0.001
C  C167  1  0.39338056  0.71711325  0.57652062  1  -0.060007  0.000832  -0.096095  -0.138609  0.00032  4.000362  0.001
C  C168  1  0.43857804  0.66981910  0.62347393  1  0.00893  -0.000333  -0.08592  -0.089603  -0.000823  3.983449  0.0
C  C169  1  0.31200029  0.83195619  0.52262546  1  0.004749  -0.000849  -0.007082  0.071748  -0.001008  3.997991  0.0
C  C170  1  0.23419975  0.88403674  0.53028123  1  -0.049932  0.000416  -0.093191  -0.135858  0.000124  3.96158  0.0
C  C171  1  0.18641615  0.92997694  0.48373262  1  -0.075851  0.000392  -0.087095  -0.091097  -0.000188  3.990878  0.0
C  C172  1  0.21555174  0.92575479  0.42807930  1  0.001271  0.009958  -0.0226  -0.040721  0.005262  3.974163  0.008
C  C173  1  0.16421834  0.97429151  0.37764372  1  1.542001  0.000819  0.219574  0.599801  0.000225  4.159713  0.001
C  C174  1  0.29440235  0.87475215  0.41990752  1  -0.038535  0.000371  -0.089552  -0.095288  -0.000146  3.994852  0.0
C  C175  1  0.34171606  0.82851039  0.46647288  1  -0.092113  0.000529  -0.09702  -0.144956  0.000201  4.003274  0.0
C  C176  1  0.47842270  0.70750096  0.87971062  1  0.991277  -0.000813  0.154171  0.108301  -0.001657  3.89262  0.0
C  C177  1  0.41179340  0.78054725  0.93548122  1  0.338253  0.000496  0.10255  0.189319  0.000234  4.031385  0.0
C  C178  1  0.39996190  0.77649645  0.99292809  1  -0.008692  0.000484  -0.082748  -0.245816  0.000274  3.938023  0.0
C  C179  1  0.39115977  0.83244483  0.00279557  1  0.317046  0.000396  0.102346  0.190128  0.00013  4.03235  0.0
C  C180  1  0.31902108  0.87484022  0.08253079  1  0.950077  0.004087  0.145365  0.095624  0.002679  3.910492  0.004
C  C181  1  0.38167999  0.79334902  0.15577053  1  0.373779  0.002021  0.016357  0.003236  0.000699  3.944056  0.002
C  C182  1  0.41747708  0.77616909  0.10767620  1  0.278841  0.004721  0.005796  -0.096197  0.002445  3.88406  0.003
C  C183  1  0.39506924  0.89172985  0.95599074  1  -0.032211  -0.000246  -0.087622  -0.179101  -0.000304  3.968494  0.0
C  C184  1  0.40634929  0.89476739  0.89891925  1  0.020366  -7e-06  -0.076784  -0.030324  -3.3e-05  4.004434  0.0
C  C185  1  0.41440236  0.83946556  0.88818069  1  -0.043529  -0.000274  -0.086528  -0.178764  -0.000351  3.975711  0.0
C  C186  1  0.36872116  0.67386495  0.96206220  1  0.281768  0.002274  0.004572  -0.098637  0.001116  3.908289  0.001
C  C187  1  0.39856815  0.62930665  0.93584958  1  0.412057  0.001547  0.009337  -0.013836  0.000677  3.985669  0.001
C  C188  1  0.75959234  0.35332124  0.79420491  1  1.524605  -0.004679  0.216291  0.584271  -0.005967  4.171116  -0.003
C  C189  1  0.80633030  0.30192193  0.84468066  1  -0.010782  0.009178  -0.022326  -0.039735  0.004667  3.980493  0.007
C  C190  1  0.84158916  0.23821645  0.84655635  1  -0.087309  -0.001347  -0.081571  -0.081062  -0.001844  3.955453  -0.001
C  C191  1  0.88030167  0.18958285  0.89519245  1  0.003703  0.000826  -0.09285  -0.137155  0.00029  3.97059  0.001
C  C192  1  0.88693030  0.20329107  0.94269172  1  0.008642  -0.003019  -0.00826  0.070857  -0.003366  4.002248  -0.002
C  C193  1  0.85416674  0.26785953  0.93936818  1  -0.115115  0.001005  -0.09767  -0.149047  0.000404  4.011041  0.001
C  C194  1  0.81335213  0.31644795  0.89139198  1  -0.008193  -0.001254  -0.089984  -0.100038  -0.001759  3.998969  -0.001
C  C195  1  0.92930836  0.15201325  0.99395332  1  -0.014038  -0.001578  -0.007756  0.068757  -0.001763  4.005608  -0.001
C  C196  1  0.00368797  0.09790860  0.98794867  1  -0.091712  0.000296  -0.092678  -0.137217  5e-05  3.991461  0.0
C  C197  1  0.89887157  0.15636302  0.04978726  1  -0.114133  0.000314  -0.094171  -0.136223  5.5e-05  3.990096  0.0
C  C198  1  0.07464860  0.01087093  0.13981900  1  1.536416  -0.001866  0.216748  0.593975  -0.002594  4.169317  -0.002
C  C199  1  0.02062784  0.05753554  0.09014546  1  -0.044251  0.008999  -0.020482  -0.03653  0.004678  3.974281  0.007
C  C200  1  0.04846582  0.05136323  0.03531577  1  -0.009335  -0.00016  -0.088847  -0.093527  -0.000645  4.006026  0.0
C  C201  1  0.94414474  0.11008426  0.09710994  1  0.014864  -0.000369  -0.081157  -0.079481  -0.000804  3.972066  0.0
C  C202  1  0.89393849  0.06442067  0.30703508  1  1.482332  -0.001942  0.210067  0.578905  -0.003371  4.148107  -0.001
C  C203  1  0.81263041  0.04523129  0.29516118  1  -0.003923  0.002926  -0.018598  -0.035332  0.001217  3.991583  0.002
C  C204  1  0.83449111  0.98902128  0.28280607  1  -0.006738  -0.000845  -0.077061  -0.072081  -0.001324  3.946248  0.0
C  C205  1  0.75628731  0.96871745  0.27570729  1  -0.034909  0.000838  -0.089931  -0.135322  0.000269  3.977534  0.001
C  C206  1  0.65450440  0.00368330  0.28052091  1  -0.016594  -0.002589  -0.003478  0.073312  -0.002883  4.004885  -0.002
C  C207  1  0.63420506  0.06114632  0.29116357  1  -0.067243  0.001531  -0.095645  -0.143364  0.000649  3.999499  0.001
C  C208  1  0.71206481  0.08154901  0.29856236  1  -0.088439  -0.001004  -0.085392  -0.093231  -0.001403  3.991564  -0.001
C  C209  1  0.57221359  0.98007496  0.27471220  1  -0.017064  0.001733  -0.005787  0.068075  0.000789  4.009052  0.001
C  C210  1  0.48447456  0.02294973  0.25247945  1  -0.09645  -0.001215  -0.092997  -0.141838  -0.001376  3.990234  -0.001
C  C211  1  0.40986634  0.00059012  0.24410725  1  -0.038029  0.002583  -0.07872  -0.072151  0.001208  3.937936  0.002
C  C212  1  0.42112947  0.93420870  0.25824787  1  -0.01823  0.000524  -0.017789  -0.031777  -0.000265  3.980431  0.0
C  C213  1  0.34788372  0.90887303  0.24552850  1  1.513718  0.006304  0.208063  0.571721  0.004297  4.166418  0.004
C  C214  1  0.50628617  0.89074723  0.28237227  1  -0.058547  0.002564  -0.082552  -0.089093  0.001257  3.993583  0.002
C  C215  1  0.58050737  0.91334975  0.29062374  1  -0.065097  -0.000261  -0.092112  -0.137514  -0.000447  3.991174  0.0
C  C216  1  0.14835472  0.13437514  0.21872249  1  1.567067  -0.002397  0.22258  0.600838  -0.00358  4.153638  -0.002
C  C217  1  0.19515852  0.18579953  0.16811719  1  -0.061517  0.01078  -0.020624  -0.039934  0.005602  3.973819  0.008
C  C218  1  0.16778988  0.25017494  0.16455603  1  -0.011072  -0.000437  -0.086925  -0.090948  -0.000889  3.991133  0.0
C  C219  1  0.21223690  0.29743108  0.11729852  1  -0.065796  0.000846  -0.091418  -0.132661  0.000337  3.980545  0.001
C  C220  1  0.28576078  0.28182044  0.07235541  1  -0.054911  -0.001796  -0.007454  0.067955  -0.002039  4.004182  -0.001
C  C221  1  0.31315728  0.21702711  0.07651354  1  -0.026884  0.000832  -0.097165  -0.140703  0.000319  4.000555  0.001
C  C222  1  0.26823401  0.16978352  0.12350301  1  -0.015563  -0.00034  -0.085852  -0.089596  -0.000836  3.984367  0.0
C  C223  1  0.33360032  0.33188517  0.02254318  1  -0.066123  -0.000866  -0.007886  0.070941  -0.001029  3.996762  0.0
C  C224  1  0.35159987  0.38395861  0.03021393  1  -0.03704  0.000415  -0.093764  -0.136125  0.000122  3.962175  0.0
C  C225  1  0.40000248  0.42990017  0.98368039  1  -0.008111  0.000334  -0.086219  -0.089572  -0.0002  3.991151  0.0
C  C226  1  0.43073078  0.42572535  0.92801027  1  -0.047696  0.009973  -0.022678  -0.041707  0.005265  3.972283  0.008
C  C227  1  0.48400073  0.47427585  0.87762723  1  1.530594  0.000871  0.219849  0.599567  0.000181  4.157213  0.001
C  C228  1  0.41103854  0.37474045  0.91980931  1  -0.070715  0.000351  -0.090065  -0.096152  -0.00016  3.993306  0.0
C  C229  1  0.36343876  0.32846753  0.96636811  1  0.001476  0.000525  -0.096353  -0.143853  0.000201  3.99962  0.0
C  C230  1  0.93453966  0.20758135  0.37971307  1  0.99417  -0.000876  0.153252  0.107043  -0.001695  3.894028  0.0
C  C231  1  0.87223333  0.28053668  0.43557748  1  0.269077  0.000504  0.10361  0.191  0.000234  4.027681  0.0
C  C232  1  0.83059162  0.27654595  0.49300763  1  0.04913  0.000473  -0.083204  -0.246477  0.000273  3.936745  0.0
C  C233  1  0.77344895  0.33251561  0.50281542  1  0.304228  0.000398  0.102336  0.18974  0.000131  4.032223  0.0
C  C234  1  0.72343915  0.37498445  0.58249970  1  0.965806  0.004048  0.145897  0.095189  0.002668  3.910121  0.004
C  C235  1  0.66911710  0.29349243  0.65578161  1  0.410051  0.001984  0.015976  0.003303  0.000704  3.947546  0.002
C  C236  1  0.69859172  0.27629393  0.60770177  1  0.314189  0.004703  0.005789  -0.096613  0.002447  3.884597  0.003
C  C237  1  0.75695400  0.39173815  0.45597021  1  -0.054223  -0.000254  -0.088138  -0.179272  -0.000311  3.969137  0.0
C  C238  1  0.79980614  0.39471655  0.39891901  1  0.094218  -4e-06  -0.076654  -0.030733  -3.2e-05  4.005069  0.0
C  C239  1  0.85793702  0.33941833  0.38823657  1  -0.082187  -0.000286  -0.086934  -0.179734  -0.000361  3.974221  0.0
C  C240  1  0.99545227  0.17381700  0.46210658  1  0.300797  0.002258  0.00483  -0.098932  0.001114  3.90781  0.001
C  C241  1  0.03644688  0.12931708  0.43582305  1  0.393848  0.001582  0.009376  -0.012972  0.000678  3.984251  0.001
C  C242  1  0.09293812  0.85338699  0.29422751  1  1.519661  -0.004747  0.217009  0.586327  -0.006018  4.169437  -0.003
C  C243  1  0.04708599  0.80199663  0.34468922  1  -0.082081  0.009232  -0.022265  -0.039593  0.004679  3.981287  0.007
C  C244  1  0.07369535  0.73830239  0.34654015  1  -0.017736  -0.001387  -0.081941  -0.082291  -0.00185  3.956745  -0.001
C  C245  1  0.03502327  0.68963158  0.39516096  1  -0.054389  0.000824  -0.09217  -0.136064  0.000292  3.968362  0.001
C  C246  1  0.96719116  0.70330024  0.44268983  1  -0.054343  -0.003034  -0.008126  0.071411  -0.003374  4.002288  -0.002
C  C247  1  0.93865318  0.76786253  0.43939718  1  -0.074194  0.001021  -0.097808  -0.149624  0.000406  4.011369  0.001
C  C248  1  0.97876119  0.81648294  0.39141113  1  -0.00679  -0.001275  -0.089877  -0.0995  -0.001768  3.998659  -0.001
C  C249  1  0.92474494  0.65204507  0.49392755  1  -0.00264  -0.001564  -0.008575  0.066399  -0.001758  4.006409  -0.001
C  C250  1  0.91037359  0.59797138  0.48791776  1  -0.036315  0.000291  -0.093033  -0.136358  4.8e-05  3.99181  0.0
C  C251  1  0.89498841  0.65641065  0.54976864  1  -0.069923  0.000312  -0.092889  -0.133995  5.4e-05  3.989942  0.0
C  C252  1  0.77478450  0.51089430  0.63980347  1  1.532785  -0.00178  0.216417  0.592661  -0.002564  4.16788  -0.002
C  C253  1  0.83173429  0.55759386  0.59013482  1  -0.048412  0.009001  -0.020256  -0.035607  0.004675  3.975368  0.007
C  C254  1  0.86480040  0.55143102  0.53530026  1  -0.005571  -0.000166  -0.088994  -0.093939  -0.000638  4.006926  0.0
C  C255  1  0.84870171  0.61013374  0.59710116  1  -0.017027  -0.000359  -0.081679  -0.081075  -0.0008  3.975845  0.0
C  C256  1  0.10605999  0.93558268  0.69296204  1  1.482669  -0.001941  0.210078  0.578793  -0.003371  4.148205  -0.001
C  C257  1  0.18736747  0.95477159  0.70483661  1  -0.003736  0.002927  -0.018667  -0.035323  0.001218  3.991664  0.002
C  C258  1  0.16550624  0.01097871  0.71719410  1  -0.007023  -0.000845  -0.07696  -0.071956  -0.001324  3.946209  0.0
C  C259  1  0.24371335  0.03128157  0.72429316  1  -0.034886  0.000838  -0.089997  -0.135474  0.000269  3.977553  0.001
C  C260  1  0.34549417  0.99631523  0.71947926  1  -0.015966  -0.002589  -0.003475  0.073309  -0.002883  4.004855  -0.002
C  C261  1  0.36579234  0.93885124  0.70883676  1  -0.067381  0.001531  -0.095539  -0.143219  0.000649  3.999351  0.001
C  C262  1  0.28793164  0.91845145  0.70143659  1  -0.088543  -0.001003  -0.085372  -0.093332  -0.001403  3.991625  -0.001
C  C263  1  0.42778412  0.01992165  0.72529041  1  -0.017866  0.001733  -0.005864  0.068027  0.000789  4.009138  0.001
C  C264  1  0.51552198  0.97704591  0.74752332  1  -0.096294  -0.001215  -0.093024  -0.141786  -0.001376  3.990278  -0.001
C  C265  1  0.59013169  0.99940552  0.75589491  1  -0.038119  0.002583  -0.07875  -0.072088  0.001208  3.937953  0.002
C  C266  1  0.57887022  0.06578646  0.74175462  1  -0.01745  0.000524  -0.01784  -0.032043  -0.000265  3.98047  0.0
C  C267  1  0.65211549  0.09112358  0.75447349  1  1.513549  0.006306  0.208066  0.571827  0.004297  4.166435  0.004
C  C268  1  0.49371111  0.10924842  0.71763156  1  -0.05798  0.002564  -0.0826  -0.08916  0.001257  3.993594  0.002
C  C269  1  0.41949140  0.08664591  0.70937987  1  -0.065258  -0.000261  -0.092025  -0.137371  -0.000448  3.991311  0.0
C  C270  1  0.85164530  0.86562581  0.78127651  1  1.566875  -0.002397  0.222617  0.601004  -0.00358  4.153555  -0.002
C  C271  1  0.80484661  0.81419950  0.83188454  1  -0.061433  0.01078  -0.02063  -0.04003  0.005602  3.973882  0.008
C  C272  1  0.83221344  0.74982506  0.83544559  1  -0.011558  -0.000437  -0.086881  -0.090927  -0.000889  3.991676  0.0
C  C273  1  0.78776972  0.70256796  0.88270378  1  -0.065398  0.000846  -0.091394  -0.133784  0.000337  3.980322  0.001
C  C274  1  0.71424313  0.71818003  0.92764516  1  -0.054919  -0.001796  -0.007413  0.067945  -0.002039  4.004584  -0.001
C  C275  1  0.68684482  0.78297432  0.92348535  1  -0.035003  0.000829  -0.097176  -0.140668  0.000319  4.000486  0.001
C  C276  1  0.73176916  0.83021695  0.87649689  1  -0.007807  -0.000337  -0.085831  -0.089612  -0.000836  3.984321  0.0
C  C277  1  0.66640268  0.66811579  0.97745734  1  -0.065633  -0.000867  -0.007779  0.071054  -0.001029  3.996924  0.0
C  C278  1  0.64840750  0.61604042  0.96978747  1  -0.037415  0.000415  -0.093788  -0.136222  0.000122  3.962527  0.0
C  C279  1  0.59999935  0.57009982  0.01631990  1  -0.008284  0.000334  -0.086233  -0.089735  -0.000201  3.991021  0.0
C  C280  1  0.56926635  0.57427755  0.07198958  1  -0.04772  0.009971  -0.022672  -0.04154  0.005264  3.972226  0.008
C  C281  1  0.51598964  0.52572942  0.12236799  1  1.531107  0.000866  0.219917  0.599693  0.000179  4.156863  0.001
C  C282  1  0.58896297  0.62526050  0.08019026  1  -0.070696  0.000351  -0.089993  -0.096029  -0.000161  3.993282  0.0
C  C283  1  0.63656424  0.67153343  0.03363201  1  0.001404  0.000525  -0.096419  -0.143982  0.000201  3.999566  0.0
C  C284  1  0.06546367  0.79241863  0.62028699  1  0.994284  -0.000876  0.153208  0.106979  -0.001695  3.894029  0.0
C  C285  1  0.12777047  0.71946185  0.56442230  1  0.269168  0.000504  0.10362  0.191158  0.000234  4.02769  0.0
C  C286  1  0.16941118  0.72345111  0.50699130  1  0.048889  0.000473  -0.083216  -0.246628  0.000273  3.93691  0.0
C  C287  1  0.22655384  0.66748147  0.49718468  1  0.304197  0.000398  0.102446  0.189951  0.000131  4.032017  0.0
C  C288  1  0.27656332  0.62501359  0.41749891  1  0.965906  0.004047  0.145794  0.094978  0.002667  3.910418  0.004
C  C289  1  0.33087774  0.70650610  0.34421833  1  0.410523  0.001984  0.015993  0.003313  0.000704  3.947684  0.002
C  C290  1  0.30140478  0.72370410  0.39229733  1  0.31416  0.004702  0.005759  -0.09664  0.002447  3.884581  0.003
C  C291  1  0.24304846  0.60825990  0.54402995  1  -0.054031  -0.000254  -0.08824  -0.179505  -0.000311  3.96912  0.0
C  C292  1  0.20019211  0.60528296  0.60108199  1  0.094064  -4e-06  -0.076634  -0.030681  -3.2e-05  4.00492  0.0
C  C293  1  0.14206481  0.66058165  0.61176293  1  -0.082114  -0.000286  -0.086987  -0.179795  -0.000361  3.974237  0.0
C  C294  1  0.00455095  0.82618104  0.53789309  1  0.300778  0.002258  0.004797  -0.098874  0.001114  3.907923  0.001
C  C295  1  0.96355570  0.87068289  0.56417517  1  0.393892  0.001582  0.009343  -0.012974  0.000678  3.984227  0.001
C  C296  1  0.90706317  0.14661010  0.70577399  1  1.519716  -0.004747  0.217114  0.586279  -0.006018  4.169612  -0.003
C  C297  1  0.95291631  0.19800192  0.65531312  1  -0.082435  0.009233  -0.022278  -0.039664  0.004679  3.981403  0.007
C  C298  1  0.92630380  0.26169665  0.65346209  1  -0.017297  -0.001387  -0.081913  -0.082252  -0.00185  3.956923  -0.001
C  C299  1  0.96497306  0.31036698  0.60484266  1  -0.054896  0.000824  -0.092083  -0.135935  0.000293  3.968235  0.001
C  C300  1  0.03280383  0.29669784  0.55731301  1  -0.05413  -0.003034  -0.008222  0.071255  -0.003374  4.001961  -0.002
C  C301  1  0.06134405  0.23213554  0.56060610  1  -0.074137  0.001021  -0.097744  -0.149524  0.000406  4.01133  0.001
C  C302  1  0.02124127  0.18351512  0.60859021  1  -0.004085  -0.001278  -0.089982  -0.099588  -0.001768  3.998804  -0.001
C  C303  1  0.07525273  0.34795396  0.50607413  1  -0.002349  -0.001563  -0.008507  0.066618  -0.001757  4.006096  -0.001
C  C304  1  0.08961954  0.40203007  0.51208325  1  -0.037412  0.00029  -0.093092  -0.136582  4.8e-05  3.991952  0.0
C  C305  1  0.10500945  0.34358550  0.45023570  1  -0.070373  0.000312  -0.092877  -0.134038  5.4e-05  3.98937  0.0
C  C306  1  0.22521652  0.48910131  0.36019551  1  1.531739  -0.001779  0.216424  0.592637  -0.002561  4.167717  -0.002
C  C307  1  0.16826252  0.44240320  0.40986383  1  -0.048431  0.009002  -0.02021  -0.035375  0.004675  3.974959  0.007
C  C308  1  0.13519038  0.44856848  0.46469872  1  -0.004329  -0.000165  -0.088922  -0.093771  -0.000637  4.00682  0.0
C  C309  1  0.15129286  0.38986334  0.40289977  1  0.01885  -0.00036  -0.081775  -0.081341  -0.0008  3.975364  0.0
C  C310  1  0.26535478  0.43557541  0.19290026  1  1.480402  -0.001977  0.210286  0.579809  -0.003392  4.149971  -0.001
C  C311  1  0.15296846  0.45473248  0.20473969  1  -0.032981  0.002995  -0.018191  -0.036219  0.00122  3.994029  0.002
C  C312  1  0.10619885  0.51091507  0.21712989  1  -0.003709  -0.000855  -0.077387  -0.071362  -0.001328  3.94684  0.0
C  C313  1  0.00057921  0.53116598  0.22425918  1  -0.034018  0.000835  -0.089352  -0.135351  0.00027  3.97811  0.001
C  C314  1  0.93865663  0.49618072  0.21942654  1  0.035862  -0.002599  -0.004701  0.071545  -0.00289  4.006503  -0.002
C  C315  1  0.98654061  0.43871739  0.20880314  1  -0.052866  0.001531  -0.095044  -0.141924  0.000648  3.999428  0.001
C  C316  1  0.09221003  0.41836047  0.20135957  1  -0.089865  -0.001043  -0.085258  -0.093219  -0.001408  3.992462  -0.001
C  C317  1  0.82694754  0.51976512  0.22526607  1  -0.025804  0.00173  -0.005558  0.06823  0.000787  4.010215  0.001
C  C318  1  0.75984866  0.47689596  0.24751667  1  -0.084378  -0.001215  -0.092577  -0.141169  -0.001377  3.991594  -0.001
C  C319  1  0.65448443  0.49927918  0.25592005  1  -0.028401  0.002566  -0.079094  -0.071825  0.001204  3.939127  0.002
C  C320  1  0.61350202  0.56566164  0.24177846  1  -0.001531  0.000516  -0.017884  -0.03327  -0.000263  3.978713  0.0
C  C321  1  0.50219824  0.59106233  0.25453157  1  1.511797  0.006434  0.207863  0.571787  0.004302  4.165552  0.004
C  C322  1  0.67935487  0.60909994  0.21766447  1  -0.047108  0.00257  -0.083183  -0.088532  0.001257  3.99378  0.002
C  C323  1  0.78443681  0.58648747  0.20938557  1  -0.058004  -0.000269  -0.091609  -0.135949  -0.00045  3.991679  0.0
C  C324  1  0.50148715  0.36568194  0.28125366  1  1.557336  -0.002284  0.222442  0.601385  -0.003532  4.153555  -0.002
C  C325  1  0.54895883  0.31420503  0.33188926  1  -0.124718  0.010809  -0.021609  -0.041126  0.005596  3.975004  0.008
C  C326  1  0.58227289  0.24983179  0.33544474  1  0.018087  -0.000462  -0.086663  -0.091175  -0.000873  3.990886  0.0
C  C327  1  0.62662774  0.20250368  0.38270729  1  -0.012612  0.000838  -0.091695  -0.132521  0.000338  3.976998  0.001
C  C328  1  0.63978634  0.21810406  0.42760534  1  -0.036514  -0.001781  -0.007975  0.067175  -0.002018  4.003439  -0.001
C  C329  1  0.60662266  0.28288478  0.42347826  1  -0.060199  0.000831  -0.096105  -0.138651  0.00032  4.000421  0.001
C  C330  1  0.56142935  0.33017989  0.37652318  1  0.00895  -0.000332  -0.085949  -0.089683  -0.000822  3.98345  0.0
C  C331  1  0.68799828  0.16804235  0.47737510  1  0.004818  -0.000849  -0.00705  0.071819  -0.001009  3.997901  0.0
C  C332  1  0.76580090  0.11596227  0.46971883  1  -0.049947  0.000417  -0.093159  -0.135863  0.000124  3.961676  0.0
C  C333  1  0.81358509  0.07002256  0.51626716  1  -0.075854  0.000392  -0.087116  -0.091065  -0.000188  3.990831  0.0
C  C334  1  0.78444443  0.07424423  0.57192103  1  0.001274  0.009959  -0.02255  -0.040796  0.005263  3.97421  0.008
C  C335  1  0.83578093  0.02570944  0.62235579  1  1.541941  0.000818  0.219612  0.599868  0.000223  4.159469  0.001
C  C336  1  0.70559323  0.12524640  0.58009425  1  -0.038654  0.000371  -0.089493  -0.095165  -0.000146  3.994818  0.0
C  C337  1  0.65828176  0.17148815  0.53352779  1  -0.092558  0.00053  -0.097123  -0.145132  0.000201  4.003083  0.0
C  C338  1  0.52157987  0.29249903  0.12029073  1  0.991768  -0.000814  0.154174  0.108497  -0.001658  3.892588  0.0
C  C339  1  0.58820453  0.21945323  0.06452024  1  0.33795  0.000496  0.10257  0.189304  0.000234  4.031272  0.0
C  C340  1  0.60003844  0.22350355  0.00707281  1  -0.008439  0.000484  -0.082713  -0.24569  0.000274  3.937974  0.0
C  C341  1  0.60884265  0.16755565  0.99720522  1  0.317037  0.000396  0.102367  0.190153  0.00013  4.032228  0.0
C  C342  1  0.68097765  0.12515783  0.91746993  1  0.949501  0.00409  0.14538  0.095683  0.002681  3.91046  0.004
C  C343  1  0.61832024  0.20664902  0.84422957  1  0.373837  0.00202  0.016383  0.00335  0.000699  3.944013  0.002
C  C344  1  0.58252373  0.22382944  0.89232363  1  0.278873  0.004721  0.005827  -0.09615  0.002445  3.884141  0.003
C  C345  1  0.60492853  0.10827111  0.04401016  1  -0.032194  -0.000246  -0.087625  -0.179058  -0.000304  3.968528  0.0
C  C346  1  0.59365030  0.10523260  0.10108098  1  0.020409  -7e-06  -0.076786  -0.030369  -3.3e-05  4.004503  0.0
C  C347  1  0.58560096  0.16053444  0.11182015  1  -0.043578  -0.000275  -0.086502  -0.178727  -0.000351  3.975615  0.0
C  C348  1  0.63127720  0.32613649  0.03793842  1  0.281464  0.002274  0.004575  -0.09869  0.001116  3.908012  0.001
C  C349  1  0.60142749  0.37069626  0.06415166  1  0.411799  0.001547  0.009347  -0.013838  0.000676  3.985698  0.001
C  C350  1  0.24040943  0.64668118  0.20579561  1  1.524654  -0.004677  0.216251  0.584199  -0.005964  4.171159  -0.003
C  C351  1  0.19367479  0.69807951  0.15531897  1  -0.009653  0.009176  -0.022398  -0.039837  0.004667  3.980556  0.007
C  C352  1  0.15841171  0.76178644  0.15344294  1  -0.086883  -0.001347  -0.081551  -0.080882  -0.001843  3.955349  -0.001
C  C353  1  0.11970102  0.81041906  0.10480578  1  0.003548  0.000826  -0.092874  -0.13741  0.000289  3.970604  0.001
C  C354  1  0.11307153  0.79670892  0.05730818  1  0.008402  -0.003019  -0.00825  0.071055  -0.003365  4.002077  -0.002
C  C355  1  0.14583525  0.73213997  0.06063188  1  -0.115201  0.001005  -0.09771  -0.149105  0.000404  4.010913  0.001
C  C356  1  0.18665146  0.68355350  0.10860865  1  -0.009396  -0.001252  -0.089938  -0.100025  -0.001759  3.998815  -0.001
C  C357  1  0.07069363  0.84798625  0.00604674  1  -0.013943  -0.001578  -0.007733  0.068682  -0.001763  4.00553  -0.001
C  C358  1  0.99631135  0.90208993  0.01205138  1  -0.091646  0.000296  -0.09273  -0.137298  5e-05  3.991402  0.0
C  C359  1  0.10112994  0.84363793  0.95021231  1  -0.114216  0.000314  -0.094142  -0.136108  5.5e-05  3.990024  0.0
C  C360  1  0.92535147  0.98912759  0.86018055  1  1.536906  -0.001867  0.216806  0.593932  -0.002595  4.169355  -0.002
C  C361  1  0.97937431  0.94246347  0.90985398  1  -0.044118  0.009  -0.020427  -0.036437  0.004679  3.974087  0.007
C  C362  1  0.95153318  0.94863627  0.96468395  1  -0.009427  -0.00016  -0.088845  -0.093473  -0.000646  4.005785  0.0
C  C363  1  0.05585618  0.88991620  0.90288951  1  0.014839  -0.00037  -0.08122  -0.07963  -0.000805  3.972171  0.0
N  N364  1  0.46697379  0.65075421  0.88476643  1  -1.211399  0.056145  -0.355507  -0.299282  0.029875  3.64122  0.037
N  N365  1  0.41926955  0.72365186  0.92583418  1  -1.267317  0.004469  -0.223291  0.006033  0.002011  3.805533  0.004
N  N366  1  0.37800081  0.82849180  0.06120092  1  -1.256352  0.003817  -0.225327  0.003158  0.001548  3.811038  0.002
N  N367  1  0.31998097  0.85470075  0.13956286  1  -1.219417  0.061332  -0.361084  -0.302914  0.032043  3.6563  0.04
N  N368  1  0.99765515  0.15082725  0.38472972  1  -1.199755  0.056098  -0.354825  -0.299371  0.029804  3.63976  0.036
N  N369  1  0.93132103  0.22364219  0.42591064  1  -1.267789  0.004457  -0.22393  0.004775  0.002004  3.804214  0.004
N  N370  1  0.73214710  0.32861576  0.56119967  1  -1.256332  0.003821  -0.225105  0.005037  0.001547  3.809619  0.002
N  N371  1  0.68569372  0.35483870  0.63954420  1  -1.214664  0.061411  -0.361227  -0.302088  0.032089  3.657596  0.04
N  N372  1  0.00234546  0.84917418  0.61526862  1  -1.199696  0.056097  -0.354845  -0.299421  0.029804  3.639791  0.036
N  N373  1  0.06868321  0.77635730  0.57408831  1  -1.267833  0.004457  -0.223906  0.004584  0.002004  3.804334  0.004
N  N374  1  0.26785313  0.67138228  0.43879966  1  -1.25666  0.003821  -0.225115  0.005125  0.001547  3.809471  0.002
N  N375  1  0.31430625  0.64515788  0.36045456  1  -1.214899  0.06141  -0.361218  -0.302109  0.03209  3.657829  0.04
N  N376  1  0.53302489  0.34924627  0.11523530  1  -1.211178  0.056144  -0.355507  -0.29933  0.029875  3.641494  0.037
N  N377  1  0.58072823  0.27634911  0.07416672  1  -1.267162  0.004469  -0.2233  0.005993  0.00201  3.805457  0.004
N  N378  1  0.62200166  0.17150626  0.93880042  1  -1.256236  0.003818  -0.225338  0.003074  0.001549  3.810924  0.002
N  N379  1  0.68001792  0.14529682  0.86043842  1  -1.219485  0.061332  -0.361149  -0.302981  0.032042  3.656306  0.04
O  O380  1  0.67672643  0.53852100  0.79653313  1  -1.164208  0.097439  -0.303493  -0.576844  0.050792  2.501515  0.085
O  O381  1  0.69108178  0.60686981  0.83082759  1  -1.134047  0.097028  -0.316536  -0.547401  0.049745  2.225295  0.077
O  O382  1  0.55702669  0.45161140  0.71722366  1  -1.133761  0.132046  -0.328344  -0.60287  0.06973  2.493105  0.105
O  O383  1  0.53489881  0.34999336  0.75699350  1  -1.152725  0.052809  -0.295173  -0.520008  0.025881  2.137078  0.044
O  O384  1  0.49770969  0.65095876  0.76102312  1  -1.143  0.097484  -0.32447  -0.567232  0.049405  2.381739  0.077
O  O385  1  0.53329822  0.57830369  0.71700247  1  -1.153073  0.078755  -0.299073  -0.554064  0.041055  2.420801  0.067
O  O386  1  0.19177240  0.96561861  0.32953217  1  -1.150692  0.060603  -0.300563  -0.560981  0.031485  2.396492  0.052
O  O387  1  0.09624109  0.02150066  0.38794343  1  -1.159142  0.09466  -0.322966  -0.56836  0.048131  2.394522  0.074
O  O388  1  0.71670198  0.40825506  0.79771573  1  -1.16225  0.077926  -0.304936  -0.578089  0.041289  2.42594  0.067
O  O389  1  0.76498606  0.33844516  0.75026229  1  -1.131765  0.089206  -0.312875  -0.532243  0.045116  2.387922  0.07
O  O390  1  0.05141244  0.02143456  0.18698673  1  -1.153724  0.061966  -0.30149  -0.56818  0.032172  2.386475  0.054
O  O391  1  0.14318658  0.96336106  0.13035737  1  -1.154876  0.088483  -0.327032  -0.568406  0.045001  2.38422  0.07
O  O392  1  0.98834997  0.03846339  0.29658966  1  -1.1616  0.0975  -0.30336  -0.576646  0.050857  2.501158  0.085
O  O393  1  0.87122515  0.10691993  0.33070432  1  -1.128234  0.097369  -0.316322  -0.546934  0.049723  2.222789  0.077
O  O394  1  0.27426625  0.95159593  0.21726786  1  -1.142156  0.132101  -0.328822  -0.603622  0.069732  2.492899  0.105
O  O395  1  0.35804185  0.84994070  0.25709030  1  -1.138326  0.052812  -0.295435  -0.520418  0.02592  2.136576  0.044
O  O396  1  0.08996509  0.15107184  0.26090791  1  -1.149974  0.097442  -0.324644  -0.56674  0.049315  2.381069  0.077
O  O397  1  0.17144543  0.07832908  0.21702070  1  -1.151767  0.078706  -0.299291  -0.554907  0.040978  2.42023  0.067
O  O398  1  0.51323583  0.46564972  0.82949106  1  -1.156739  0.06061  -0.300892  -0.560718  0.031415  2.396058  0.052
O  O399  1  0.49458914  0.52139897  0.88799564  1  -1.153134  0.094633  -0.322768  -0.56758  0.048105  2.393184  0.074
O  O400  1  0.07747426  0.90827443  0.29780970  1  -1.160202  0.077997  -0.304526  -0.578882  0.041278  2.426631  0.067
O  O401  1  0.14628322  0.83855446  0.25024557  1  -1.138319  0.089174  -0.314045  -0.533859  0.045063  2.386879  0.07
O  O402  1  0.74018094  0.52148146  0.68695453  1  -1.154455  0.061966  -0.301399  -0.566781  0.032159  2.385571  0.054
O  O403  1  0.76340158  0.46331912  0.63037244  1  -1.15335  0.088559  -0.327044  -0.568253  0.045022  2.384039  0.07
O  O404  1  0.01164925  0.96153997  0.70340774  1  -1.161653  0.097496  -0.30332  -0.576503  0.050858  2.501251  0.085
O  O405  1  0.12877231  0.89308198  0.66929390  1  -1.128514  0.097371  -0.316383  -0.546974  0.049725  2.222805  0.077
O  O406  1  0.72573158  0.04840259  0.78273163  1  -1.141872  0.132063  -0.328813  -0.60368  0.069729  2.493071  0.105
O  O407  1  0.64195495  0.15005640  0.74291187  1  -1.138755  0.05282  -0.295439  -0.520427  0.025924  2.136512  0.044
O  O408  1  0.91003205  0.84893104  0.73909116  1  -1.149977  0.097436  -0.324662  -0.566804  0.049313  2.38117  0.077
O  O409  1  0.82855593  0.92167233  0.78297596  1  -1.151558  0.078714  -0.299311  -0.55497  0.040983  2.420217  0.067
O  O410  1  0.48676995  0.53434734  0.17050782  1  -1.156941  0.060607  -0.300903  -0.5608  0.031411  2.395932  0.052
O  O411  1  0.50538360  0.47861452  0.11199508  1  -1.153442  0.094638  -0.32286  -0.567693  0.048102  2.393098  0.074
O  O412  1  0.92253061  0.09172313  0.70218990  1  -1.160263  0.077991  -0.304588  -0.578878  0.041276  2.426548  0.067
O  O413  1  0.85371716  0.16144311  0.74975548  1  -1.138365  0.089173  -0.314104  -0.533809  0.045061  2.386924  0.07
O  O414  1  0.25982350  0.47851514  0.31304669  1  -1.154333  0.061958  -0.301405  -0.566796  0.032156  2.385655  0.054
O  O415  1  0.23659492  0.53667891  0.36962509  1  -1.153171  0.088567  -0.3271  -0.568327  0.045026  2.383854  0.07
O  O416  1  0.32327464  0.46147903  0.20347157  1  -1.163968  0.097454  -0.303576  -0.576966  0.050798  2.501562  0.085
O  O417  1  0.30892122  0.39313117  0.16917527  1  -1.13397  0.097029  -0.316568  -0.547463  0.049748  2.2251  0.077
O  O418  1  0.44297226  0.54839053  0.28277630  1  -1.133845  0.132041  -0.328337  -0.602896  0.069727  2.493277  0.105
O  O419  1  0.46509849  0.65000906  0.24300730  1  -1.152876  0.052812  -0.295106  -0.519908  0.025882  2.136964  0.044
O  O420  1  0.50230118  0.34904553  0.23897022  1  -1.143096  0.097497  -0.324482  -0.567239  0.049413  2.381624  0.077
O  O421  1  0.46670888  0.42169389  0.28299993  1  -1.153135  0.078746  -0.299018  -0.554051  0.041049  2.420865  0.067
O  O422  1  0.80822628  0.03438185  0.67046722  1  -1.150665  0.060603  -0.300551  -0.560962  0.031486  2.396471  0.052
O  O423  1  0.90376187  0.97850270  0.61205419  1  -1.159005  0.094659  -0.323029  -0.568406  0.048132  2.39445  0.074
O  O424  1  0.28330023  0.59174832  0.20228396  1  -1.162048  0.077912  -0.304874  -0.57806  0.041288  2.425931  0.067
O  O425  1  0.23501096  0.66155582  0.24973989  1  -1.13187  0.089215  -0.312856  -0.532172  0.04512  2.388037  0.07
O  O426  1  0.94858598  0.97856444  0.81301131  1  -1.154099  0.061968  -0.301551  -0.568192  0.032172  2.386492  0.054
O  O427  1  0.85681423  0.03663747  0.86964246  1  -1.155027  0.088477  -0.327077  -0.56843  0.044998  2.384269  0.07
