# generated using pymatgen
data_CoH13C20N5O4
_symmetry_space_group_name_H-M   'P 1'
_cell_length_a   10.18747922
_cell_length_b   16.59091793
_cell_length_c   23.93732972
_cell_angle_alpha   90.48600936
_cell_angle_beta   90.00054945
_cell_angle_gamma   89.99973277
_symmetry_Int_Tables_number   1
_chemical_formula_structural   CoH13C20N5O4
_chemical_formula_sum   'Co8 H104 C160 N40 O32'
_cell_volume   4045.73309631
_cell_formula_units_Z   8
loop_
 _symmetry_equiv_pos_site_id
 _symmetry_equiv_pos_as_xyz
  1  'x, y, z'
loop_
 _atom_site_type_symbol
 _atom_site_label
 _atom_site_symmetry_multiplicity
 _atom_site_fract_x
 _atom_site_fract_y
 _atom_site_fract_z
 _atom_site_occupancy
 _atom_site_pbe_bader_charge
 _atom_site_pbe_bader_spin_density
 _atom_site_pbe_cm5_charge
 _atom_site_pbe_ddec_charge
 _atom_site_pbe_ddec_spin_density
 _atom_site_pbe_ddec_sum_bond_order
 _atom_site_pbe_magmom
Co  Co0  1  0.22841563  0.48115286  0.86481865  1  1.286259  2.593274  0.676947  0.868471  2.838556  2.52118  2.571
Co  Co1  1  0.72842275  0.01884478  0.63518006  1  1.286223  2.593277  0.676991  0.868538  2.83855  2.52112  2.571
Co  Co2  1  0.77158192  0.51884639  0.13517918  1  1.28617  2.593267  0.676991  0.868515  2.838541  2.521176  2.571
Co  Co3  1  0.27158069  0.98115205  0.36481858  1  1.286211  2.593277  0.677  0.868476  2.838552  2.521163  2.571
Co  Co4  1  0.26166913  0.61739746  0.73169873  1  1.281026  2.582297  0.679287  0.888074  2.814942  2.542706  2.548
Co  Co5  1  0.76167542  0.88260477  0.76830645  1  1.281062  2.582306  0.679342  0.8882  2.814951  2.542688  2.548
Co  Co6  1  0.73832743  0.38260299  0.26830244  1  1.280938  2.582306  0.679317  0.888121  2.814944  2.542647  2.548
Co  Co7  1  0.23832213  0.11739507  0.23169723  1  1.280977  2.582302  0.67932  0.888113  2.814935  2.54266  2.548
H  H8  1  0.88385746  0.49558559  0.87068548  1  0.123553  0.000208  0.108411  0.119603  -3.6e-05  1.009035  0.0
H  H9  1  0.38385762  0.00440981  0.62931260  1  0.123568  0.000208  0.108433  0.119619  -3.6e-05  1.008956  0.0
H  H10  1  0.11614107  0.50441365  0.12931318  1  0.12354  0.000208  0.10843  0.119633  -3.5e-05  1.008933  0.0
H  H11  1  0.61614680  0.99557798  0.37068390  1  0.123283  0.000208  0.108461  0.119647  -3.5e-05  1.00903  0.0
H  H12  1  0.64160234  0.46958789  0.86978321  1  0.080357  0.000403  0.099885  0.102589  0.000131  1.025204  0.0
H  H13  1  0.14160329  0.03040818  0.63021639  1  0.080407  0.000403  0.099875  0.10256  0.000131  1.025253  0.0
H  H14  1  0.35839521  0.53041015  0.13021419  1  0.080334  0.000403  0.099857  0.102536  0.000131  1.025209  0.0
H  H15  1  0.85840211  0.96958324  0.36978181  1  0.080099  0.000403  0.099864  0.102552  0.000131  1.025163  0.0
H  H16  1  0.60746899  0.59466090  0.71335096  1  0.158624  0.000232  0.105486  0.123168  3.8e-05  1.038033  0.0
H  H17  1  0.10748230  0.90533753  0.78665064  1  0.15859  0.000232  0.105555  0.123296  3.8e-05  1.037929  0.0
H  H18  1  0.39252758  0.40534799  0.28665194  1  0.158318  0.000232  0.105484  0.123137  3.8e-05  1.038048  0.0
H  H19  1  0.89252212  0.09465629  0.21334841  1  0.158363  0.000232  0.1055  0.12319  3.8e-05  1.038021  0.0
H  H20  1  0.84805050  0.62439297  0.71611833  1  0.102957  0.000427  0.10102  0.101976  0.000119  1.037874  0.0
H  H21  1  0.34806398  0.87560480  0.78388133  1  0.103803  0.000427  0.100987  0.101979  0.000119  1.037972  0.0
H  H22  1  0.15194411  0.37562254  0.28388587  1  0.104116  0.000426  0.100954  0.101979  0.000119  1.037717  0.0
H  H23  1  0.65193946  0.12438541  0.21611560  1  0.104057  0.000426  0.100967  0.101939  0.000119  1.037857  0.0
H  H24  1  0.26609124  0.82229682  0.62888537  1  0.063286  0.000563  0.102105  0.10488  0.000238  1.027029  0.0
H  H25  1  0.76610143  0.67770057  0.87111813  1  0.063435  0.000563  0.102145  0.104938  0.000238  1.026823  0.0
H  H26  1  0.73391220  0.17769880  0.37111787  1  0.063184  0.000563  0.102116  0.10489  0.000238  1.026896  0.0
H  H27  1  0.23389809  0.32229866  0.12888805  1  0.063271  0.000563  0.102067  0.104803  0.000238  1.02691  0.0
H  H28  1  0.23608254  0.90757011  0.54430357  1  0.056728  -2e-06  0.102072  0.104248  -7.4e-05  1.00389  0.0
H  H29  1  0.73610510  0.59242675  0.95570481  1  0.056678  -2e-06  0.102107  0.104284  -7.4e-05  1.003763  0.0
H  H30  1  0.76390617  0.09242611  0.45570217  1  0.056569  -2e-06  0.102086  0.104252  -7.4e-05  1.003871  0.0
H  H31  1  0.26391601  0.40757248  0.04430430  1  0.056749  -2e-06  0.102065  0.104254  -7.4e-05  1.003785  0.0
H  H32  1  0.47763255  0.74327494  0.44910268  1  0.07635  0.000316  0.103803  0.107033  0.000124  0.995397  0.0
H  H33  1  0.97765655  0.75672957  0.05089889  1  0.077171  0.000316  0.10389  0.107267  0.000124  0.995221  0.0
H  H34  1  0.52234635  0.25672491  0.55089515  1  0.076209  0.000317  0.103798  0.107048  0.000124  0.995407  0.0
H  H35  1  0.02236358  0.24328173  0.94910110  1  0.076173  0.000316  0.10384  0.107148  0.000124  0.995393  0.0
H  H36  1  0.50477009  0.65740529  0.53439416  1  0.09739  9.1e-05  0.103995  0.106849  7e-06  1.009374  0.0
H  H37  1  0.00477710  0.84259463  0.96560745  1  0.097482  9.1e-05  0.103996  0.106847  7e-06  1.009651  0.0
H  H38  1  0.49522844  0.34259275  0.46560324  1  0.097359  9.1e-05  0.103977  0.106811  7e-06  1.009585  0.0
H  H39  1  0.99522340  0.15741487  0.03439045  1  0.09768  9.1e-05  0.103974  0.106863  7e-06  1.009517  0.0
H  H40  1  0.99545398  0.40344005  0.81418320  1  0.120716  0.001302  0.116152  0.087488  0.000135  1.030093  0.001
H  H41  1  0.49546941  0.09656410  0.68581415  1  0.120752  0.001302  0.116142  0.087547  0.000135  1.030126  0.001
H  H42  1  0.00455142  0.59656583  0.18581174  1  0.120603  0.001302  0.116149  0.087484  0.000136  1.030068  0.001
H  H43  1  0.50454483  0.90344117  0.31418664  1  0.120666  0.001302  0.116154  0.087476  0.000135  1.030098  0.001
H  H44  1  0.93598229  0.32416550  0.72869751  1  0.129653  0.000733  0.110113  0.11983  0.000361  1.006969  0.0
H  H45  1  0.43600098  0.17584303  0.77129627  1  0.129294  0.000733  0.110137  0.11992  0.000361  1.007003  0.0
H  H46  1  0.06401624  0.67584641  0.27129622  1  0.129749  0.000733  0.110131  0.119863  0.000361  1.007047  0.0
H  H47  1  0.56402111  0.82417008  0.22869914  1  0.129616  0.000733  0.110093  0.119836  0.000361  1.006983  0.0
H  H48  1  0.35022085  0.29563988  0.69649490  1  0.109186  0.000878  0.110756  0.121063  0.000411  0.995872  0.0
H  H49  1  0.85024207  0.20435502  0.80350472  1  0.109051  0.000878  0.110822  0.121099  0.000411  0.995771  0.0
H  H50  1  0.64977474  0.70435455  0.30349997  1  0.109308  0.000878  0.110765  0.121099  0.000411  0.995841  0.0
H  H51  1  0.14978296  0.79564121  0.19649435  1  0.109162  0.000878  0.110799  0.121099  0.000411  0.99595  0.0
H  H52  1  0.39250184  0.37613288  0.78332062  1  0.114745  0.001421  0.115742  0.087325  0.000289  1.011696  0.001
H  H53  1  0.89251684  0.12386190  0.71667833  1  0.114498  0.001421  0.115725  0.087329  0.000288  1.011632  0.001
H  H54  1  0.60750062  0.62386275  0.21667426  1  0.114648  0.001421  0.115711  0.087319  0.000288  1.011722  0.001
H  H55  1  0.10750034  0.87613072  0.28332029  1  0.114812  0.001422  0.115743  0.087339  0.000289  1.011746  0.001
H  H56  1  0.96450661  0.13810092  0.49570322  1  0.085759  0.000836  0.10692  0.109897  0.000434  1.046213  0.0
H  H57  1  0.46450511  0.36189533  0.00429027  1  0.085638  0.000836  0.106899  0.109962  0.000434  1.046012  0.0
H  H58  1  0.03549291  0.86189170  0.50428955  1  0.085616  0.000836  0.106916  0.109957  0.000434  1.046064  0.0
H  H59  1  0.53549146  0.63810211  0.99570545  1  0.085661  0.000836  0.106884  0.109874  0.000434  1.046227  0.0
H  H60  1  0.03535756  0.06243050  0.41159582  1  0.129956  0.001319  0.115122  0.089679  0.000249  1.03718  0.001
H  H61  1  0.53534467  0.43756813  0.08839968  1  0.129768  0.001319  0.115113  0.089634  0.000249  1.03714  0.001
H  H62  1  0.96465569  0.93756152  0.58839945  1  0.129696  0.001319  0.11512  0.08958  0.000249  1.037216  0.001
H  H63  1  0.46463816  0.56243112  0.91159689  1  0.130023  0.001318  0.115094  0.089641  0.000249  1.037256  0.001
H  H64  1  0.42540549  0.06954785  0.45947444  1  0.138191  0.001378  0.118181  0.091619  0.000315  0.995083  0.001
H  H65  1  0.92539944  0.43045272  0.04052811  1  0.138267  0.001378  0.118134  0.091601  0.000315  0.995192  0.001
H  H66  1  0.57460187  0.93045200  0.54052548  1  0.138302  0.001377  0.118167  0.091675  0.000315  0.995097  0.001
H  H67  1  0.07459026  0.56955074  0.95947559  1  0.138047  0.001378  0.118155  0.091637  0.000316  0.994987  0.001
H  H68  1  0.37103458  0.13959488  0.54904549  1  0.156733  0.001133  0.107669  0.122463  0.000651  1.04133  0.0
H  H69  1  0.87103530  0.36040719  0.95095510  1  0.156705  0.001133  0.107677  0.122467  0.000651  1.041371  0.0
H  H70  1  0.62896297  0.86040858  0.45095237  1  0.156636  0.001133  0.10765  0.122444  0.000651  1.041334  0.0
H  H71  1  0.12896519  0.63959627  0.04904652  1  0.15671  0.001133  0.107665  0.122468  0.000652  1.041296  0.0
H  H72  1  0.12059763  0.71276979  0.82646953  1  0.127298  0.001398  0.118063  0.091303  0.000192  1.006452  0.001
H  H73  1  0.62060941  0.78722619  0.67353879  1  0.127335  0.001398  0.118088  0.091401  0.000192  1.006523  0.001
H  H74  1  0.87939599  0.28722825  0.17353288  1  0.127407  0.001398  0.118062  0.091356  0.000192  1.006484  0.001
H  H75  1  0.37939108  0.21277064  0.32646612  1  0.127394  0.001398  0.118062  0.091327  0.000192  1.006561  0.001
H  H76  1  0.18126295  0.78991120  0.91190765  1  0.114617  0.000757  0.108366  0.12038  0.000325  1.037898  0.0
H  H77  1  0.68126557  0.71008582  0.58810009  1  0.114812  0.000757  0.108344  0.120388  0.000325  1.037898  0.0
H  H78  1  0.81873263  0.21008986  0.08809353  1  0.114737  0.000757  0.10836  0.120369  0.000325  1.037888  0.0
H  H79  1  0.31873493  0.28990920  0.41190564  1  0.114731  0.000757  0.108346  0.12035  0.000325  1.03791  0.0
H  H80  1  0.58723729  0.76796694  0.86109071  1  0.146023  0.000604  0.111276  0.126359  0.000222  1.029355  0.0
H  H81  1  0.08724570  0.73203938  0.63891044  1  0.146303  0.000604  0.111288  0.126401  0.000222  1.029456  0.0
H  H82  1  0.41275830  0.23203531  0.13890881  1  0.146287  0.000604  0.111298  0.126411  0.000222  1.029496  0.0
H  H83  1  0.91275578  0.26796468  0.36109243  1  0.146283  0.000604  0.111294  0.126386  0.000222  1.029542  0.0
H  H84  1  0.50902003  0.69407375  0.77678762  1  0.114959  0.001123  0.119024  0.08963  0.000152  1.006184  0.001
H  H85  1  0.00903368  0.80592616  0.72321441  1  0.114713  0.001123  0.119026  0.08954  0.000152  1.006353  0.001
H  H86  1  0.49097261  0.30592730  0.22321230  1  0.114856  0.001123  0.11901  0.089603  0.000152  1.006155  0.001
H  H87  1  0.99096682  0.19407489  0.27678844  1  0.114748  0.001123  0.119017  0.089591  0.000152  1.006151  0.001
H  H88  1  0.17379194  0.90341180  0.06699689  1  0.116443  0.000764  0.114655  0.127448  0.000356  0.98571  0.0
H  H89  1  0.67379236  0.59659897  0.43299721  1  0.113196  0.000766  0.114668  0.127498  0.000356  0.985603  0.0
H  H90  1  0.82619285  0.09660735  0.93299564  1  0.113371  0.000766  0.114677  0.127557  0.000356  0.985601  0.0
H  H91  1  0.32620421  0.40340148  0.56700606  1  0.11268  0.000766  0.114637  0.12743  0.000356  0.985679  0.0
H  H92  1  0.11021742  0.99101402  0.14910781  1  0.117084  0.001369  0.123276  0.105378  0.000349  0.984761  0.001
H  H93  1  0.61022552  0.50899150  0.35088850  1  0.117101  0.001368  0.123235  0.105307  0.000349  0.984942  0.001
H  H94  1  0.88976835  0.00899608  0.85088967  1  0.117175  0.001369  0.123265  0.105354  0.000349  0.9848  0.001
H  H95  1  0.38977400  0.49100835  0.64911476  1  0.117025  0.001368  0.123255  0.105344  0.000349  0.984824  0.001
H  H96  1  0.49099452  0.07098076  0.16929971  1  0.113581  0.001116  0.114204  0.083021  0.000162  1.051975  0.001
H  H97  1  0.99099890  0.42900998  0.33070806  1  0.113528  0.001116  0.114207  0.083024  0.000163  1.051986  0.001
H  H98  1  0.50900008  0.92901365  0.83070561  1  0.113719  0.001115  0.114205  0.083026  0.000162  1.052068  0.001
H  H99  1  0.00899964  0.57098565  0.66929601  1  0.113772  0.001116  0.114198  0.083004  0.000163  1.05194  0.001
H  H100  1  0.57072909  0.99125805  0.08846612  1  0.072728  0.000733  0.108273  0.113702  0.000336  0.996997  0.0
H  H101  1  0.07072767  0.50873610  0.41154249  1  0.072715  0.000733  0.108228  0.113617  0.000336  0.997025  0.0
H  H102  1  0.42925963  0.00874059  0.91153630  1  0.072577  0.000734  0.108216  0.113604  0.000336  0.996962  0.0
H  H103  1  0.92926988  0.49126314  0.58846202  1  0.072696  0.000733  0.108254  0.113662  0.000336  0.996986  0.0
H  H104  1  0.91152672  0.16519778  0.58019942  1  0.560465  0.000492  0.317577  0.28233  0.000284  1.00959  0.0
H  H105  1  0.41153571  0.33479696  0.91979376  1  0.559968  0.00049  0.317573  0.282378  0.000284  1.009443  0.0
H  H106  1  0.08846788  0.83480087  0.41979631  1  0.560066  0.000491  0.317597  0.282366  0.000284  1.009431  0.0
H  H107  1  0.58847067  0.66519867  0.08020237  1  0.560452  0.000492  0.317615  0.282414  0.000284  1.009509  0.0
H  H108  1  0.62696662  0.87530282  0.03656620  1  0.499075  6.4e-05  0.356985  0.293771  -2e-06  0.884312  0.0
H  H109  1  0.12696743  0.62469963  0.46343600  1  0.4991  6.4e-05  0.357004  0.293745  -2e-06  0.884334  0.0
H  H110  1  0.37302111  0.12469883  0.96343665  1  0.498961  6.4e-05  0.357019  0.293823  -2e-06  0.884278  0.0
H  H111  1  0.87302914  0.37530263  0.53656519  1  0.499054  6.4e-05  0.356974  0.29377  -2e-06  0.884261  0.0
C  C112  1  0.02448963  0.57677816  0.79383013  1  1.540482  -0.003531  0.219987  0.575869  -0.004651  4.170195  0.001
C  C113  1  0.52450108  0.92322231  0.70617072  1  1.540641  -0.003532  0.22016  0.576185  -0.004653  4.169917  0.001
C  C114  1  0.97550498  0.42322711  0.20617024  1  1.540513  -0.003529  0.219994  0.575886  -0.004649  4.170154  0.001
C  C115  1  0.47550531  0.07676970  0.29382957  1  1.540475  -0.003531  0.219941  0.575798  -0.00465  4.170215  0.001
C  C116  1  0.88047081  0.56156736  0.79335340  1  -0.051234  0.006375  -0.014255  -0.034927  0.002662  3.971521  0.006
C  C117  1  0.38047913  0.93843213  0.70664599  1  -0.050622  0.006373  -0.014378  -0.035246  0.002661  3.971737  0.006
C  C118  1  0.11952477  0.43843912  0.20664782  1  -0.050958  0.006373  -0.014258  -0.03514  0.00266  3.971818  0.006
C  C119  1  0.61952627  0.06155747  0.29335094  1  -0.050955  0.006375  -0.014276  -0.035118  0.002662  3.971948  0.006
C  C120  1  0.82255135  0.51726572  0.83663897  1  -0.093108  -0.001274  -0.082977  -0.098996  -0.001723  3.970052  0.0
C  C121  1  0.32255149  0.98273092  0.66336100  1  -0.093105  -0.001273  -0.082959  -0.098965  -0.001723  3.970046  0.0
C  C122  1  0.17745012  0.48273412  0.16336137  1  -0.093096  -0.001272  -0.083009  -0.099049  -0.001721  3.970324  0.0
C  C123  1  0.67744999  0.01725929  0.33663594  1  -0.092811  -0.001273  -0.083011  -0.099046  -0.001722  3.970403  0.0
C  C124  1  0.68824438  0.50275618  0.83608325  1  -0.046324  0.000574  -0.08709  -0.094737  -0.000335  3.966577  0.001
C  C125  1  0.18824540  0.99724143  0.66391742  1  -0.046206  0.000572  -0.087115  -0.094699  -0.000336  3.966525  0.001
C  C126  1  0.31175317  0.49724367  0.16391625  1  -0.046184  0.000573  -0.087078  -0.094619  -0.000335  3.96665  0.001
C  C127  1  0.81175706  0.00274998  0.33608119  1  -0.046059  0.000573  -0.087034  -0.094641  -0.000335  3.966525  0.001
C  C128  1  0.61030300  0.53148878  0.79210480  1  -0.014742  0.006396  -0.019377  -0.042131  0.002863  3.982633  0.006
C  C129  1  0.11030621  0.96851085  0.70789724  1  -0.015018  0.006396  -0.019357  -0.042026  0.002863  3.982411  0.006
C  C130  1  0.38969749  0.46851710  0.20789641  1  -0.014852  0.006398  -0.019358  -0.042145  0.002865  3.98249  0.006
C  C131  1  0.88969429  0.03148176  0.29210180  1  -0.01476  0.006399  -0.019409  -0.042116  0.002865  3.982495  0.006
C  C132  1  0.66849829  0.57373604  0.74791158  1  -0.046859  -0.000425  -0.083238  -0.094744  -0.001007  3.936039  0.0
C  C133  1  0.16850576  0.92626223  0.75209027  1  -0.046546  -0.000426  -0.083309  -0.094886  -0.001008  3.93589  0.0
C  C134  1  0.33150318  0.42627164  0.25209048  1  -0.046373  -0.000427  -0.083244  -0.094689  -0.001008  3.935872  0.0
C  C135  1  0.83149866  0.07372979  0.24790919  1  -0.046395  -0.000425  -0.083236  -0.094766  -0.001007  3.935769  0.0
C  C136  1  0.80253336  0.58932076  0.74912133  1  -0.043508  -0.001313  -0.082577  -0.084469  -0.001998  3.94565  0.0
C  C137  1  0.30254387  0.91067835  0.75087941  1  -0.045183  -0.001312  -0.082544  -0.08444  -0.001998  3.945806  0.0
C  C138  1  0.19746419  0.41068933  0.25088242  1  -0.045063  -0.001312  -0.082547  -0.084409  -0.001998  3.945437  0.0
C  C139  1  0.69745957  0.08931246  0.24911711  1  -0.045143  -0.001312  -0.08254  -0.084359  -0.001998  3.945497  0.0
C  C140  1  0.46496387  0.52252923  0.79438460  1  1.523826  -0.001132  0.220308  0.569489  -0.002592  4.184896  0.001
C  C141  1  0.96496900  0.97746762  0.70561721  1  1.523778  -0.001135  0.220265  0.569356  -0.002595  4.184933  0.001
C  C142  1  0.53503662  0.47747242  0.20561492  1  1.524244  -0.001134  0.220337  0.569563  -0.002594  4.184844  0.001
C  C143  1  0.03503346  0.02252680  0.29438309  1  1.524239  -0.001134  0.220298  0.569581  -0.002593  4.184809  0.001
C  C144  1  0.39889509  0.68072467  0.63602616  1  1.557462  -0.000167  0.20168  0.561269  -0.001049  4.225667  0.0
C  C145  1  0.89890107  0.81927598  0.86397874  1  1.557246  -0.000166  0.201598  0.561124  -0.001048  4.225675  0.0
C  C146  1  0.60111326  0.31927156  0.36397457  1  1.557468  -0.000171  0.201657  0.56117  -0.001051  4.225545  0.0
C  C147  1  0.10109845  0.18072748  0.13602246  1  1.556634  -0.000169  0.201495  0.561006  -0.001051  4.225349  0.0
C  C148  1  0.38530902  0.73435641  0.58617027  1  -0.010146  0.010306  -0.015319  -0.025315  0.005357  3.960748  0.008
C  C149  1  0.88532046  0.76564187  0.91383330  1  -0.010063  0.010304  -0.015308  -0.025226  0.005357  3.960429  0.008
C  C150  1  0.61469344  0.26564103  0.41383005  1  -0.010207  0.010304  -0.015322  -0.025282  0.005356  3.960801  0.008
C  C151  1  0.11468102  0.23436159  0.08616957  1  -0.010704  0.010304  -0.015258  -0.025223  0.005357  3.960471  0.008
C  C152  1  0.31067501  0.80508927  0.58923852  1  0.059975  -0.001138  -0.083526  -0.088215  -0.001419  3.983148  -0.001
C  C153  1  0.81069772  0.69490860  0.91076642  1  0.060058  -0.001138  -0.083603  -0.088396  -0.001419  3.983135  -0.001
C  C154  1  0.68931862  0.19490937  0.41076557  1  0.060154  -0.001138  -0.083497  -0.088265  -0.001419  3.98338  -0.001
C  C155  1  0.18931062  0.30509365  0.08923644  1  0.060583  -0.001139  -0.083513  -0.088214  -0.00142  3.983317  -0.001
C  C156  1  0.29373586  0.85221037  0.54212674  1  -0.071103  0.00319  -0.090106  -0.111792  0.001514  3.989724  0.002
C  C157  1  0.79376294  0.64779177  0.95787816  1  -0.070637  0.00319  -0.090004  -0.111596  0.001513  3.989858  0.002
C  C158  1  0.70625089  0.14778947  0.45787527  1  -0.070795  0.00319  -0.090079  -0.111632  0.001513  3.989905  0.002
C  C159  1  0.20625032  0.35220988  0.04212804  1  -0.070949  0.00319  -0.090015  -0.111686  0.001513  3.990061  0.002
C  C160  1  0.35261648  0.82942137  0.49143399  1  -0.04461  -0.000337  -0.018059  -0.030403  -0.000996  4.006881  0.0
C  C161  1  0.85263726  0.67058106  0.00857123  1  -0.044857  -0.000338  -0.018155  -0.030418  -0.000997  4.007085  0.0
C  C162  1  0.64737125  0.17057727  0.50856801  1  -0.044736  -0.000338  -0.018109  -0.030553  -0.000997  4.006856  0.0
C  C163  1  0.14738287  0.32942722  0.99143292  1  -0.044471  -0.000339  -0.01799  -0.030315  -0.000998  4.006945  0.0
C  C164  1  0.43029737  0.75978180  0.48847179  1  -0.066414  0.004076  -0.090638  -0.115824  0.002026  4.002433  0.003
C  C165  1  0.93032160  0.74022283  0.01153543  1  -0.067733  0.004077  -0.090657  -0.11614  0.002027  4.002062  0.003
C  C166  1  0.56968742  0.24021624  0.51153062  1  -0.066483  0.004076  -0.090601  -0.115805  0.002027  4.002061  0.003
C  C167  1  0.06969264  0.25978847  0.98846540  1  -0.066658  0.004078  -0.090774  -0.116123  0.002027  4.002134  0.003
C  C168  1  0.44585443  0.71230853  0.53571206  1  -0.075454  -0.00099  -0.085541  -0.100238  -0.001429  3.989435  -0.001
C  C169  1  0.94587468  0.78769621  0.96428888  1  -0.075545  -0.00099  -0.085578  -0.100229  -0.001429  3.989256  -0.001
C  C170  1  0.55413919  0.28769312  0.46428620  1  -0.075562  -0.00099  -0.085573  -0.100233  -0.00143  3.989317  -0.001
C  C171  1  0.05413269  0.21231027  0.03571108  1  -0.075348  -0.000991  -0.085582  -0.100275  -0.00143  3.989101  -0.001
C  C172  1  0.33019997  0.88085210  0.44186010  1  1.539532  -0.004562  0.207192  0.56129  -0.006284  4.198617  -0.005
C  C173  1  0.83021637  0.61915040  0.05814169  1  1.539524  -0.004565  0.207001  0.561061  -0.006288  4.198735  -0.005
C  C174  1  0.66978776  0.11914594  0.55814190  1  1.539739  -0.004563  0.207126  0.561225  -0.006285  4.198506  -0.005
C  C175  1  0.16979885  0.38085186  0.94185950  1  1.539432  -0.004564  0.207155  0.561387  -0.006288  4.1982  -0.005
C  C176  1  0.07093654  0.37954309  0.78649849  1  0.402701  -0.007531  0.040048  0.094748  -0.008369  3.9553  -0.005
C  C177  1  0.57095052  0.12045800  0.71349793  1  0.402779  -0.007528  0.040057  0.094646  -0.008366  3.955414  -0.005
C  C178  1  0.92906199  0.62045978  0.21349560  1  0.402756  -0.007527  0.040149  0.094864  -0.008365  3.955353  -0.005
C  C179  1  0.42906274  0.87954486  0.28650118  1  0.402701  -0.007529  0.040139  0.094863  -0.008367  3.955055  -0.005
C  C180  1  0.03842177  0.33520317  0.73924074  1  0.035157  0.005103  -0.084337  -0.16518  0.002447  3.940535  0.004
C  C181  1  0.53843841  0.16480102  0.76075640  1  0.035377  0.005103  -0.084295  -0.165352  0.002447  3.940427  0.004
C  C182  1  0.96157971  0.66480211  0.26075504  1  0.035341  0.005103  -0.084384  -0.165437  0.002448  3.940646  0.004
C  C183  1  0.46158073  0.83520546  0.23924106  1  0.035218  0.005102  -0.084381  -0.165311  0.002447  3.940325  0.004
C  C184  1  0.13923349  0.30473743  0.70503058  1  -0.041806  -0.010561  0.011646  0.071464  -0.01124  4.005864  -0.007
C  C185  1  0.63925753  0.19526046  0.79496567  1  -0.040565  -0.010555  0.01139  0.071452  -0.011235  4.006055  -0.007
C  C186  1  0.86075916  0.69525941  0.29496388  1  -0.041069  -0.010554  0.011584  0.071714  -0.011233  4.005946  -0.007
C  C187  1  0.36076652  0.80474180  0.20503092  1  -0.04133  -0.010556  0.011642  0.071474  -0.011235  4.005943  -0.007
C  C188  1  0.26907829  0.31931972  0.72131450  1  -0.079904  0.005271  -0.081897  -0.161864  0.002466  3.939275  0.004
C  C189  1  0.76909129  0.18067359  0.77868435  1  -0.080291  0.005268  -0.081772  -0.161795  0.002465  3.939695  0.004
C  C190  1  0.73092220  0.68067531  0.27868330  1  -0.080522  0.005269  -0.081821  -0.161893  0.002465  3.93948  0.004
C  C191  1  0.23092196  0.81932264  0.22131304  1  -0.080387  0.00527  -0.081893  -0.161841  0.002465  3.93939  0.004
C  C192  1  0.29275379  0.36451050  0.76931213  1  0.510594  -0.00724  0.045538  0.106369  -0.007868  3.960213  -0.005
C  C193  1  0.79277294  0.13548456  0.73068558  1  0.510798  -0.007242  0.045468  0.106359  -0.007868  3.960029  -0.005
C  C194  1  0.70724179  0.63548272  0.23068232  1  0.510312  -0.007242  0.045528  0.106293  -0.007869  3.960043  -0.005
C  C195  1  0.20724915  0.86451047  0.26931180  1  0.510601  -0.007237  0.045507  0.106262  -0.007865  3.960309  -0.005
C  C196  1  0.10790838  0.25807220  0.65503827  1  0.984623  0.000648  0.203697  0.242601  -3.2e-05  4.088053  0.001
C  C197  1  0.60792533  0.24192637  0.84495954  1  0.984724  0.000647  0.203665  0.242338  -3.2e-05  4.088046  0.001
C  C198  1  0.89208720  0.74192644  0.34495872  1  0.984947  0.000648  0.203628  0.242212  -3.2e-05  4.088296  0.001
C  C199  1  0.39209283  0.75807589  0.15503914  1  0.984772  0.000648  0.203721  0.24257  -3.2e-05  4.088026  0.001
C  C200  1  0.12239030  0.18913204  0.58038445  1  0.910946  0.00039  0.221846  0.265843  -6.3e-05  4.029952  0.001
C  C201  1  0.62239660  0.31086348  0.91961172  1  0.911323  0.000391  0.221776  0.265732  -6.3e-05  4.030072  0.001
C  C202  1  0.87760529  0.81086781  0.41961087  1  0.908421  0.000391  0.221849  0.265853  -6.3e-05  4.030187  0.001
C  C203  1  0.37760978  0.68913576  0.08038736  1  0.911524  0.000391  0.221844  0.265877  -6.3e-05  4.029995  0.001
C  C204  1  0.16253330  0.14589929  0.53002712  1  0.055632  -0.008223  0.00918  0.056973  -0.008854  4.013051  -0.005
C  C205  1  0.66253450  0.35409853  0.96997174  1  0.05506  -0.008223  0.009219  0.057163  -0.008853  4.012953  -0.005
C  C206  1  0.83746327  0.85409815  0.46996736  1  0.05501  -0.008225  0.009141  0.057097  -0.008855  4.01302  -0.005
C  C207  1  0.33746305  0.64590131  0.03002818  1  0.055089  -0.008222  0.009139  0.057002  -0.008852  4.013041  -0.005
C  C208  1  0.06784023  0.12334672  0.49028082  1  0.019913  0.004076  -0.086331  -0.168245  0.001904  3.95839  0.003
C  C209  1  0.56783685  0.37664940  0.00971521  1  0.020027  0.004077  -0.086305  -0.168392  0.001905  3.958115  0.003
C  C210  1  0.93216517  0.87664891  0.50971489  1  0.020565  0.004077  -0.08628  -0.168383  0.001905  3.958089  0.003
C  C211  1  0.43215873  0.62334984  0.99028345  1  0.020094  0.004076  -0.08629  -0.16827  0.001904  3.958247  0.003
C  C212  1  0.10660510  0.08194071  0.44272043  1  0.415961  -0.005195  0.040044  0.094259  -0.005881  3.952666  -0.003
C  C213  1  0.60659853  0.41805772  0.05727661  1  0.416139  -0.005195  0.040032  0.094351  -0.005881  3.952473  -0.003
C  C214  1  0.89340227  0.91805190  0.55727526  1  0.41567  -0.005193  0.03996  0.094381  -0.005879  3.952712  -0.003
C  C215  1  0.39339313  0.58194213  0.94272080  1  0.415981  -0.005195  0.040148  0.094435  -0.005882  3.952438  -0.003
C  C216  1  0.32416754  0.08533901  0.46952269  1  0.466283  -0.005808  0.048662  0.099665  -0.006336  3.922303  -0.004
C  C217  1  0.82416139  0.41466184  0.03047819  1  0.466329  -0.00581  0.048724  0.099678  -0.006338  3.922425  -0.004
C  C218  1  0.67583786  0.91465963  0.53047680  1  0.465875  -0.00581  0.048662  0.099553  -0.006339  3.922383  -0.004
C  C219  1  0.17583322  0.58534223  0.96952469  1  0.466393  -0.005806  0.04865  0.099647  -0.006335  3.922356  -0.004
C  C220  1  0.29366874  0.12556661  0.51915010  1  -0.089397  0.00543  -0.077709  -0.150887  0.002643  3.90745  0.004
C  C221  1  0.79366610  0.37443266  0.98084847  1  -0.089373  0.00543  -0.077794  -0.15103  0.002643  3.907585  0.004
C  C222  1  0.70633274  0.87443264  0.48084731  1  -0.08935  0.005429  -0.077748  -0.150994  0.002642  3.907599  0.004
C  C223  1  0.20633341  0.62556899  0.01915020  1  -0.089438  0.00543  -0.077738  -0.150959  0.002643  3.907625  0.004
C  C224  1  0.22307741  0.72532106  0.83578382  1  0.479984  -0.005592  0.049436  0.109333  -0.006015  3.930686  -0.003
C  C225  1  0.72308613  0.77467886  0.66422203  1  0.480293  -0.005594  0.049322  0.109023  -0.006017  3.930814  -0.003
C  C226  1  0.77691425  0.27467818  0.16421819  1  0.479955  -0.005592  0.049424  0.10918  -0.006015  3.930885  -0.003
C  C227  1  0.27691338  0.22532158  0.33578207  1  0.479987  -0.005591  0.049408  0.109242  -0.006013  3.930975  -0.003
C  C228  1  0.25730116  0.76806103  0.88374104  1  -0.068841  0.004303  -0.0769  -0.144421  0.00204  3.901206  0.004
C  C229  1  0.75731013  0.73194000  0.61626411  1  -0.06903  0.004304  -0.076796  -0.14424  0.00204  3.901079  0.004
C  C230  1  0.74269148  0.23193942  0.11626014  1  -0.068656  0.004303  -0.076882  -0.14433  0.00204  3.901136  0.004
C  C231  1  0.24269135  0.26805863  0.38374039  1  -0.068786  0.004303  -0.076875  -0.144344  0.00204  3.901239  0.004
C  C232  1  0.39018985  0.78206899  0.89525507  1  0.014107  -0.008936  0.011721  0.059419  -0.009548  3.994521  -0.006
C  C233  1  0.89019670  0.71793288  0.60474729  1  0.013814  -0.008937  0.011792  0.059507  -0.009549  3.994485  -0.006
C  C234  1  0.60980279  0.21793266  0.10474402  1  0.0142  -0.008935  0.01176  0.059472  -0.009547  3.994401  -0.006
C  C235  1  0.10980575  0.28206817  0.39525597  1  0.013985  -0.008933  0.01177  0.059437  -0.009545  3.994519  -0.006
C  C236  1  0.48287780  0.75574749  0.85567289  1  -0.026358  0.004992  -0.07988  -0.161884  0.002368  3.920275  0.004
C  C237  1  0.98288533  0.74425232  0.64433109  1  -0.02637  0.004994  -0.079905  -0.162055  0.002369  3.920247  0.004
C  C238  1  0.51711485  0.24425235  0.14432828  1  -0.026607  0.004993  -0.079857  -0.161897  0.002368  3.920193  0.004
C  C239  1  0.01711516  0.25574933  0.35567260  1  -0.026563  0.004992  -0.079864  -0.161911  0.002368  3.920324  0.004
C  C240  1  0.43947219  0.71439604  0.80846527  1  0.441084  -0.006766  0.043567  0.09563  -0.007434  3.943881  -0.004
C  C241  1  0.93948340  0.78560510  0.69153854  1  0.44151  -0.006767  0.043477  0.095686  -0.007434  3.94404  -0.004
C  C242  1  0.56052046  0.28560441  0.19153549  1  0.441455  -0.006765  0.043567  0.095694  -0.007432  3.943751  -0.004
C  C243  1  0.06051709  0.21439716  0.30846473  1  0.441546  -0.006764  0.043513  0.09568  -0.007431  3.943707  -0.004
C  C244  1  0.42937759  0.82287991  0.94701527  1  0.927482  0.000425  0.212999  0.252277  -0.000125  4.057362  0.001
C  C245  1  0.92938066  0.67712066  0.55298809  1  0.927596  0.000425  0.213043  0.252255  -0.000125  4.057398  0.001
C  C246  1  0.57061702  0.17712356  0.05298467  1  0.927374  0.000425  0.21305  0.252315  -0.000125  4.057253  0.001
C  C247  1  0.07061984  0.32287919  0.44701601  1  0.927644  0.000425  0.212986  0.252266  -0.000125  4.057331  0.001
C  C248  1  0.41907298  0.89032048  0.02300971  1  0.969916  0.00011  0.224464  0.266407  -0.000233  4.049464  0.001
C  C249  1  0.91907428  0.60968297  0.47699370  1  0.970302  0.00011  0.224656  0.266539  -0.000232  4.049315  0.001
C  C250  1  0.58091868  0.10968901  0.97698944  1  0.969861  0.00011  0.224626  0.2666  -0.000233  4.04934  0.001
C  C251  1  0.08092523  0.39031506  0.52301122  1  0.969968  0.00011  0.224472  0.266367  -0.000233  4.049464  0.001
C  C252  1  0.37800134  0.93898089  0.07099069  1  0.075101  -0.007924  0.006429  0.047458  -0.008536  4.038982  -0.005
C  C253  1  0.87799900  0.56102087  0.42901087  1  0.075371  -0.00792  0.006417  0.047427  -0.008533  4.039048  -0.005
C  C254  1  0.62198737  0.06102680  0.92900510  1  0.07572  -0.007925  0.006411  0.04743  -0.008538  4.038847  -0.005
C  C255  1  0.12199855  0.43897535  0.57099362  1  0.075062  -0.007925  0.006343  0.047253  -0.008537  4.039002  -0.005
C  C256  1  0.24662851  0.94015460  0.08866912  1  -0.111301  0.003431  -0.075073  -0.147468  0.001638  3.909908  0.003
C  C257  1  0.74663265  0.55985174  0.41133026  1  -0.10814  0.00343  -0.075103  -0.147455  0.001638  3.90982  0.003
C  C258  1  0.75335530  0.05985851  0.91132503  1  -0.107615  0.00343  -0.075076  -0.147556  0.001638  3.910046  0.003
C  C259  1  0.25336391  0.44014689  0.58867592  1  -0.106951  0.00343  -0.074972  -0.147213  0.001638  3.909936  0.003
C  C260  1  0.21134532  0.98775665  0.13448099  1  0.512033  -0.004899  0.053821  0.106185  -0.005432  3.919539  -0.003
C  C261  1  0.71134587  0.51224738  0.36551698  1  0.510074  -0.004891  0.053822  0.106134  -0.005432  3.91957  -0.003
C  C262  1  0.78864241  0.01225405  0.86551650  1  0.509278  -0.004892  0.05382  0.106183  -0.005432  3.919795  -0.003
C  C263  1  0.28865069  0.48774945  0.63448710  1  0.509487  -0.004893  0.053826  0.106132  -0.005433  3.919515  -0.003
C  C264  1  0.42387771  0.03271995  0.14575326  1  0.492392  -0.005102  0.044276  0.098553  -0.005536  3.954131  -0.003
C  C265  1  0.92387740  0.46727820  0.35425261  1  0.492584  -0.005099  0.044276  0.098527  -0.005532  3.9543  -0.003
C  C266  1  0.57611199  0.96727989  0.85424833  1  0.492433  -0.005104  0.044259  0.098542  -0.005538  3.954064  -0.003
C  C267  1  0.07612015  0.53271983  0.64575189  1  0.492362  -0.0051  0.044275  0.098634  -0.005535  3.954325  -0.003
C  C268  1  0.46786474  0.98689020  0.10070190  1  -0.050986  0.004298  -0.089403  -0.174051  0.002053  3.966337  0.003
C  C269  1  0.96786211  0.51310890  0.39930210  1  -0.050965  0.004297  -0.089355  -0.173973  0.002053  3.966533  0.003
C  C270  1  0.53212790  0.01311447  0.89929805  1  -0.050961  0.004297  -0.089328  -0.173869  0.002053  3.966261  0.003
C  C271  1  0.03213446  0.48688974  0.60070157  1  -0.050961  0.004298  -0.089385  -0.174014  0.002053  3.966373  0.003
N  N272  1  0.19617567  0.39600967  0.80119034  1  -1.222476  0.052694  -0.331774  -0.264926  0.027646  3.591822  0.049
N  N273  1  0.69618552  0.10398866  0.69880657  1  -1.222904  0.0527  -0.33169  -0.264789  0.027648  3.591823  0.049
N  N274  1  0.80383169  0.60398897  0.19880539  1  -1.222586  0.052694  -0.331817  -0.264846  0.027646  3.591879  0.049
N  N275  1  0.30382381  0.89600697  0.30119165  1  -1.222458  0.052692  -0.331817  -0.264861  0.027646  3.591876  0.049
N  N276  1  0.98251035  0.23950095  0.64263635  1  -0.640904  -0.004531  -0.225337  -0.254709  -0.004742  3.136579  -0.003
N  N277  1  0.48252539  0.26049600  0.85735714  1  -0.640334  -0.004528  -0.22521  -0.254442  -0.004739  3.136379  -0.003
N  N278  1  0.01748328  0.76049649  0.35735896  1  -0.640833  -0.004527  -0.225208  -0.254379  -0.004738  3.136501  -0.003
N  N279  1  0.51749278  0.73950084  0.14263942  1  -0.641129  -0.004529  -0.225312  -0.254591  -0.004741  3.136319  -0.003
N  N280  1  0.99394854  0.19639424  0.59537368  1  -0.832152  -0.002012  -0.261776  -0.143636  -0.002257  3.674322  -0.001
N  N281  1  0.49395743  0.30360148  0.90462110  1  -0.83228  -0.00201  -0.261839  -0.143866  -0.002256  3.674282  -0.001
N  N282  1  0.00604509  0.80360381  0.40462038  1  -0.8318  -0.002011  -0.261876  -0.143885  -0.002256  3.674312  -0.001
N  N283  1  0.50605485  0.69639295  0.09537586  1  -0.83207  -0.002011  -0.261855  -0.143834  -0.002257  3.674173  -0.001
N  N284  1  0.19749943  0.22817727  0.61773868  1  -1.133306  -0.003148  -0.333173  -0.417972  -0.003317  3.138892  -0.003
N  N285  1  0.69751109  0.27182046  0.88226074  1  -1.133405  -0.003145  -0.333158  -0.417796  -0.003315  3.138929  -0.003
N  N286  1  0.80249518  0.77182078  0.38225621  1  -1.130682  -0.003147  -0.333132  -0.417821  -0.003316  3.139025  -0.003
N  N287  1  0.30250413  0.72818180  0.11773878  1  -1.133452  -0.003146  -0.333183  -0.417982  -0.003315  3.13896  -0.003
N  N288  1  0.23277365  0.06296203  0.43168711  1  -1.191529  0.052357  -0.324094  -0.246402  0.027727  3.561796  0.048
N  N289  1  0.73276424  0.43703846  0.06831172  1  -1.191512  0.052354  -0.324052  -0.24637  0.027725  3.561891  0.048
N  N290  1  0.76723961  0.93703420  0.56831195  1  -1.190945  0.052352  -0.324004  -0.246349  0.027725  3.561786  0.048
N  N291  1  0.26721957  0.56296380  0.93168821  1  -1.191453  0.052355  -0.324056  -0.246433  0.027726  3.561832  0.048
N  N292  1  0.31186158  0.69680671  0.79878931  1  -1.207768  0.055059  -0.323439  -0.268003  0.029061  3.570165  0.05
N  N293  1  0.81187385  0.80319478  0.70121691  1  -1.208483  0.055062  -0.3234  -0.267938  0.02906  3.570209  0.05
N  N294  1  0.68813008  0.30319374  0.20121228  1  -1.208235  0.05506  -0.323462  -0.268089  0.029061  3.570429  0.05
N  N295  1  0.18812860  0.19680687  0.29878762  1  -1.208279  0.055061  -0.323391  -0.268026  0.02906  3.570333  0.05
N  N296  1  0.34324955  0.86215619  0.98179685  1  -1.128781  -0.002951  -0.326817  -0.409315  -0.003106  3.145772  -0.002
N  N297  1  0.84325411  0.63784461  0.51820448  1  -1.128894  -0.002949  -0.326965  -0.409403  -0.003104  3.145815  -0.002
N  N298  1  0.65674211  0.13785029  0.01819935  1  -1.128844  -0.00295  -0.326924  -0.409456  -0.003105  3.146002  -0.002
N  N299  1  0.15674835  0.36215161  0.48179917  1  -1.128886  -0.00295  -0.326817  -0.409266  -0.003105  3.145758  -0.002
N  N300  1  0.54572253  0.86764620  0.01253370  1  -0.821629  -0.002252  -0.261933  -0.157262  -0.002357  3.7082  -0.002
N  N301  1  0.04572676  0.63235466  0.48746816  1  -0.821854  -0.002251  -0.26218  -0.157487  -0.002356  3.708033  -0.002
N  N302  1  0.45426225  0.13235485  0.98746539  1  -0.821772  -0.002252  -0.262199  -0.157622  -0.002357  3.707881  -0.002
N  N303  1  0.95427570  0.36764398  0.51253384  1  -0.821635  -0.002252  -0.262  -0.15735  -0.002356  3.708191  -0.002
N  N304  1  0.55454613  0.82449194  0.96482071  1  -0.601573  -0.004358  -0.212098  -0.226627  -0.004573  3.098096  -0.003
N  N305  1  0.05455070  0.67551086  0.53518154  1  -0.601733  -0.004358  -0.21195  -0.226411  -0.004574  3.097762  -0.003
N  N306  1  0.44544553  0.17550972  0.03518089  1  -0.601803  -0.004359  -0.211982  -0.226441  -0.004575  3.097759  -0.003
N  N307  1  0.94545077  0.32449200  0.46481966  1  -0.601682  -0.004357  -0.212026  -0.226519  -0.004572  3.097942  -0.003
N  N308  1  0.29813236  0.03366623  0.16307515  1  -1.164136  0.049784  -0.306904  -0.238269  0.025453  3.487483  0.047
N  N309  1  0.79813953  0.46633348  0.33692645  1  -1.162439  0.049777  -0.306867  -0.23817  0.025453  3.487388  0.047
N  N310  1  0.70186028  0.96633723  0.83692521  1  -1.162373  0.049774  -0.306923  -0.238357  0.025452  3.487402  0.047
N  N311  1  0.20185998  0.53366395  0.66307805  1  -1.162213  0.049773  -0.306884  -0.238288  0.025452  3.487417  0.047
O  O312  1  0.09212909  0.55242003  0.83505529  1  -1.174917  0.085742  -0.313844  -0.574927  0.045234  2.514254  0.069
O  O313  1  0.59213943  0.94757904  0.66494666  1  -1.175033  0.085725  -0.313841  -0.574975  0.045228  2.514161  0.069
O  O314  1  0.90786944  0.44757741  0.16494169  1  -1.175024  0.085731  -0.313799  -0.574847  0.045231  2.514148  0.069
O  O315  1  0.40787284  0.05241477  0.33505530  1  -1.175023  0.085726  -0.313785  -0.574803  0.045229  2.514155  0.069
O  O316  1  0.07339022  0.61433236  0.75218133  1  -1.152952  0.093874  -0.305373  -0.543345  0.049095  2.439818  0.074
O  O317  1  0.57339995  0.88566797  0.74782098  1  -1.153014  0.093869  -0.305443  -0.543452  0.049097  2.439729  0.074
O  O318  1  0.92660340  0.38567532  0.24781990  1  -1.152851  0.093874  -0.305377  -0.543346  0.049096  2.439781  0.074
O  O319  1  0.42659956  0.11432765  0.25218142  1  -1.152755  0.093869  -0.305444  -0.54341  0.049097  2.439726  0.074
O  O320  1  0.41529861  0.49549475  0.83944861  1  -1.158408  0.089922  -0.302029  -0.538499  0.047471  2.444316  0.074
O  O321  1  0.91530053  0.00449877  0.66055126  1  -1.158219  0.089931  -0.301985  -0.538434  0.047478  2.444244  0.074
O  O322  1  0.58470090  0.50450510  0.16054964  1  -1.158457  0.089928  -0.302115  -0.538653  0.047475  2.444304  0.074
O  O323  1  0.08469899  0.99549264  0.33944860  1  -1.158396  0.089935  -0.302049  -0.538545  0.047478  2.444168  0.074
O  O324  1  0.39823631  0.54321035  0.75172040  1  -1.15542  0.107084  -0.309136  -0.56008  0.05531  2.537063  0.087
O  O325  1  0.89823960  0.95678789  0.74828155  1  -1.155318  0.107097  -0.309132  -0.560073  0.055315  2.53698  0.087
O  O326  1  0.60176615  0.45679130  0.24827786  1  -1.155749  0.107086  -0.309089  -0.560043  0.055312  2.537066  0.087
O  O327  1  0.10176089  0.04320834  0.25172085  1  -1.155705  0.107089  -0.309063  -0.560071  0.05531  2.537056  0.087
O  O328  1  0.31287322  0.69462105  0.67535417  1  -1.145835  0.125246  -0.331753  -0.567131  0.064395  2.373036  0.102
O  O329  1  0.81288431  0.80537802  0.82464828  1  -1.145692  0.125258  -0.331731  -0.567088  0.064403  2.373061  0.102
O  O330  1  0.68713219  0.30538000  0.32464868  1  -1.145858  0.125228  -0.331767  -0.567108  0.064387  2.373172  0.102
O  O331  1  0.18710735  0.19461881  0.17535246  1  -1.145656  0.125224  -0.331746  -0.567018  0.064384  2.373187  0.102
O  O332  1  0.48655389  0.62831091  0.63721334  1  -1.158325  0.00679  -0.318013  -0.544272  0.002935  2.134204  0.006
O  O333  1  0.98655060  0.87169311  0.86279236  1  -1.158405  0.006793  -0.318004  -0.544258  0.002937  2.134377  0.006
O  O334  1  0.51344857  0.37169256  0.36278451  1  -1.15819  0.00679  -0.318008  -0.544252  0.002936  2.133922  0.006
O  O335  1  0.01343419  0.12830372  0.13720587  1  -1.157874  0.006795  -0.317885  -0.54418  0.002938  2.133668  0.006
O  O336  1  0.21067363  0.89634062  0.42811215  1  -1.157236  0.067762  -0.305957  -0.549347  0.035254  2.339911  0.058
O  O337  1  0.71068751  0.60365979  0.07188788  1  -1.156855  0.067767  -0.305906  -0.549294  0.035256  2.339943  0.058
O  O338  1  0.78931705  0.10365742  0.57188735  1  -1.157038  0.067763  -0.305944  -0.549315  0.035254  2.339892  0.058
O  O339  1  0.28932967  0.39634187  0.92811163  1  -1.157274  0.067765  -0.305942  -0.54939  0.035255  2.339542  0.058
O  O340  1  0.42379189  0.91205178  0.41482333  1  -1.149536  0.066956  -0.294252  -0.524134  0.034503  2.197812  0.058
O  O341  1  0.92381404  0.58794202  0.08517878  1  -1.149663  0.066958  -0.294149  -0.524091  0.034503  2.197619  0.058
O  O342  1  0.57619683  0.08794324  0.58517948  1  -1.149777  0.066948  -0.294213  -0.524136  0.034498  2.197716  0.058
O  O343  1  0.07620608  0.41205783  0.91482030  1  -1.149578  0.066964  -0.294215  -0.524202  0.034507  2.197716  0.058
