# generated using pymatgen
data_Mn2H23C15NO9
_symmetry_space_group_name_H-M   'P 1'
_cell_length_a   13.61259809
_cell_length_b   14.09642908
_cell_length_c   22.85171077
_cell_angle_alpha   91.44337833
_cell_angle_beta   89.99971800
_cell_angle_gamma   90.00051698
_symmetry_Int_Tables_number   1
_chemical_formula_structural   Mn2H23C15NO9
_chemical_formula_sum   'Mn16 H184 C120 N8 O72'
_cell_volume   4383.60113395
_cell_formula_units_Z   8
loop_
 _symmetry_equiv_pos_site_id
 _symmetry_equiv_pos_as_xyz
  1  'x, y, z'
loop_
 _atom_site_type_symbol
 _atom_site_label
 _atom_site_symmetry_multiplicity
 _atom_site_fract_x
 _atom_site_fract_y
 _atom_site_fract_z
 _atom_site_occupancy
 _atom_site_pbe_bader_charge
 _atom_site_pbe_bader_spin_density
 _atom_site_pbe_cm5_charge
 _atom_site_pbe_ddec_charge
 _atom_site_pbe_ddec_spin_density
 _atom_site_pbe_ddec_sum_bond_order
 _atom_site_pbe_magmom
Mn  Mn0  1  0.77842532  0.47194875  0.33811730  1  1.537118  4.571212  0.602225  1.046291  4.689639  2.287199  4.504
Mn  Mn1  1  0.27843051  0.02805377  0.16188104  1  1.537225  4.571186  0.602273  1.046393  4.689624  2.287106  4.504
Mn  Mn2  1  0.22156802  0.52805223  0.66187789  1  1.537088  4.571198  0.60226  1.046359  4.689663  2.287254  4.504
Mn  Mn3  1  0.72157457  0.97195001  0.83812251  1  1.537105  4.571181  0.602275  1.046424  4.68971  2.287129  4.504
Mn  Mn4  1  0.51141662  0.15070924  0.36740151  1  1.539335  4.570541  0.605833  1.043213  4.680393  2.282764  4.502
Mn  Mn5  1  0.01140963  0.34927749  0.13259997  1  1.539361  4.570536  0.605833  1.043216  4.680385  2.282762  4.502
Mn  Mn6  1  0.48858920  0.84928177  0.63260051  1  1.539378  4.570522  0.605794  1.043207  4.680383  2.282856  4.502
Mn  Mn7  1  0.98858370  0.65071353  0.86740030  1  1.539368  4.570516  0.605853  1.043257  4.680385  2.282687  4.502
Mn  Mn8  1  0.00052316  0.52694922  0.74502104  1  1.496715  4.587267  0.593224  0.98939  4.700487  2.247862  4.502
Mn  Mn9  1  0.50052968  0.97305325  0.75498089  1  1.496611  4.587271  0.593258  0.989539  4.700404  2.247732  4.502
Mn  Mn10  1  0.99946576  0.47304608  0.25497537  1  1.496819  4.587205  0.593213  0.989416  4.700354  2.247893  4.502
Mn  Mn11  1  0.49947467  0.02694767  0.24502743  1  1.496729  4.587262  0.593229  0.989459  4.700358  2.247899  4.502
Mn  Mn12  1  0.74624290  0.26266991  0.39137837  1  1.504168  4.572004  0.593406  0.995912  4.684619  2.309737  4.495
Mn  Mn13  1  0.24624241  0.23733588  0.10861969  1  1.504134  4.572018  0.593405  0.99604  4.68459  2.309554  4.495
Mn  Mn14  1  0.25376072  0.73733318  0.60862124  1  1.504066  4.572027  0.593398  0.995914  4.684602  2.309752  4.495
Mn  Mn15  1  0.75375459  0.76266293  0.89138290  1  1.504002  4.572035  0.593381  0.995963  4.684607  2.30971  4.495
H  H16  1  0.72681976  0.55713964  0.53490464  1  0.030516  0.000861  0.093544  0.10361  0.000391  1.006967  0.0
H  H17  1  0.22682266  0.94286478  0.96509272  1  0.030671  0.000862  0.0935  0.103582  0.000392  1.007043  0.0
H  H18  1  0.27317651  0.44286061  0.46509491  1  0.030592  0.000862  0.093512  0.103553  0.000392  1.007033  0.0
H  H19  1  0.77318463  0.05713901  0.03490690  1  0.030506  0.000862  0.093549  0.103586  0.000391  1.006984  0.0
H  H20  1  0.70933089  0.44140165  0.56322557  1  0.037103  0.001208  0.093263  0.104407  0.000575  0.996744  0.001
H  H21  1  0.20934144  0.05860596  0.93677433  1  0.037086  0.001207  0.093234  0.104362  0.000575  0.996754  0.001
H  H22  1  0.29066464  0.55859860  0.43677267  1  0.037113  0.001208  0.093236  0.104347  0.000575  0.996693  0.001
H  H23  1  0.79066364  0.94140068  0.06322534  1  0.037111  0.001207  0.093249  0.104383  0.000575  0.996763  0.001
H  H24  1  0.90709164  0.52748062  0.52705581  1  0.021078  0.00021  0.087196  0.079904  2.6e-05  0.994169  0.0
H  H25  1  0.40709401  0.97252255  0.97293444  1  0.017881  0.000211  0.087141  0.079821  2.6e-05  0.994163  0.0
H  H26  1  0.09290684  0.47252178  0.47294028  1  0.021086  0.00021  0.087182  0.079883  2.6e-05  0.994116  0.0
H  H27  1  0.59291108  0.02748198  0.02706125  1  0.01784  0.000211  0.087181  0.0799  2.6e-05  0.994072  0.0
H  H28  1  0.86396286  0.51733373  0.59953138  1  0.064919  0.000578  0.09238  0.091761  -0.000104  1.012144  0.0
H  H29  1  0.36396739  0.98267330  0.90046475  1  0.065029  0.000578  0.092365  0.09175  -0.000104  1.012195  0.0
H  H30  1  0.13603488  0.48266654  0.40046512  1  0.064915  0.000578  0.092375  0.091791  -0.000104  1.01216  0.0
H  H31  1  0.63603696  0.01733759  0.09953542  1  0.064786  0.000578  0.092354  0.091722  -0.000104  1.012232  0.0
H  H32  1  0.85463543  0.33796909  0.58274414  1  0.028319  0.000407  0.089744  0.081274  9.5e-05  0.995825  0.0
H  H33  1  0.35463977  0.16203553  0.91725133  1  0.028217  0.000408  0.089684  0.081196  9.5e-05  0.995872  0.0
H  H34  1  0.14536084  0.66203044  0.41725715  1  0.028356  0.000407  0.089768  0.081286  9.5e-05  0.995893  0.0
H  H35  1  0.64536091  0.83797183  0.08274528  1  0.028332  0.000407  0.089735  0.08128  9.5e-05  0.995863  0.0
H  H36  1  0.91037606  0.35129923  0.51408933  1  0.036322  0.000395  0.090774  0.084051  7e-06  0.994662  0.0
H  H37  1  0.41037823  0.14870090  0.98590503  1  0.036163  0.000395  0.09076  0.08399  6e-06  0.99469  0.0
H  H38  1  0.08962242  0.64869890  0.48590800  1  0.03638  0.000395  0.090745  0.084037  7e-06  0.994638  0.0
H  H39  1  0.58962098  0.85130503  0.01409375  1  0.036021  0.000395  0.090754  0.08403  6e-06  0.994688  0.0
H  H40  1  0.06078893  0.42391806  0.56345119  1  0.075821  0.000961  0.101091  0.116781  6.5e-05  1.01142  0.001
H  H41  1  0.56079832  0.07607976  0.93654810  1  0.075708  0.000961  0.101143  0.116797  6.5e-05  1.011267  0.001
H  H42  1  0.93920881  0.57608219  0.43654881  1  0.075653  0.000961  0.101096  0.116768  6.5e-05  1.011379  0.001
H  H43  1  0.43920824  0.92392687  0.06345331  1  0.075704  0.000961  0.101087  0.116741  6.5e-05  1.011297  0.001
H  H44  1  0.03592750  0.30874949  0.58690954  1  0.04189  0.001041  0.105976  0.12277  0.000493  0.954697  0.001
H  H45  1  0.53593522  0.19125946  0.91309133  1  0.041663  0.001041  0.105916  0.122629  0.000494  0.954754  0.001
H  H46  1  0.96407098  0.69125006  0.41308738  1  0.041832  0.00104  0.105975  0.122753  0.000493  0.954764  0.001
H  H47  1  0.46406840  0.80875354  0.08691326  1  0.041904  0.001041  0.10597  0.122744  0.000493  0.954716  0.001
H  H48  1  0.58621464  0.03121144  0.49262362  1  0.076518  0.001121  0.102119  0.12087  8e-05  1.00285  0.001
H  H49  1  0.08620613  0.46877524  0.00737458  1  0.076401  0.001121  0.102145  0.120963  8e-05  1.00291  0.001
H  H50  1  0.41378678  0.96878809  0.50737811  1  0.076466  0.001121  0.102182  0.121039  8e-05  1.002877  0.001
H  H51  1  0.91378573  0.53121438  0.99262173  1  0.076574  0.001121  0.102153  0.120993  8e-05  1.002896  0.001
H  H52  1  0.69067678  0.96880121  0.46734141  1  0.04613  0.001794  0.102442  0.117297  0.000902  0.971923  0.001
H  H53  1  0.19066103  0.53119507  0.03266209  1  0.045928  0.001795  0.102474  0.117375  0.000902  0.971881  0.001
H  H54  1  0.30932611  0.03119832  0.53266032  1  0.046073  0.001795  0.102456  0.117352  0.000902  0.971907  0.001
H  H55  1  0.80933083  0.46879950  0.96733868  1  0.046047  0.001795  0.102485  0.117361  0.000903  0.971929  0.001
H  H56  1  0.69071604  0.97780460  0.57501639  1  0.021036  0.000288  0.089973  0.08474  -0.000165  1.0244  0.0
H  H57  1  0.19071827  0.52219523  0.92498712  1  0.021347  0.000288  0.089984  0.084795  -0.000165  1.024382  0.0
H  H58  1  0.30928978  0.02219494  0.42498402  1  0.02125  0.000288  0.090016  0.084794  -0.000165  1.024323  0.0
H  H59  1  0.80928241  0.47780359  0.07501416  1  0.021295  0.000288  0.089981  0.084775  -0.000165  1.024386  0.0
H  H60  1  0.79420927  0.03664501  0.54595639  1  0.037726  0.000447  0.090276  0.085173  0.000176  0.982589  0.0
H  H61  1  0.29420363  0.46335478  0.95405187  1  0.038116  0.000447  0.090265  0.085194  0.000176  0.982566  0.0
H  H62  1  0.20579362  0.96335665  0.45404625  1  0.037784  0.000447  0.090264  0.08517  0.000176  0.982615  0.0
H  H63  1  0.70579485  0.53663835  0.04595237  1  0.038142  0.000447  0.090271  0.085178  0.000176  0.982588  0.0
H  H64  1  0.73031562  0.13143190  0.62752669  1  0.021964  0.000164  0.087701  0.077526  -2.1e-05  0.993282  0.0
H  H65  1  0.23032446  0.36857306  0.87247266  1  0.021928  0.000164  0.087681  0.07748  -2.1e-05  0.993382  0.0
H  H66  1  0.26968579  0.86856835  0.37247330  1  0.022013  0.000164  0.08772  0.077557  -2.1e-05  0.99327  0.0
H  H67  1  0.76968063  0.63142863  0.12752386  1  0.021955  0.000164  0.08771  0.077515  -2.1e-05  0.993309  0.0
H  H68  1  0.71446616  0.19350695  0.56205134  1  0.051996  0.000586  0.092528  0.090489  5.3e-05  0.989221  0.0
H  H69  1  0.21446800  0.30649645  0.93794715  1  0.051396  0.000586  0.092542  0.090538  5.3e-05  0.989209  0.0
H  H70  1  0.28552865  0.80649400  0.43795129  1  0.051821  0.000586  0.092518  0.090467  5.3e-05  0.989306  0.0
H  H71  1  0.78553268  0.69350310  0.06204933  1  0.05183  0.000586  0.092538  0.090463  5.3e-05  0.989333  0.0
H  H72  1  0.53632729  0.14603530  0.55928388  1  0.048102  0.001213  0.098559  0.116688  0.000448  0.993946  0.001
H  H73  1  0.03633322  0.35396019  0.94071150  1  0.048265  0.001213  0.098552  0.116599  0.000448  0.994165  0.001
H  H74  1  0.46366678  0.85395285  0.44072247  1  0.048366  0.001213  0.098512  0.116663  0.000448  0.993952  0.001
H  H75  1  0.96366893  0.64603511  0.05928228  1  0.04837  0.001213  0.098544  0.116644  0.000448  0.993953  0.001
H  H76  1  0.56861875  0.21377625  0.62332383  1  0.014603  0.000985  0.089023  0.092769  0.000456  1.017816  0.0
H  H77  1  0.06862532  0.28622449  0.87667286  1  0.014918  0.000984  0.08902  0.092789  0.000456  1.017828  0.0
H  H78  1  0.43137899  0.78621760  0.37668130  1  0.014948  0.000984  0.089058  0.092869  0.000456  1.017845  0.0
H  H79  1  0.93137830  0.71377576  0.12332582  1  0.014555  0.000984  0.089015  0.092763  0.000456  1.017757  0.0
H  H80  1  0.54862229  0.47582972  0.27675544  1  0.060004  0.001307  0.108007  0.127451  0.000563  0.971448  0.001
H  H81  1  0.04861959  0.02415453  0.22323846  1  0.060186  0.001307  0.107975  0.127505  0.000563  0.971408  0.001
H  H82  1  0.45137031  0.52415991  0.72323956  1  0.060062  0.001308  0.108014  0.127503  0.000563  0.971371  0.001
H  H83  1  0.95137521  0.97583437  0.77676178  1  0.060176  0.001307  0.107992  0.127502  0.000563  0.971483  0.001
H  H84  1  0.55479294  0.51717899  0.34885223  1  0.061434  0.001673  0.09979  0.108721  0.001083  1.039461  0.001
H  H85  1  0.05478485  0.98281760  0.15113593  1  0.060918  0.001673  0.099798  0.108684  0.001083  1.039511  0.001
H  H86  1  0.44520995  0.48281845  0.65114159  1  0.061229  0.001673  0.099801  0.108701  0.001083  1.039459  0.001
H  H87  1  0.94521069  0.01717557  0.84885957  1  0.061082  0.001673  0.09982  0.10876  0.001083  1.03946  0.001
H  H88  1  0.38194158  0.43528852  0.36341181  1  0.032029  0.000337  0.087532  0.079874  -5.9e-05  0.994971  0.0
H  H89  1  0.88193498  0.06471491  0.13658099  1  0.031757  0.000337  0.087471  0.079778  -5.9e-05  0.994942  0.0
H  H90  1  0.61806057  0.56471243  0.63658863  1  0.032029  0.000337  0.087566  0.079899  -5.9e-05  0.994979  0.0
H  H91  1  0.11806276  0.93528749  0.86341423  1  0.031922  0.000337  0.087537  0.079852  -5.9e-05  0.994969  0.0
H  H92  1  0.38669593  0.54261814  0.32537265  1  -0.033129  0.000543  0.081865  0.06804  0.000283  0.998272  0.0
H  H93  1  0.88668828  0.95737915  0.17461891  1  -0.033204  0.000543  0.081826  0.067979  0.000283  0.998338  0.0
H  H94  1  0.61330475  0.45737927  0.67462729  1  -0.033143  0.000543  0.081851  0.068005  0.000283  0.998212  0.0
H  H95  1  0.11330138  0.04262253  0.82537716  1  -0.033208  0.000543  0.081841  0.067981  0.000283  0.99825  0.0
H  H96  1  0.38307506  0.34371151  0.26758186  1  0.084124  0.000363  0.095807  0.099893  -0.000536  0.991088  0.0
H  H97  1  0.88307807  0.15628624  0.23241435  1  0.084191  0.000363  0.095842  0.099966  -0.000536  0.991024  0.0
H  H98  1  0.61691827  0.65629087  0.73241905  1  0.084044  0.000363  0.095849  0.099996  -0.000536  0.991035  0.0
H  H99  1  0.11692555  0.84371545  0.76758086  1  0.084167  0.000363  0.095804  0.09991  -0.000536  0.990989  0.0
H  H100  1  0.38933609  0.45047276  0.22970104  1  -0.009539  0.000208  0.085648  0.073892  -8.5e-05  0.985088  0.0
H  H101  1  0.88934000  0.04951937  0.27029374  1  -0.009443  0.000208  0.085676  0.073966  -8.5e-05  0.985043  0.0
H  H102  1  0.61066018  0.54952677  0.77029938  1  -0.009581  0.000208  0.085649  0.073889  -8.5e-05  0.985087  0.0
H  H103  1  0.11066289  0.95048231  0.72970322  1  -0.00954  0.000208  0.085666  0.073966  -8.5e-05  0.984966  0.0
H  H104  1  0.21719935  0.38948220  0.30806821  1  0.058327  0.001301  0.107882  0.128536  0.000651  0.984416  0.001
H  H105  1  0.71719566  0.11051552  0.19193286  1  0.058324  0.001302  0.107908  0.128581  0.000651  0.984405  0.001
H  H106  1  0.78279472  0.61051378  0.69193434  1  0.058245  0.001302  0.107903  0.128614  0.000651  0.984404  0.001
H  H107  1  0.28280135  0.88949253  0.80806814  1  0.058335  0.001301  0.107894  0.128598  0.000651  0.984431  0.001
H  H108  1  0.22351694  0.49936050  0.27493213  1  0.026605  0.002068  0.100018  0.111835  0.001432  1.016119  0.001
H  H109  1  0.72351562  0.00064152  0.22507118  1  0.026571  0.002069  0.100017  0.111812  0.001433  1.01621  0.001
H  H110  1  0.77647786  0.50064115  0.72507095  1  0.026583  0.00207  0.100049  0.111864  0.001433  1.016177  0.001
H  H111  1  0.27648432  0.99936725  0.77492765  1  0.026399  0.002069  0.099981  0.111779  0.001433  1.016181  0.001
H  H112  1  0.78957426  0.25321640  0.16127818  1  0.043265  0.002174  0.10574  0.123171  0.001057  0.98643  0.001
H  H113  1  0.28957857  0.24678194  0.33872488  1  0.043397  0.002174  0.105804  0.1233  0.001057  0.986202  0.001
H  H114  1  0.21042128  0.74678314  0.83872224  1  0.043262  0.002174  0.105783  0.123208  0.001057  0.986365  0.001
H  H115  1  0.71042505  0.75322682  0.66127526  1  0.043554  0.002174  0.105773  0.12326  0.001057  0.986287  0.001
H  H116  1  0.77799886  0.35483390  0.12055709  1  0.077922  0.001634  0.103442  0.113987  0.00096  1.024619  0.001
H  H117  1  0.27799747  0.14516859  0.37944781  1  0.077798  0.001634  0.103385  0.113903  0.000959  1.024647  0.001
H  H118  1  0.22200108  0.64516778  0.87944117  1  0.077908  0.001634  0.103459  0.113968  0.000959  1.024554  0.001
H  H119  1  0.72200468  0.85484866  0.62055860  1  0.077857  0.001635  0.103391  0.113938  0.000959  1.024582  0.001
H  H120  1  0.62490688  0.27939943  0.20638448  1  0.059504  0.000228  0.093537  0.09623  -0.000504  0.982172  0.0
H  H121  1  0.12491425  0.22060247  0.29361605  1  0.059523  0.000228  0.093494  0.096148  -0.000504  0.982281  0.0
H  H122  1  0.37508719  0.72060366  0.79361425  1  0.059443  0.000228  0.093505  0.096189  -0.000504  0.982169  0.0
H  H123  1  0.87509230  0.77940273  0.70638796  1  0.059531  0.000228  0.093499  0.096221  -0.000504  0.982161  0.0
H  H124  1  0.61761649  0.39374070  0.17699651  1  0.022399  0.000264  0.087285  0.079462  -0.00013  0.988033  0.0
H  H125  1  0.11761594  0.10626399  0.32300234  1  0.022432  0.000264  0.087289  0.079456  -0.00013  0.988028  0.0
H  H126  1  0.38238198  0.60626100  0.82299738  1  0.022408  0.000264  0.087287  0.079459  -0.00013  0.987985  0.0
H  H127  1  0.88238694  0.89374477  0.67699911  1  0.022256  0.000264  0.087323  0.079528  -0.00013  0.987988  0.0
H  H128  1  0.61751816  0.32751664  0.07620954  1  -0.003926  0.000432  0.0874  0.076475  0.000144  0.980358  0.0
H  H129  1  0.11751079  0.17248307  0.42379098  1  -0.003884  0.000432  0.087383  0.076482  0.000144  0.980368  0.0
H  H130  1  0.38248031  0.67247369  0.92378722  1  -0.003875  0.000432  0.087343  0.076473  0.000144  0.980226  0.0
H  H131  1  0.88248549  0.82752143  0.57621084  1  -0.00394  0.000432  0.087419  0.076615  0.000144  0.980236  0.0
H  H132  1  0.63700535  0.21151255  0.10119307  1  0.004037  0.000433  0.087387  0.077071  4.4e-05  0.997004  0.0
H  H133  1  0.13699706  0.28848733  0.39880739  1  0.004112  0.000433  0.087385  0.077101  4.4e-05  0.997085  0.0
H  H134  1  0.36299386  0.78847989  0.89880766  1  0.004182  0.000433  0.087397  0.077041  4.4e-05  0.997114  0.0
H  H135  1  0.86300142  0.71152071  0.60119623  1  0.003875  0.000434  0.087404  0.07704  4.4e-05  0.997253  0.0
H  H136  1  0.45274481  0.32587424  0.13548604  1  0.08332  0.0023  0.111484  0.132927  0.001448  0.968219  0.001
H  H137  1  0.95274249  0.17412552  0.36451175  1  0.083245  0.002298  0.111456  0.132914  0.001448  0.96827  0.001
H  H138  1  0.54725587  0.67412957  0.86451226  1  0.083303  0.002299  0.111459  0.132882  0.001448  0.968317  0.001
H  H139  1  0.04726113  0.82587829  0.63548568  1  0.083173  0.002299  0.111429  0.132902  0.001448  0.96832  0.001
H  H140  1  0.45864224  0.25785401  0.07069690  1  0.050273  0.002268  0.10534  0.119146  0.001575  0.987534  0.0
H  H141  1  0.95863487  0.24213942  0.42929901  1  0.050217  0.002268  0.105318  0.119131  0.001576  0.987617  0.0
H  H142  1  0.54135477  0.74213772  0.92930295  1  0.050173  0.002268  0.105368  0.119194  0.001575  0.987518  0.0
H  H143  1  0.04135920  0.75786439  0.57069885  1  0.050194  0.002267  0.105361  0.119187  0.001575  0.98761  0.0
H  H144  1  0.81071560  0.62515576  0.25223451  1  0.154964  0.001111  0.129771  0.060446  -3.6e-05  1.035076  0.0
H  H145  1  0.31071231  0.87484509  0.24776872  1  0.154936  0.001111  0.12974  0.060371  -3.7e-05  1.035117  0.0
H  H146  1  0.18929096  0.37485088  0.74776471  1  0.155106  0.001111  0.129763  0.060403  -3.6e-05  1.035093  0.0
H  H147  1  0.68930013  0.12514733  0.75223552  1  0.15517  0.00111  0.129785  0.060495  -3.6e-05  1.035021  0.0
H  H148  1  0.59132714  0.72831078  0.31456626  1  0.077693  0.000593  0.106297  0.117341  5.7e-05  1.02669  0.0
H  H149  1  0.09132193  0.77169883  0.18543907  1  0.077739  0.000593  0.10627  0.117297  5.7e-05  1.026701  0.0
H  H150  1  0.40868015  0.27170224  0.68543307  1  0.077664  0.000593  0.106353  0.117443  5.7e-05  1.02669  0.0
H  H151  1  0.90868683  0.22830214  0.81456006  1  0.0777  0.000593  0.106287  0.117314  5.7e-05  1.026736  0.0
H  H152  1  0.57914713  0.80694194  0.25418877  1  0.115632  0.00043  0.109605  0.134943  -0.000121  1.015255  0.0
H  H153  1  0.07914142  0.69306260  0.24581477  1  0.115533  0.00043  0.109622  0.134915  -0.000122  1.01523  0.0
H  H154  1  0.42086016  0.19306684  0.74580875  1  0.1157  0.00043  0.109558  0.134873  -0.000121  1.015455  0.0
H  H155  1  0.92086367  0.30693553  0.75418169  1  0.115442  0.00043  0.109608  0.134823  -0.000121  1.015266  0.0
H  H156  1  0.65005782  0.84214614  0.31607938  1  0.064195  0.000545  0.106064  0.118539  0.000235  0.979555  0.0
H  H157  1  0.15004788  0.65786043  0.18392398  1  0.064267  0.000544  0.106013  0.118494  0.000235  0.979551  0.0
H  H158  1  0.34995241  0.15786690  0.68391820  1  0.064316  0.000545  0.106044  0.118564  0.000235  0.979604  0.0
H  H159  1  0.84995720  0.34213698  0.81607465  1  0.064377  0.000545  0.106034  0.118536  0.000235  0.979636  0.0
H  H160  1  0.82946740  0.74806798  0.20117854  1  0.096348  0.000321  0.110075  0.121234  5.6e-05  1.026614  0.0
H  H161  1  0.32946768  0.75193304  0.29882158  1  0.096166  0.000321  0.110107  0.121317  5.6e-05  1.026506  0.0
H  H162  1  0.17053842  0.25194007  0.79882115  1  0.096374  0.000321  0.110077  0.121226  5.6e-05  1.0266  0.0
H  H163  1  0.67053374  0.24805655  0.70118174  1  0.096298  0.000321  0.110092  0.121293  5.6e-05  1.026565  0.0
H  H164  1  0.80011919  0.85557407  0.24046949  1  0.040628  0.000517  0.104271  0.117676  0.000237  0.990729  0.0
H  H165  1  0.30011805  0.64442743  0.25952809  1  0.040633  0.000516  0.104274  0.117685  0.000237  0.990671  0.0
H  H166  1  0.19988810  0.14443329  0.75952800  1  0.040793  0.000517  0.104315  0.117704  0.000237  0.990673  0.0
H  H167  1  0.69988336  0.35556288  0.74047392  1  0.040772  0.000517  0.104318  0.117742  0.000237  0.990648  0.0
H  H168  1  0.72047095  0.81422334  0.18355200  1  0.094915  0.000616  0.107828  0.12967  0.000141  1.007131  0.0
H  H169  1  0.22047120  0.68577462  0.31644970  1  0.094852  0.000616  0.10783  0.129697  0.000141  1.007093  0.0
H  H170  1  0.27953707  0.18578330  0.81644723  1  0.094975  0.000616  0.107794  0.129663  0.000141  1.007102  0.0
H  H171  1  0.77952728  0.31421924  0.68355019  1  0.094936  0.000616  0.107828  0.129657  0.000141  1.007162  0.0
H  H172  1  0.51898633  0.29214409  0.46645736  1  0.105707  0.00131  0.12899  0.055921  0.000188  1.011583  0.0
H  H173  1  0.01897297  0.20784699  0.03353849  1  0.105925  0.001309  0.128974  0.055883  0.000189  1.011563  0.0
H  H174  1  0.48101949  0.70784125  0.53354413  1  0.105707  0.001309  0.129004  0.05592  0.000189  1.011468  0.0
H  H175  1  0.98102404  0.79214192  0.96645956  1  0.105936  0.00131  0.129014  0.055912  0.000188  1.011549  0.0
H  H176  1  0.27067764  0.22259551  0.50168304  1  0.099014  0.00046  0.112607  0.128203  7.8e-05  1.005555  0.0
H  H177  1  0.77066709  0.27739986  0.99831559  1  0.098947  0.000459  0.112595  0.128243  7.8e-05  1.005573  0.0
H  H178  1  0.72932010  0.77740474  0.49831783  1  0.095186  0.000461  0.112609  0.12821  7.8e-05  1.005558  0.0
H  H179  1  0.22933212  0.72259684  0.00168303  1  0.098875  0.000459  0.112597  0.128192  7.8e-05  1.005559  0.0
H  H180  1  0.25317505  0.32972608  0.54562062  1  0.104983  0.000291  0.109976  0.13131  -0.000247  1.01183  0.0
H  H181  1  0.75316607  0.17027055  0.95437983  1  0.104791  0.000291  0.110057  0.131332  -0.000246  1.01184  0.0
H  H182  1  0.74683003  0.67027559  0.45437896  1  0.104951  0.000291  0.110006  0.131282  -0.000246  1.011911  0.0
H  H183  1  0.24683387  0.82972687  0.04561793  1  0.104876  0.000291  0.110012  0.131283  -0.000246  1.011832  0.0
H  H184  1  0.30579775  0.22706839  0.57729523  1  0.050454  0.000323  0.104375  0.115452  0.000136  0.987337  0.0
H  H185  1  0.80578265  0.27293012  0.92270292  1  0.050116  0.000323  0.104375  0.115456  0.000136  0.987327  0.0
H  H186  1  0.69420439  0.77293327  0.42270610  1  0.050427  0.000323  0.104385  0.115476  0.000136  0.987319  0.0
H  H187  1  0.19421435  0.72706659  0.07729483  1  0.050294  0.000323  0.104371  0.115418  0.000136  0.987396  0.0
H  H188  1  0.51624345  0.39133089  0.53711262  1  0.083194  0.000232  0.111232  0.125611  4.6e-05  0.991568  0.0
H  H189  1  0.01623369  0.10867013  0.96287811  1  0.083294  0.000232  0.111253  0.125787  4.6e-05  0.99152  0.0
H  H190  1  0.48375796  0.60867009  0.46288214  1  0.083335  0.000232  0.111238  0.125655  4.6e-05  0.991513  0.0
H  H191  1  0.98376405  0.89132589  0.03711394  1  0.083394  0.000232  0.111296  0.125733  4.6e-05  0.991504  0.0
H  H192  1  0.45736590  0.34598871  0.60049691  1  0.048287  0.000431  0.10189  0.109466  0.00014  1.019882  0.0
H  H193  1  0.95735429  0.15402035  0.89949484  1  0.048126  0.000431  0.101858  0.10951  0.000139  1.019958  0.0
H  H194  1  0.54263698  0.65401439  0.39950007  1  0.048194  0.000431  0.101896  0.109482  0.00014  1.019906  0.0
H  H195  1  0.04264272  0.84598135  0.10049774  1  0.048223  0.000431  0.101863  0.109446  0.00014  1.019901  0.0
H  H196  1  0.39792817  0.43562573  0.56021041  1  0.093727  0.000392  0.108163  0.127596  -0.000127  1.016285  0.0
H  H197  1  0.89791611  0.06437289  0.93978090  1  0.093549  0.000393  0.10814  0.127591  -0.000127  1.016256  0.0
H  H198  1  0.60207031  0.56437170  0.43978428  1  0.093751  0.000392  0.108155  0.127576  -0.000127  1.016221  0.0
H  H199  1  0.10208236  0.93562526  0.06021162  1  0.092554  0.000392  0.108141  0.127564  -0.000127  1.016249  0.0
C  C200  1  0.74829592  0.44247520  0.47217859  1  1.559503  0.01633  0.219166  0.643304  0.01541  4.136496  0.014
C  C201  1  0.24830397  0.05752776  0.02782203  1  1.559556  0.016329  0.219284  0.643438  0.015409  4.136428  0.014
C  C202  1  0.25169668  0.55752363  0.52782094  1  1.558945  0.016337  0.219267  0.643382  0.015413  4.136398  0.014
C  C203  1  0.75169818  0.94247532  0.97217801  1  1.559448  0.016333  0.219261  0.643345  0.015413  4.136622  0.014
C  C204  1  0.75479939  0.48397338  0.53402264  1  -0.026138  0.004276  -0.16834  -0.304134  0.003136  3.941117  0.003
C  C205  1  0.25480857  0.01603108  0.96597488  1  -0.026387  0.004278  -0.168257  -0.30412  0.003137  3.941155  0.003
C  C206  1  0.24519394  0.51602830  0.46597606  1  -0.026354  0.004277  -0.168248  -0.30398  0.003136  3.941142  0.003
C  C207  1  0.74519873  0.98397414  0.03402389  1  -0.026101  0.004277  -0.168354  -0.304057  0.003136  3.941136  0.003
C  C208  1  0.86179871  0.48341294  0.55571859  1  -0.045493  0.001512  -0.164062  -0.125894  0.000979  3.913631  0.001
C  C209  1  0.36180366  0.01659671  0.94427652  1  -0.042374  0.001512  -0.163989  -0.125717  0.000979  3.913673  0.001
C  C210  1  0.13819903  0.51658874  0.44427837  1  -0.045363  0.001512  -0.164085  -0.125946  0.000979  3.913691  0.001
C  C211  1  0.63820216  0.98341277  0.05572232  1  -0.042128  0.001512  -0.164037  -0.125881  0.000979  3.913625  0.001
C  C212  1  0.90524402  0.38338709  0.55838724  1  -0.01824  0.001492  -0.16558  -0.121534  0.000902  3.950711  0.001
C  C213  1  0.40525140  0.11661796  0.94160679  1  -0.017678  0.001492  -0.165645  -0.121524  0.000902  3.950622  0.001
C  C214  1  0.09475299  0.61661174  0.44161142  1  -0.018253  0.001492  -0.165613  -0.121597  0.000902  3.950857  0.001
C  C215  1  0.59475296  0.88338939  0.05839070  1  -0.017765  0.001492  -0.165619  -0.121602  0.000902  3.950768  0.001
C  C216  1  0.00646763  0.38169253  0.58717946  1  -0.043486  0.001241  -0.160857  -0.297545  0.000112  3.934805  0.0
C  C217  1  0.50648275  0.11831335  0.91281881  1  -0.043521  0.001241  -0.160709  -0.297341  0.000113  3.934369  0.0
C  C218  1  0.99352864  0.61830773  0.41281922  1  -0.043335  0.001241  -0.160807  -0.297459  0.000112  3.93473  0.0
C  C219  1  0.49352601  0.88169754  0.08718180  1  -0.043467  0.001241  -0.16076  -0.297387  0.000112  3.934668  0.0
C  C220  1  0.00628388  0.41789753  0.65001498  1  1.536191  0.017406  0.221599  0.643656  0.01746  4.093058  0.015
C  C221  1  0.50630359  0.08211260  0.84998337  1  1.535932  0.017413  0.221627  0.643885  0.017461  4.092657  0.015
C  C222  1  0.99370945  0.58209917  0.34998408  1  1.536123  0.017401  0.221646  0.64386  0.017456  4.09286  0.015
C  C223  1  0.49370957  0.91790042  0.15001684  1  1.536104  0.017404  0.221636  0.6438  0.017459  4.09308  0.015
C  C224  1  0.69668125  0.11675832  0.45312786  1  1.505077  0.0222  0.222025  0.650314  0.022118  4.072699  0.019
C  C225  1  0.19667089  0.38323921  0.04687939  1  1.505756  0.022203  0.222008  0.650358  0.022126  4.072932  0.019
C  C226  1  0.30332310  0.88324192  0.54687563  1  1.505365  0.022202  0.22199  0.650392  0.022122  4.072565  0.019
C  C227  1  0.80331804  0.61675676  0.95312535  1  1.5048  0.022211  0.222006  0.650323  0.022127  4.072527  0.019
C  C228  1  0.66653585  0.03453456  0.49011583  1  -0.023678  0.001284  -0.162193  -0.296089  1e-05  3.919031  0.0
C  C229  1  0.16652509  0.46545917  0.00988619  1  -0.023122  0.001284  -0.162227  -0.296352  1.1e-05  3.919192  0.0
C  C230  1  0.33346777  0.96546426  0.50988545  1  -0.023601  0.001284  -0.162266  -0.296443  1e-05  3.919235  0.0
C  C231  1  0.83346678  0.53453611  0.99011328  1  -0.023551  0.001283  -0.162245  -0.296321  1e-05  3.919262  0.0
C  C232  1  0.71395640  0.04045605  0.55098528  1  0.005282  0.001489  -0.164903  -0.126433  0.000951  3.930327  0.001
C  C233  1  0.21395371  0.45954307  0.94901839  1  0.004637  0.00149  -0.164955  -0.126478  0.000951  3.930335  0.001
C  C234  1  0.28604575  0.95954490  0.44901647  1  0.005197  0.00149  -0.164953  -0.126436  0.000951  3.930332  0.001
C  C235  1  0.78604551  0.54045434  0.05098199  1  0.004512  0.00149  -0.164912  -0.12646  0.000951  3.930418  0.001
C  C236  1  0.68892472  0.13136611  0.58611723  1  -0.03104  0.001439  -0.161061  -0.12079  0.000989  3.912679  0.001
C  C237  1  0.18892955  0.36863849  0.91388224  1  -0.030498  0.001439  -0.161011  -0.120767  0.000989  3.91276  0.001
C  C238  1  0.31107229  0.86863342  0.41388538  1  -0.030959  0.001439  -0.161036  -0.120762  0.000989  3.912847  0.001
C  C239  1  0.81107407  0.63136177  0.08611513  1  -0.030547  0.001439  -0.161073  -0.120754  0.000989  3.91282  0.001
C  C240  1  0.57889797  0.14527527  0.60010424  1  -0.037447  0.004104  -0.168827  -0.301892  0.002908  3.917566  0.002
C  C241  1  0.07890425  0.35472556  0.89989111  1  -0.038021  0.004104  -0.16877  -0.301771  0.002907  3.917764  0.002
C  C242  1  0.42110050  0.85471786  0.39990132  1  -0.038334  0.004104  -0.168845  -0.302017  0.002907  3.91779  0.002
C  C243  1  0.92110083  0.64527541  0.10010452  1  -0.037747  0.004103  -0.168814  -0.301834  0.002907  3.917476  0.002
C  C244  1  0.56485208  0.36816322  0.33887637  1  1.57509  0.0197  0.240818  0.670719  0.018683  4.07473  0.018
C  C245  1  0.06484283  0.13183037  0.16112245  1  1.574605  0.019708  0.240909  0.67085  0.018689  4.0746  0.018
C  C246  1  0.43514713  0.63182852  0.66112173  1  1.574995  0.019707  0.240931  0.670929  0.018687  4.074305  0.018
C  C247  1  0.93515345  0.86816491  0.83887833  1  1.575036  0.019704  0.24088  0.670803  0.018687  4.074457  0.018
C  C248  1  0.52072656  0.46182086  0.32104107  1  -0.013325  0.005549  -0.163964  -0.315647  0.004393  3.933273  0.003
C  C249  1  0.02072436  0.03817167  0.17895260  1  -0.012722  0.005545  -0.163954  -0.315644  0.004391  3.933344  0.003
C  C250  1  0.47927119  0.53817444  0.67895621  1  -0.013239  0.005546  -0.164015  -0.315743  0.004392  3.93321  0.003
C  C251  1  0.97927412  0.96182078  0.82104550  1  -0.013087  0.005546  -0.164069  -0.315822  0.004392  3.93345  0.003
C  C252  1  0.40882362  0.46732902  0.32294733  1  -0.009545  0.001765  -0.166883  -0.113652  0.001154  3.962723  0.001
C  C253  1  0.90881858  0.03266968  0.17704487  1  -0.009244  0.001765  -0.166704  -0.113442  0.001154  3.962651  0.001
C  C254  1  0.59117706  0.53267052  0.67705308  1  -0.009628  0.001765  -0.16685  -0.113579  0.001154  3.962589  0.001
C  C255  1  0.09117842  0.96733130  0.82295076  1  -0.009391  0.001765  -0.166724  -0.113399  0.001154  3.962527  0.001
C  C256  1  0.36086068  0.41861568  0.26990740  1  0.027918  0.001458  -0.170225  -0.131011  0.000667  3.97246  0.001
C  C257  1  0.86086448  0.08137975  0.23008795  1  0.027951  0.001458  -0.170331  -0.131202  0.000667  3.972554  0.001
C  C258  1  0.63913338  0.58138598  0.73009349  1  0.028126  0.001458  -0.170295  -0.131102  0.000667  3.972552  0.001
C  C259  1  0.13913767  0.91862193  0.76990900  1  0.027861  0.001458  -0.170311  -0.131192  0.000667  3.972366  0.001
C  C260  1  0.24915023  0.42557165  0.27019909  1  -0.042128  0.006684  -0.163641  -0.319581  0.005662  3.940588  0.004
C  C261  1  0.74915396  0.07442919  0.22980150  1  -0.042156  0.006684  -0.163676  -0.319682  0.005663  3.940725  0.004
C  C262  1  0.75084384  0.57442930  0.72980398  1  -0.042104  0.006683  -0.163715  -0.319793  0.005663  3.940816  0.004
C  C263  1  0.25084966  0.92557816  0.77019774  1  -0.041944  0.006684  -0.163618  -0.319665  0.005663  3.940699  0.004
C  C264  1  0.20259851  0.38084128  0.21602325  1  1.547883  0.020726  0.242216  0.673647  0.019125  4.070566  0.019
C  C265  1  0.70260515  0.11915703  0.28397874  1  1.547646  0.020728  0.242272  0.673785  0.019125  4.070621  0.019
C  C266  1  0.79739776  0.61916181  0.78397722  1  1.547733  0.020731  0.242249  0.67377  0.019128  4.070521  0.019
C  C267  1  0.29740067  0.88084321  0.71602431  1  1.54784  0.020726  0.242235  0.673758  0.019125  4.070477  0.019
C  C268  1  0.81319469  0.38186385  0.20889108  1  1.553773  0.026361  0.239378  0.672221  0.025287  4.06631  0.023
C  C269  1  0.31318791  0.11812971  0.29111532  1  1.553697  0.026364  0.239421  0.672216  0.025289  4.066164  0.023
C  C270  1  0.18680525  0.61813497  0.79110976  1  1.553707  0.026362  0.239399  0.672367  0.025287  4.066246  0.023
C  C271  1  0.68681130  0.88186910  0.70889121  1  1.553799  0.026363  0.239436  0.672342  0.025289  4.06614  0.023
C  C272  1  0.75751972  0.32495856  0.16299009  1  -0.049711  0.00474  -0.162405  -0.312836  0.003743  3.942182  0.002
C  C273  1  0.25751970  0.17503879  0.33701304  1  -0.049834  0.004739  -0.162357  -0.312798  0.003741  3.942235  0.002
C  C274  1  0.24247949  0.67504099  0.83700726  1  -0.049638  0.004738  -0.162459  -0.312872  0.003741  3.942208  0.002
C  C275  1  0.74248392  0.82496925  0.66299059  1  -0.049745  0.004738  -0.162397  -0.312859  0.003742  3.942214  0.002
C  C276  1  0.64627347  0.32161845  0.16864577  1  -0.035067  0.001328  -0.168723  -0.123393  0.000448  3.948025  0.001
C  C277  1  0.14627352  0.17838577  0.33135561  1  -0.03508  0.001328  -0.168693  -0.123306  0.000449  3.948117  0.001
C  C278  1  0.35372648  0.67838252  0.83135204  1  -0.034589  0.001328  -0.16871  -0.123351  0.000448  3.94788  0.001
C  C279  1  0.85373230  0.82162228  0.66864758  1  -0.034909  0.001328  -0.168717  -0.123426  0.000448  3.947909  0.001
C  C280  1  0.60107934  0.27968679  0.11240142  1  0.016551  0.002031  -0.163785  -0.114235  0.001249  3.963926  0.001
C  C281  1  0.10107565  0.22031208  0.38759826  1  0.016524  0.002031  -0.163786  -0.114321  0.001249  3.964147  0.001
C  C282  1  0.39891840  0.72030779  0.88759760  1  0.015833  0.002031  -0.163735  -0.114162  0.001248  3.963861  0.001
C  C283  1  0.89892503  0.77969455  0.61240316  1  0.016595  0.00203  -0.163806  -0.114394  0.001248  3.964253  0.001
C  C284  1  0.49034654  0.26412924  0.11497754  1  -0.051721  0.007856  -0.158914  -0.31552  0.007021  3.934055  0.004
C  C285  1  0.99034389  0.23586871  0.38502098  1  -0.051689  0.007856  -0.158867  -0.315484  0.007021  3.934179  0.004
C  C286  1  0.50965047  0.73586746  0.88502283  1  -0.051617  0.007856  -0.158935  -0.315525  0.007021  3.934055  0.004
C  C287  1  0.00965385  0.76413722  0.61497780  1  -0.051705  0.007856  -0.158892  -0.315505  0.00702  3.934284  0.004
C  C288  1  0.74569276  0.65122748  0.27649782  1  1.339744  0.005993  0.181135  0.299067  0.005623  4.062583  0.005
C  C289  1  0.24568870  0.84877495  0.22350432  1  1.339758  0.005992  0.181204  0.2993  0.005621  4.062672  0.005
C  C290  1  0.25431085  0.34877846  0.72349877  1  1.3396  0.005994  0.181091  0.299093  0.005624  4.062805  0.005
C  C291  1  0.75431933  0.15121961  0.77649864  1  1.339909  0.005993  0.181097  0.299065  0.005625  4.06286  0.005
C  C292  1  0.62853714  0.78093975  0.28806735  1  0.224652  0.000961  -0.134974  -0.275252  0.000666  3.90174  0.0
C  C293  1  0.12853049  0.71906663  0.21193651  1  0.224382  0.000961  -0.134977  -0.275166  0.000665  3.901582  0.0
C  C294  1  0.37147088  0.21907257  0.71193110  1  0.224444  0.000961  -0.134981  -0.275293  0.000666  3.902115  0.0
C  C295  1  0.87147680  0.28093078  0.78806256  1  0.224558  0.000961  -0.134958  -0.27506  0.000666  3.901892  0.0
C  C296  1  0.76916603  0.79156348  0.21890457  1  0.230363  0.001109  -0.129252  -0.282448  0.000954  3.907794  0.001
C  C297  1  0.26916458  0.70843561  0.28109612  1  0.230571  0.001109  -0.129313  -0.282587  0.000954  3.907655  0.001
C  C298  1  0.23084199  0.20844316  0.78109509  1  0.230336  0.001109  -0.129243  -0.282355  0.000954  3.907439  0.001
C  C299  1  0.73083757  0.29155469  0.71890589  1  0.230471  0.001109  -0.129302  -0.282514  0.000954  3.907663  0.001
C  C300  1  0.44564821  0.26136417  0.47384382  1  1.37913  0.004438  0.180179  0.292445  0.004287  4.103469  0.004
C  C301  1  0.94563607  0.23863267  0.02615743  1  1.378411  0.004438  0.180159  0.292423  0.004286  4.103479  0.004
C  C302  1  0.55435541  0.73862614  0.52615687  1  1.379034  0.004438  0.180255  0.292688  0.004287  4.102905  0.004
C  C303  1  0.05436094  0.76135907  0.97384066  1  1.378902  0.004434  0.18021  0.292532  0.004285  4.103324  0.004
C  C304  1  0.30066537  0.26790668  0.53697388  1  0.22541  0.000562  -0.130295  -0.27097  0.000343  3.877177  0.0
C  C305  1  0.80065689  0.23209108  0.96302382  1  0.226037  0.000562  -0.130364  -0.271159  0.000343  3.877348  0.0
C  C306  1  0.69933678  0.73209286  0.46302697  1  0.2294  0.000561  -0.130342  -0.270972  0.000343  3.877255  0.0
C  C307  1  0.19934158  0.76790634  0.03697437  1  0.225812  0.000562  -0.130304  -0.27091  0.000343  3.877378  0.0
C  C308  1  0.44511800  0.37267615  0.55626790  1  0.241774  0.000876  -0.129076  -0.27881  0.000709  3.910161  0.001
C  C309  1  0.94510723  0.12732287  0.94372371  1  0.242279  0.000875  -0.129081  -0.279216  0.000709  3.910174  0.001
C  C310  1  0.55488562  0.62732482  0.44372948  1  0.241802  0.000876  -0.129093  -0.278866  0.000709  3.910092  0.001
C  C311  1  0.05489124  0.87267386  0.05626834  1  0.242923  0.000875  -0.129098  -0.278909  0.000709  3.909967  0.001
C  C312  1  0.54015760  0.06626451  0.63771461  1  1.548852  0.016867  0.223506  0.651003  0.016189  4.11834  0.015
C  C313  1  0.04015758  0.43373739  0.86228569  1  1.549146  0.016866  0.223456  0.650973  0.016189  4.11851  0.015
C  C314  1  0.45984529  0.93372436  0.36229088  1  1.548415  0.016869  0.223643  0.651139  0.016185  4.118184  0.015
C  C315  1  0.95984016  0.56626499  0.13771303  1  1.548786  0.016866  0.223556  0.651099  0.016186  4.118238  0.015
C  C316  1  0.45812364  0.17746737  0.14802136  1  1.566052  0.020163  0.241677  0.66857  0.018637  4.061686  0.018
C  C317  1  0.95811914  0.32253029  0.35197900  1  1.566068  0.020162  0.241664  0.668532  0.018637  4.061609  0.018
C  C318  1  0.54186970  0.82253924  0.85198443  1  1.565788  0.020158  0.241546  0.668207  0.018633  4.062266  0.018
C  C319  1  0.04187420  0.67746996  0.64801968  1  1.566125  0.020156  0.241583  0.668417  0.018632  4.062023  0.018
N  N320  1  0.71446848  0.73687671  0.26110207  1  -1.207293  0.007324  -0.279514  0.037097  0.005282  3.719094  0.006
N  N321  1  0.21446348  0.76312686  0.23890237  1  -1.207078  0.007322  -0.279476  0.037048  0.005281  3.719114  0.006
N  N322  1  0.28554028  0.26313205  0.73889851  1  -1.207294  0.007325  -0.279501  0.036933  0.005283  3.719029  0.006
N  N323  1  0.78554528  0.23686771  0.76109796  1  -1.207628  0.007325  -0.279544  0.036901  0.005283  3.719271  0.006
N  N324  1  0.39777049  0.30038859  0.51963465  1  -1.219438  0.005527  -0.283025  0.024826  0.003928  3.729219  0.004
N  N325  1  0.89776010  0.19960717  0.98036187  1  -1.219314  0.005528  -0.283059  0.025148  0.003928  3.728844  0.004
N  N326  1  0.60223166  0.69960811  0.48036616  1  -1.219505  0.005527  -0.283045  0.024789  0.003928  3.729221  0.004
N  N327  1  0.10223837  0.80038600  0.01963363  1  -1.219493  0.005526  -0.283145  0.02476  0.003927  3.728968  0.004
O  O328  1  0.76683286  0.49848748  0.43033504  1  -1.217247  0.065803  -0.317058  -0.595705  0.047428  2.298166  0.031
O  O329  1  0.26682902  0.00151423  0.06966464  1  -1.217281  0.065819  -0.317056  -0.595697  0.04743  2.298081  0.031
O  O330  1  0.23315974  0.50150994  0.56966447  1  -1.216685  0.065816  -0.317114  -0.595719  0.047432  2.297989  0.031
O  O331  1  0.73316799  0.99848460  0.93033533  1  -1.217287  0.065822  -0.317037  -0.595674  0.047434  2.298285  0.031
O  O332  1  0.72838236  0.35455435  0.46641027  1  -1.210629  0.06434  -0.31763  -0.583347  0.044601  2.290631  0.029
O  O333  1  0.22840514  0.14544915  0.03358999  1  -1.210612  0.064338  -0.317714  -0.583503  0.044606  2.290845  0.029
O  O334  1  0.27160510  0.64544376  0.53359144  1  -1.210623  0.064339  -0.317658  -0.583376  0.044601  2.290699  0.029
O  O335  1  0.77159995  0.85455180  0.96641177  1  -1.210585  0.064343  -0.317678  -0.583422  0.044602  2.29085  0.029
O  O336  1  0.08722881  0.44908897  0.67280141  1  -1.238005  0.103548  -0.3142  -0.616901  0.077419  2.424591  0.048
O  O337  1  0.58724474  0.05091049  0.82719783  1  -1.237911  0.103547  -0.314345  -0.617147  0.07743  2.42469  0.048
O  O338  1  0.91276526  0.55090630  0.32719937  1  -1.238156  0.103554  -0.314238  -0.617076  0.077424  2.424653  0.048
O  O339  1  0.41276549  0.94909188  0.17280351  1  -1.238166  0.103547  -0.314238  -0.617053  0.077418  2.424608  0.048
O  O340  1  0.92805858  0.42006122  0.68010439  1  -1.192863  0.058143  -0.301862  -0.557092  0.041151  2.202092  0.031
O  O341  1  0.42807985  0.07995609  0.81988977  1  -1.192583  0.05815  -0.301805  -0.557165  0.041158  2.201838  0.031
O  O342  1  0.07193476  0.57993974  0.31989298  1  -1.192752  0.058141  -0.301877  -0.55716  0.041151  2.202028  0.031
O  O343  1  0.57193406  0.92005978  0.18010786  1  -1.192753  0.058135  -0.301868  -0.557133  0.04115  2.202151  0.031
O  O344  1  0.78614189  0.13886425  0.44727337  1  -1.18622  0.065657  -0.312998  -0.558509  0.045726  2.137117  0.035
O  O345  1  0.28613421  0.36113972  0.05273286  1  -1.186758  0.065675  -0.313021  -0.558528  0.045734  2.137181  0.035
O  O346  1  0.21386099  0.86113811  0.55272929  1  -1.186481  0.065662  -0.312983  -0.558485  0.045725  2.137073  0.035
O  O347  1  0.71385545  0.63885839  0.94727060  1  -1.186182  0.06566  -0.312944  -0.558448  0.045728  2.137102  0.035
O  O348  1  0.62952909  0.16737912  0.42823937  1  -1.227581  0.109842  -0.319127  -0.618977  0.08133  2.407857  0.051
O  O349  1  0.12952246  0.33261074  0.07176620  1  -1.227806  0.10985  -0.319055  -0.6189  0.081336  2.408087  0.051
O  O350  1  0.37047306  0.83261969  0.57176541  1  -1.227596  0.109839  -0.319081  -0.618948  0.081334  2.40782  0.051
O  O351  1  0.87047014  0.66738595  0.92823767  1  -1.227515  0.10985  -0.319168  -0.619009  0.081339  2.407723  0.051
O  O352  1  0.50964330  0.29804544  0.34754385  1  -1.212727  0.065003  -0.295387  -0.558604  0.04574  2.322924  0.029
O  O353  1  0.00964506  0.20195477  0.15245437  1  -1.21275  0.065021  -0.295388  -0.558642  0.045748  2.323084  0.029
O  O354  1  0.49035297  0.70195054  0.65245783  1  -1.212518  0.065004  -0.295446  -0.55873  0.045745  2.322943  0.029
O  O355  1  0.99035342  0.79804123  0.84754336  1  -1.212787  0.065009  -0.29534  -0.55858  0.04574  2.322961  0.029
O  O356  1  0.65880105  0.36615906  0.34519388  1  -1.249108  0.11301  -0.30331  -0.599328  0.0835  2.45635  0.052
O  O357  1  0.15879847  0.13383107  0.15480636  1  -1.248971  0.113012  -0.303377  -0.599434  0.083503  2.456155  0.052
O  O358  1  0.34119449  0.63383481  0.65480338  1  -1.249162  0.113021  -0.303338  -0.599364  0.08351  2.456041  0.052
O  O359  1  0.84119853  0.86616348  0.84519835  1  -1.249007  0.113008  -0.303376  -0.599402  0.083505  2.456052  0.052
O  O360  1  0.11206781  0.40184910  0.20472004  1  -1.235787  0.115125  -0.305218  -0.604483  0.084854  2.416826  0.052
O  O361  1  0.61207417  0.09815553  0.29527927  1  -1.235369  0.115114  -0.305215  -0.604457  0.084851  2.416925  0.052
O  O362  1  0.88792552  0.59815186  0.79527865  1  -1.235382  0.115109  -0.30514  -0.604394  0.084848  2.416966  0.052
O  O363  1  0.38793386  0.90184684  0.70472164  1  -1.235777  0.115112  -0.305161  -0.604482  0.084848  2.416798  0.052
O  O364  1  0.25374585  0.32537159  0.18479019  1  -1.197067  0.069344  -0.293205  -0.539395  0.047737  2.328681  0.034
O  O365  1  0.75375643  0.17461862  0.31521590  1  -1.197214  0.069348  -0.293228  -0.539454  0.047737  2.328704  0.034
O  O366  1  0.74624895  0.67463290  0.81521294  1  -1.197184  0.069341  -0.293318  -0.539566  0.047744  2.328591  0.034
O  O367  1  0.24625159  0.82537309  0.68479052  1  -1.196908  0.069324  -0.293235  -0.539446  0.047736  2.328734  0.034
O  O368  1  0.76901587  0.43536317  0.24517637  1  -1.209905  0.065976  -0.297192  -0.564017  0.0463  2.295855  0.031
O  O369  1  0.26901549  0.06463642  0.25482370  1  -1.209838  0.065965  -0.297157  -0.563935  0.046294  2.295768  0.031
O  O370  1  0.23097820  0.56463568  0.75481922  1  -1.209796  0.065955  -0.297133  -0.564077  0.046299  2.295717  0.031
O  O371  1  0.73098372  0.93536380  0.74518154  1  -1.210007  0.065958  -0.297128  -0.564016  0.046297  2.295824  0.031
O  O372  1  0.90799508  0.37403407  0.20703889  1  -1.222656  0.115033  -0.308865  -0.601837  0.083607  2.422269  0.053
O  O373  1  0.40799791  0.12595106  0.29297278  1  -1.22247  0.115024  -0.308966  -0.601954  0.083614  2.421965  0.053
O  O374  1  0.09200119  0.62596332  0.79296631  1  -1.222648  0.115016  -0.308942  -0.60198  0.083612  2.422272  0.053
O  O375  1  0.59200057  0.87403992  0.70703756  1  -1.222495  0.115011  -0.308977  -0.602019  0.083611  2.42204  0.053
O  O376  1  0.70538339  0.60313927  0.31551051  1  -1.189385  0.056289  -0.296366  -0.471824  0.039176  2.369271  0.024
O  O377  1  0.20538230  0.89686351  0.18449394  1  -1.189348  0.05628  -0.296385  -0.471919  0.039176  2.369286  0.024
O  O378  1  0.29461288  0.39686808  0.68448698  1  -1.189624  0.056293  -0.296341  -0.471796  0.039178  2.369491  0.024
O  O379  1  0.79462793  0.10313317  0.81551168  1  -1.189493  0.056286  -0.296299  -0.471791  0.039179  2.369467  0.024
O  O380  1  0.41266829  0.19552186  0.44165411  1  -1.177121  0.050895  -0.284562  -0.454275  0.035946  2.356574  0.023
O  O381  1  0.91265797  0.30446974  0.05834672  1  -1.177062  0.050891  -0.284458  -0.454223  0.035943  2.356742  0.023
O  O382  1  0.58733827  0.80446845  0.55834878  1  -1.17721  0.050906  -0.284605  -0.454477  0.035949  2.35615  0.023
O  O383  1  0.08734271  0.69551915  0.94165396  1  -1.177227  0.050898  -0.284527  -0.454263  0.035942  2.356754  0.023
O  O384  1  0.54335740  0.07809480  0.69337240  1  -1.201499  0.066633  -0.31738  -0.58968  0.046526  2.284416  0.031
O  O385  1  0.04335627  0.42190713  0.80662657  1  -1.201489  0.066644  -0.31738  -0.589694  0.046526  2.284391  0.031
O  O386  1  0.45663814  0.92189763  0.30663139  1  -1.201138  0.066603  -0.317539  -0.589845  0.046529  2.284369  0.031
O  O387  1  0.95664074  0.57809099  0.19337339  1  -1.201446  0.066635  -0.317434  -0.589747  0.046527  2.284285  0.031
O  O388  1  0.50960652  0.99193863  0.61075940  1  -1.208523  0.065969  -0.311128  -0.57507  0.046013  2.315463  0.03
O  O389  1  0.00960377  0.50805824  0.88924110  1  -1.208755  0.065977  -0.311083  -0.575051  0.046014  2.31573  0.03
O  O390  1  0.49040958  0.00804457  0.38924337  1  -1.20818  0.065971  -0.311082  -0.575057  0.046009  2.315444  0.03
O  O391  1  0.99038809  0.49194130  0.11075801  1  -1.208477  0.065958  -0.311084  -0.575079  0.046009  2.315484  0.03
O  O392  1  0.36587445  0.15582354  0.14409408  1  -1.236574  0.113509  -0.306624  -0.605257  0.08369  2.44098  0.05
O  O393  1  0.86587158  0.34417334  0.35590654  1  -1.236674  0.113522  -0.306654  -0.605176  0.083685  2.440871  0.05
O  O394  1  0.63411595  0.84417669  0.85591160  1  -1.236355  0.113501  -0.306511  -0.60506  0.083678  2.441183  0.05
O  O395  1  0.13412248  0.65582905  0.64409043  1  -1.236484  0.113504  -0.306654  -0.60525  0.083691  2.441149  0.05
O  O396  1  0.51966409  0.13079157  0.17664124  1  -1.19457  0.062758  -0.289761  -0.540078  0.042964  2.29485  0.032
O  O397  1  0.01966306  0.36920658  0.32336260  1  -1.194402  0.062744  -0.289714  -0.540064  0.042966  2.294902  0.032
O  O398  1  0.48032410  0.86921998  0.82337164  1  -1.194275  0.062729  -0.28976  -0.539959  0.042962  2.294945  0.032
O  O399  1  0.98033101  0.63079722  0.67663570  1  -1.194368  0.062721  -0.289676  -0.539941  0.042961  2.29498  0.032
