# generated using pymatgen
data_AgH12C24N7O9
_symmetry_space_group_name_H-M   'P 1'
_cell_length_a   9.14662641
_cell_length_b   20.83984483
_cell_length_c   28.39891198
_cell_angle_alpha   90.00034523
_cell_angle_beta   98.57736120
_cell_angle_gamma   89.99935705
_symmetry_Int_Tables_number   1
_chemical_formula_structural   AgH12C24N7O9
_chemical_formula_sum   'Ag8 H96 C192 N56 O72'
_cell_volume   5352.69305715
_cell_formula_units_Z   8
loop_
 _symmetry_equiv_pos_site_id
 _symmetry_equiv_pos_as_xyz
  1  'x, y, z'
loop_
 _atom_site_type_symbol
 _atom_site_label
 _atom_site_symmetry_multiplicity
 _atom_site_fract_x
 _atom_site_fract_y
 _atom_site_fract_z
 _atom_site_occupancy
 _atom_site_pbe_bader_charge
 _atom_site_pbe_bader_spin_density
 _atom_site_pbe_cm5_charge
 _atom_site_pbe_ddec_charge
 _atom_site_pbe_ddec_spin_density
 _atom_site_pbe_ddec_sum_bond_order
 _atom_site_pbe_magmom
Ag  Ag0  1  0.51461124  0.20800914  0.84647942  1  0.615349  0  0.484302  0.38759  0  1.819859  0
Ag  Ag1  1  0.98541628  0.70799101  0.15352370  1  0.615478  0  0.484295  0.387634  0  1.819738  0
Ag  Ag2  1  0.48540029  0.79199623  0.15352449  1  0.615334  0  0.484303  0.387662  0  1.819828  0
Ag  Ag3  1  0.01460733  0.29200620  0.84647444  1  0.615292  0  0.484311  0.387604  0  1.819898  0
Ag  Ag4  1  0.72466992  0.20931988  0.35379992  1  0.655768  0  0.451023  0.372293  0  1.79188  0
Ag  Ag5  1  0.77531223  0.70932040  0.64620038  1  0.655852  0  0.451  0.372273  0  1.791933  0
Ag  Ag6  1  0.27531177  0.79067493  0.64620330  1  0.65582  0  0.451019  0.37235  0  1.791829  0
Ag  Ag7  1  0.22467714  0.29067201  0.35379862  1  0.655788  0  0.45103  0.372249  0  1.791893  0
H  H8  1  0.38945373  0.13906878  0.92825752  1  0.158588  0  0.11985  0.118609  0  1.028029  0
H  H9  1  0.11054979  0.63905469  0.07173845  1  0.158691  0  0.119923  0.118706  0  1.027871  0
H  H10  1  0.61056209  0.86094619  0.07173673  1  0.158619  0  0.11988  0.118704  0  1.027813  0
H  H11  1  0.88945618  0.36095260  0.92826344  1  0.158581  0  0.119915  0.118741  0  1.027812  0
H  H12  1  0.73043701  0.27146479  0.92674668  1  0.144699  0  0.118755  0.122309  0  1.040635  0
H  H13  1  0.76956469  0.77145377  0.07325726  1  0.144656  0  0.118791  0.122377  0  1.040636  0
H  H14  1  0.26956565  0.72854586  0.07325506  1  0.144982  0  0.118785  0.122312  0  1.040732  0
H  H15  1  0.23043576  0.22854488  0.92674437  1  0.144979  0  0.118806  0.122385  0  1.04059  0
H  H16  1  0.57521493  0.12302079  0.26892567  1  0.174372  0  0.117032  0.122495  0  1.054026  0
H  H17  1  0.92476590  0.62300737  0.73106857  1  0.174235  0  0.117031  0.122489  0  1.053927  0
H  H18  1  0.42478997  0.87697690  0.73107864  1  0.174605  0  0.117098  0.122469  0  1.054102  0
H  H19  1  0.07521462  0.37698265  0.26893037  1  0.174204  0  0.116976  0.122389  0  1.054061  0
H  H20  1  0.92036988  0.25454251  0.27058097  1  0.132818  0  0.121011  0.116973  0  1.025003  0
H  H21  1  0.57962118  0.75454326  0.72942346  1  0.132894  0  0.12102  0.116982  0  1.024945  0
H  H22  1  0.07965394  0.74544414  0.72943302  1  0.133125  0  0.121005  0.117106  0  1.024889  0
H  H23  1  0.42035270  0.24544867  0.27057447  1  0.132996  0  0.121018  0.117044  0  1.02495  0
H  H24  1  0.67764530  0.00125847  0.01339006  1  0.090798  0  0.114079  0.147244  0  1.00436  0
H  H25  1  0.82236837  0.50126643  0.98660907  1  0.0908  0  0.114134  0.147298  0  1.00423  0
H  H26  1  0.32236734  0.99873826  0.98661426  1  0.090721  0  0.114028  0.147218  0  1.004458  0
H  H27  1  0.17762875  0.49873366  0.01339170  1  0.090871  0  0.114127  0.147258  0  1.004202  0
H  H28  1  0.47808538  0.13004102  0.10438683  1  0.112273  0  0.115079  0.146808  0  1.001295  0
H  H29  1  0.02191823  0.63003866  0.89559890  1  0.112762  0  0.115099  0.146858  0  1.001242  0
H  H30  1  0.52189940  0.86996723  0.89559928  1  0.112571  0  0.115054  0.146813  0  1.001258  0
H  H31  1  0.97808994  0.36996767  0.10440169  1  0.11254  0  0.115106  0.146888  0  1.001264  0
H  H32  1  0.77011593  0.97915676  0.16617443  1  0.165887  0  0.118322  0.16361  0  0.998904  0
H  H33  1  0.72990506  0.47914013  0.83382883  1  0.166005  0  0.11835  0.163543  0  0.998879  0
H  H34  1  0.22987793  0.02086060  0.83383006  1  0.165837  0  0.11836  0.163623  0  0.998673  0
H  H35  1  0.27010538  0.52086188  0.16617644  1  0.165828  0  0.118296  0.163497  0  0.998923  0
H  H36  1  0.05414353  0.14026489  0.01518158  1  0.122602  0  0.114696  0.147508  0  0.992495  0
H  H37  1  0.44584670  0.64026839  0.98481414  1  0.122743  0  0.114674  0.147467  0  0.992573  0
H  H38  1  0.94585137  0.85974480  0.98481839  1  0.122623  0  0.114762  0.147612  0  0.992443  0
H  H39  1  0.55414265  0.35973266  0.01518381  1  0.12281  0  0.114676  0.147474  0  0.992608  0
H  H40  1  0.83854374  0.27088953  0.10091310  1  0.11721  0  0.113702  0.145266  0  1.000867  0
H  H41  1  0.66146560  0.77089035  0.89908275  1  0.117198  0  0.113729  0.145265  0  1.00082  0
H  H42  1  0.16145564  0.72910816  0.89909095  1  0.117213  0  0.113721  0.145285  0  1.000863  0
H  H43  1  0.33852824  0.22910878  0.10092034  1  0.116957  0  0.113715  0.14519  0  1.000991  0
H  H44  1  0.14670377  0.12989431  0.16884097  1  0.098591  0  0.126411  0.165785  0  0.953295  0
H  H45  1  0.35330666  0.62989169  0.83115846  1  0.098615  0  0.126444  0.165799  0  0.953341  0
H  H46  1  0.85331992  0.87011297  0.83116281  1  0.098913  0  0.126459  0.165814  0  0.953325  0
H  H47  1  0.64668489  0.37010696  0.16883783  1  0.098802  0  0.126415  0.165717  0  0.953248  0
H  H48  1  0.03300046  0.84627288  0.08105593  1  0.100784  0  0.1151  0.111308  0  1.006788  0
H  H49  1  0.46700702  0.34627403  0.91894816  1  0.100749  0  0.115107  0.111395  0  1.006843  0
H  H50  1  0.96699783  0.15373729  0.91894913  1  0.100469  0  0.115164  0.111581  0  1.006908  0
H  H51  1  0.53298233  0.65372606  0.08105014  1  0.100756  0  0.115049  0.111343  0  1.006838  0
H  H52  1  0.37838791  0.97786083  0.08418906  1  0.11419  0  0.108738  0.100036  0  1.03862  0
H  H53  1  0.12161962  0.47786318  0.91580784  1  0.114235  0  0.108769  0.100121  0  1.038674  0
H  H54  1  0.62161131  0.02214934  0.91580336  1  0.11424  0  0.108798  0.100102  0  1.038645  0
H  H55  1  0.87836408  0.52213307  0.08417998  1  0.114335  0  0.108821  0.100199  0  1.038652  0
H  H56  1  0.07401084  0.16396719  0.39197841  1  0.132906  0  0.117429  0.114056  0  1.011241  0
H  H57  1  0.42600073  0.66396520  0.60800185  1  0.133133  0  0.117527  0.114244  0  1.011027  0
H  H58  1  0.92599500  0.83603338  0.60801221  1  0.13293  0  0.117429  0.114101  0  1.01111  0
H  H59  1  0.57399301  0.33603297  0.39199313  1  0.133143  0  0.117459  0.114152  0  1.011069  0
H  H60  1  0.69678979  0.05205726  0.35244437  1  0.107328  0  0.119241  0.123871  0  1.008784  0
H  H61  1  0.80319181  0.55205621  0.64756193  1  0.107729  0  0.119249  0.123939  0  1.008754  0
H  H62  1  0.30319859  0.94794523  0.64756410  1  0.107614  0  0.119237  0.123922  0  1.008723  0
H  H63  1  0.19680531  0.44794628  0.35243814  1  0.107698  0  0.119236  0.123969  0  1.008725  0
H  H64  1  0.60316737  0.87738419  0.24210779  1  0.161212  0  0.121923  0.131138  0  1.021195  0
H  H65  1  0.89683952  0.37740879  0.75789685  1  0.160831  0  0.121864  0.130964  0  1.02132  0
H  H66  1  0.39683876  0.12259575  0.75790503  1  0.160781  0  0.121944  0.13109  0  1.021288  0
H  H67  1  0.10318858  0.62257786  0.24210678  1  0.160565  0  0.121905  0.13116  0  1.021322  0
H  H68  1  0.22929680  0.76165473  0.20692155  1  0.132642  0  0.113797  0.109623  0  1.05625  0
H  H69  1  0.27067176  0.26165867  0.79307613  1  0.132995  0  0.113757  0.109528  0  1.056543  0
H  H70  1  0.77066608  0.23835112  0.79307938  1  0.133142  0  0.113847  0.109548  0  1.056319  0
H  H71  1  0.72936618  0.73833759  0.20691916  1  0.133306  0  0.11378  0.10955  0  1.056678  0
H  H72  1  0.33361467  0.99517128  0.47887356  1  0.109697  0  0.116353  0.150687  0  0.974498  0
H  H73  1  0.16634706  0.49516239  0.52111740  1  0.109853  0  0.116363  0.150718  0  0.974371  0
H  H74  1  0.66636918  0.00484129  0.52112624  1  0.109821  0  0.116356  0.150673  0  0.974547  0
H  H75  1  0.83363232  0.50483434  0.47887867  1  0.109877  0  0.116329  0.150688  0  0.97442  0
H  H76  1  0.36715730  0.01296939  0.32963589  1  0.171587  0  0.121192  0.165041  0  0.987897  0
H  H77  1  0.13285364  0.51298042  0.67035637  1  0.171322  0  0.121235  0.165167  0  0.987799  0
H  H78  1  0.63283648  0.98702350  0.67036226  1  0.171565  0  0.121247  0.165147  0  0.987875  0
H  H79  1  0.86715670  0.48702303  0.32964079  1  0.171202  0  0.121251  0.16518  0  0.987935  0
H  H80  1  0.58141301  0.85485408  0.41156605  1  0.103641  0  0.111468  0.141537  0  1.010352  0
H  H81  1  0.91857119  0.35485699  0.58843673  1  0.103933  0  0.111462  0.141565  0  1.010312  0
H  H82  1  0.41856323  0.14514505  0.58844290  1  0.103789  0  0.111433  0.141585  0  1.010181  0
H  H83  1  0.08143473  0.64513734  0.41156094  1  0.103943  0  0.11145  0.141543  0  1.010279  0
H  H84  1  0.91519482  0.87511263  0.43606170  1  0.073217  0  0.117261  0.151129  0  0.970412  0
H  H85  1  0.58482207  0.37511026  0.56394269  1  0.073483  0  0.117299  0.151195  0  0.970382  0
H  H86  1  0.08480128  0.12488842  0.56394501  1  0.073592  0  0.117302  0.151169  0  0.970496  0
H  H87  1  0.41520038  0.62489079  0.43605081  1  0.073605  0  0.117316  0.151179  0  0.970522  0
H  H88  1  0.95722235  0.88657503  0.28644994  1  0.16655  0  0.120133  0.163638  0  0.983771  0
H  H89  1  0.54275781  0.38657270  0.71355560  1  0.166463  0  0.12011  0.163593  0  0.983763  0
H  H90  1  0.04275166  0.11342362  0.71355715  1  0.166017  0  0.120066  0.163546  0  0.983843  0
H  H91  1  0.45726576  0.61342787  0.28643936  1  0.165896  0  0.120055  0.163557  0  0.98384  0
H  H92  1  0.17211874  0.73339385  0.37288478  1  0.097499  0  0.115641  0.148361  0  0.989227  0
H  H93  1  0.32787367  0.23340185  0.62711037  1  0.09763  0  0.115644  0.14831  0  0.989386  0
H  H94  1  0.82787178  0.26660528  0.62711744  1  0.097557  0  0.115607  0.148269  0  0.98936  0
H  H95  1  0.67214542  0.76660399  0.37287981  1  0.097626  0  0.115591  0.148227  0  0.989279  0
H  H96  1  0.48606162  0.84841880  0.58005122  1  0.149758  0  0.121293  0.123344  0  1.027342  0
H  H97  1  0.01395462  0.34841604  0.41995046  1  0.149608  0  0.121328  0.123451  0  1.027247  0
H  H98  1  0.51394985  0.15157409  0.41994811  1  0.149666  0  0.121322  0.123407  0  1.027399  0
H  H99  1  0.98605799  0.65157589  0.58005174  1  0.149744  0  0.121326  0.123445  0  1.027413  0
H  H100  1  0.11689810  0.73171139  0.54264391  1  0.099208  0  0.11561  0.111094  0  1.040558  0
H  H101  1  0.38311643  0.23171193  0.45734945  1  0.09905  0  0.115543  0.110997  0  1.040532  0
H  H102  1  0.88310456  0.26828918  0.45735712  1  0.099259  0  0.115577  0.111021  0  1.040473  0
H  H103  1  0.61690818  0.76828864  0.54264028  1  0.099461  0  0.115533  0.110951  0  1.040539  0
C  C104  1  0.55506498  0.14202788  0.99228989  1  1.05803  0  0.228693  0.399841  0  4.080022  0
C  C105  1  0.94495071  0.64202743  0.00770078  1  1.058159  0  0.228773  0.400016  0  4.080253  0
C  C106  1  0.44493315  0.85797413  0.00770319  1  1.057737  0  0.2288  0.399956  0  4.080291  0
C  C107  1  0.05506299  0.35797794  0.99230006  1  1.058239  0  0.228908  0.400228  0  4.080281  0
C  C108  1  0.49023958  0.16083365  0.94662726  1  0.574267  0  0.028023  -0.104951  0  3.930748  0
C  C109  1  0.00976674  0.66082518  0.05336859  1  0.574137  0  0.02786  -0.105158  0  3.930666  0
C  C110  1  0.50976304  0.83917268  0.05337131  1  0.574187  0  0.027929  -0.105015  0  3.930357  0
C  C111  1  0.99024804  0.33918307  0.94662984  1  0.57423  0  0.027763  -0.105371  0  3.930462  0
C  C112  1  0.67990897  0.23472720  0.94627704  1  0.506189  0  0.023171  -0.113272  0  3.921007  0
C  C113  1  0.82010354  0.73472296  0.05372585  1  0.506401  0  0.023049  -0.113455  0  3.921226  0
C  C114  1  0.32010030  0.76527481  0.05372325  1  0.506047  0  0.023123  -0.113303  0  3.921495  0
C  C115  1  0.17989804  0.26527857  0.94627725  1  0.506075  0  0.02308  -0.113415  0  3.921419  0
C  C116  1  0.74158787  0.21271508  0.99146519  1  1.099082  0  0.224934  0.391951  0  4.081257  0
C  C117  1  0.75843178  0.71271172  0.00853547  1  1.099488  0  0.224858  0.391882  0  4.081334  0
C  C118  1  0.25841708  0.78728933  0.00854193  1  1.099264  0  0.22484  0.392002  0  4.081682  0
C  C119  1  0.24157087  0.28728597  0.99146486  1  1.099433  0  0.224735  0.391773  0  4.081662  0
C  C120  1  0.65999435  0.14463151  0.25083967  1  0.539583  0  0.022296  -0.115489  0  3.936609  0
C  C121  1  0.84000364  0.64462874  0.74915406  1  0.539328  0  0.022402  -0.115183  0  3.936413  0
C  C122  1  0.34001607  0.85536475  0.74916349  1  0.539541  0  0.022209  -0.115296  0  3.936475  0
C  C123  1  0.15998795  0.35536800  0.25084540  1  0.539078  0  0.022342  -0.115241  0  3.936323  0
C  C124  1  0.68454742  0.12484896  0.20562492  1  1.06515  0  0.223844  0.394097  0  4.085876  0
C  C125  1  0.81543551  0.62483949  0.79436449  1  1.064859  0  0.223986  0.394093  0  4.085858  0
C  C126  1  0.31543639  0.87516073  0.79437171  1  1.065066  0  0.223915  0.393917  0  4.086039  0
C  C127  1  0.18455718  0.37516108  0.20563572  1  1.064724  0  0.224051  0.394123  0  4.08576  0
C  C128  1  0.86710315  0.19768926  0.20579947  1  1.058596  0  0.223613  0.388027  0  4.072267  0
C  C129  1  0.63288478  0.69768310  0.79419859  1  1.058728  0  0.223602  0.387843  0  4.072723  0
C  C130  1  0.13289843  0.80231371  0.79420398  1  1.058449  0  0.223555  0.387826  0  4.072469  0
C  C131  1  0.36710685  0.30231508  0.20580440  1  1.058608  0  0.223605  0.387856  0  4.072446  0
C  C132  1  0.84930951  0.21828946  0.25154337  1  0.563689  0  0.0296  -0.087865  0  3.905764  0
C  C133  1  0.65068677  0.71828906  0.74845552  1  0.563415  0  0.029519  -0.087771  0  3.905617  0
C  C134  1  0.15071423  0.78170055  0.74846498  1  0.564128  0  0.029728  -0.087907  0  3.905513  0
C  C135  1  0.34929598  0.28170527  0.25154459  1  0.563928  0  0.029628  -0.087783  0  3.905723  0
C  C136  1  0.73402175  0.98642482  0.08923481  1  0.431002  0  0.086637  0.296933  0  4.039404  0
C  C137  1  0.76598689  0.48642785  0.91076721  1  0.430632  0  0.086626  0.296815  0  4.038956  0
C  C138  1  0.26598428  0.01358103  0.91077131  1  0.430368  0  0.086591  0.296734  0  4.039233  0
C  C139  1  0.23401691  0.51357224  0.08923705  1  0.430756  0  0.086661  0.296921  0  4.039292  0
C  C140  1  0.66172362  0.01682547  0.04878710  1  0.065853  0  -0.104297  -0.307127  0  3.96083  0
C  C141  1  0.83830625  0.51683354  0.95121180  1  0.065128  0  -0.104269  -0.307172  0  3.960708  0
C  C142  1  0.33828902  0.98317126  0.95121722  1  0.066116  0  -0.104224  -0.307081  0  3.960804  0
C  C143  1  0.16170750  0.48316751  0.04879257  1  0.064929  0  -0.10428  -0.30713  0  3.960811  0
C  C144  1  0.56877490  0.06791920  0.05521998  1  0.367768  0  0.085  0.291313  0  4.05216  0
C  C145  1  0.93125362  0.56792147  0.94477027  1  0.369198  0  0.085055  0.291381  0  4.051884  0
C  C146  1  0.43123321  0.93208281  0.94477567  1  0.368243  0  0.08513  0.291517  0  4.052168  0
C  C147  1  0.06874795  0.43208198  0.05523212  1  0.369667  0  0.085025  0.291278  0  4.051771  0
C  C148  1  0.54949792  0.08951749  0.10008117  1  0.076619  0  -0.098732  -0.296001  0  3.964367  0
C  C149  1  0.95052010  0.58951401  0.89990621  1  0.076  0  -0.098806  -0.296006  0  3.963937  0
C  C150  1  0.45050685  0.91049268  0.89991221  1  0.076268  0  -0.098816  -0.29606  0  3.964226  0
C  C151  1  0.04948258  0.41049136  0.10009658  1  0.076103  0  -0.098842  -0.295979  0  3.963813  0
C  C152  1  0.62317194  0.05697260  0.13936138  1  0.429513  0  0.090306  0.303005  0  4.042924  0
C  C153  1  0.87682149  0.55696724  0.86062894  1  0.428494  0  0.090165  0.302559  0  4.043081  0
C  C154  1  0.37682068  0.94303996  0.86063320  1  0.428525  0  0.090281  0.302768  0  4.042922  0
C  C155  1  0.12318231  0.44303381  0.13937496  1  0.428141  0  0.090092  0.302364  0  4.043291  0
C  C156  1  0.71499008  0.00479395  0.13503494  1  -0.000884  0  -0.096897  -0.296043  0  3.911705  0
C  C157  1  0.78501027  0.50478907  0.86496640  1  -0.000962  0  -0.096898  -0.29571  0  3.911468  0
C  C158  1  0.28500490  0.99521718  0.86497066  1  -4.8e-05  0  -0.097013  -0.295955  0  3.911444  0
C  C159  1  0.21500351  0.49520670  0.13504079  1  -0.000774  0  -0.096894  -0.29576  0  3.911543  0
C  C160  1  0.10937335  0.13017239  0.09165870  1  0.421995  0  0.089541  0.300535  0  4.049271  0
C  C161  1  0.39063261  0.63017408  0.90833840  1  0.421579  0  0.089531  0.300805  0  4.049145  0
C  C162  1  0.89064919  0.86983825  0.90834255  1  0.420839  0  0.089579  0.300605  0  4.049481  0
C  C163  1  0.60937222  0.36982217  0.09166027  1  0.421533  0  0.089462  0.300463  0  4.049239  0
C  C164  1  0.03767394  0.15824410  0.04999913  1  -0.004113  0  -0.101054  -0.300367  0  3.935037  0
C  C165  1  0.46233577  0.65824242  0.94999792  1  -0.004263  0  -0.101102  -0.300542  0  3.935121  0
C  C166  1  0.96233755  0.84176367  0.95000161  1  -0.004517  0  -0.101254  -0.300741  0  3.935508  0
C  C167  1  0.53765911  0.34175191  0.04999993  1  -0.004104  0  -0.101001  -0.300382  0  3.934864  0
C  C168  1  0.94191172  0.20912422  0.05428227  1  0.407816  0  0.087814  0.304256  0  4.031159  0
C  C169  1  0.55809140  0.70912259  0.94571514  1  0.408125  0  0.087873  0.304484  0  4.030818  0
C  C170  1  0.05808545  0.79087827  0.94572132  1  0.408055  0  0.08782  0.304351  0  4.030996  0
C  C171  1  0.44189247  0.29087415  0.05428572  1  0.407428  0  0.087731  0.304329  0  4.03081  0
C  C172  1  0.91750283  0.23241687  0.09835371  1  0.023119  0  -0.097102  -0.293814  0  3.930261  0
C  C173  1  0.58249750  0.73241618  0.90164297  1  0.023114  0  -0.097172  -0.293921  0  3.930248  0
C  C174  1  0.08249431  0.76758130  0.90164777  1  0.023158  0  -0.097099  -0.293779  0  3.929981  0
C  C175  1  0.41748747  0.26758295  0.09835830  1  0.023098  0  -0.096953  -0.293567  0  3.930308  0
C  C176  1  0.99258765  0.20330004  0.13905940  1  0.423579  0  0.091509  0.305395  0  4.043153  0
C  C177  1  0.50740234  0.70330225  0.86093772  1  0.424417  0  0.091541  0.305472  0  4.043206  0
C  C178  1  0.00741060  0.79670006  0.86094319  1  0.423741  0  0.091597  0.305378  0  4.043136  0
C  C179  1  0.49258704  0.29669448  0.13906234  1  0.424555  0  0.091417  0.305371  0  4.043401  0
C  C180  1  0.08988295  0.15236281  0.13659303  1  0.117323  0  -0.095782  -0.302675  0  3.9297  0
C  C181  1  0.41010704  0.65236834  0.86340589  1  0.116485  0  -0.09578  -0.302813  0  3.929845  0
C  C182  1  0.91012746  0.84764207  0.86340942  1  0.117114  0  -0.09596  -0.302734  0  3.929687  0
C  C183  1  0.58989004  0.34762599  0.13659171  1  0.116558  0  -0.095759  -0.302588  0  3.929634  0
C  C184  1  0.97243504  0.94730491  0.08384061  1  1.057723  0  0.223668  0.387477  0  4.068799  0
C  C185  1  0.52758346  0.44730533  0.91616733  1  1.05692  0  0.22358  0.387369  0  4.069033  0
C  C186  1  0.02758429  0.05270670  0.91616859  1  1.057023  0  0.223643  0.387487  0  4.069281  0
C  C187  1  0.47241475  0.55269476  0.08383209  1  1.05664  0  0.22358  0.387438  0  4.069052  0
C  C188  1  0.07041078  0.89595790  0.08152646  1  0.566508  0  0.024096  -0.094622  0  3.974888  0
C  C189  1  0.42961104  0.39596019  0.91848274  1  0.566548  0  0.024176  -0.094623  0  3.9752  0
C  C190  1  0.92960851  0.10405083  0.91847993  1  0.566579  0  0.024042  -0.094934  0  3.975513  0
C  C191  1  0.57038494  0.60403942  0.08151482  1  0.56679  0  0.024168  -0.09464  0  3.975214  0
C  C192  1  0.26083278  0.96863648  0.08372876  1  0.566525  0  0.017989  -0.110129  0  3.978879  0
C  C193  1  0.23918498  0.46864017  0.91627245  1  0.566663  0  0.017958  -0.110268  0  3.979126  0
C  C194  1  0.73918197  0.03137225  0.91626755  1  0.566187  0  0.018049  -0.110029  0  3.978972  0
C  C195  1  0.76080093  0.53135752  0.08371583  1  0.56669  0  0.017844  -0.110448  0  3.979267  0
C  C196  1  0.15944276  0.01868773  0.08607064  1  1.011123  0  0.220941  0.384308  0  4.079343  0
C  C197  1  0.34056814  0.51869067  0.91392869  1  1.011473  0  0.220894  0.384389  0  4.079456  0
C  C198  1  0.84057204  0.98132244  0.91392955  1  1.012694  0  0.220861  0.384127  0  4.079896  0
C  C199  1  0.65941782  0.48130846  0.08606312  1  1.011786  0  0.220939  0.38436  0  4.079354  0
C  C200  1  0.11066731  0.06045863  0.38855441  1  1.117412  0  0.224615  0.394291  0  4.072931  0
C  C201  1  0.38932256  0.56045733  0.61143496  1  1.117937  0  0.224749  0.394237  0  4.073065  0
C  C202  1  0.88932644  0.93954338  0.61144163  1  1.117627  0  0.224699  0.394352  0  4.073023  0
C  C203  1  0.61067671  0.43954180  0.38856063  1  1.118133  0  0.22471  0.394275  0  4.073309  0
C  C204  1  0.02488872  0.11658593  0.38531121  1  0.544521  0  0.027767  -0.091726  0  3.936848  0
C  C205  1  0.47510305  0.61658183  0.61467390  1  0.543359  0  0.027656  -0.091883  0  3.937052  0
C  C206  1  0.97510172  0.88341704  0.61468573  1  0.544323  0  0.027773  -0.091812  0  3.936529  0
C  C207  1  0.52489839  0.38341730  0.38531897  1  0.543851  0  0.027724  -0.091889  0  3.936772  0
C  C208  1  0.81629490  0.05439148  0.36296980  1  0.586949  0  0.020962  -0.112762  0  3.942327  0
C  C209  1  0.68368872  0.55438853  0.63702604  1  0.586919  0  0.02083  -0.113021  0  3.942706  0
C  C210  1  0.18369342  0.94561005  0.63703338  1  0.586949  0  0.020935  -0.112836  0  3.942611  0
C  C211  1  0.31631165  0.44561252  0.36296890  1  0.586896  0  0.020846  -0.113165  0  3.942641  0
C  C212  1  0.90662214  0.99969294  0.36667199  1  1.033491  0  0.222114  0.38858  0  4.089995  0
C  C213  1  0.59335958  0.49968968  0.63332354  1  1.033549  0  0.222153  0.388632  0  4.089527  0
C  C214  1  0.09336505  0.00030907  0.63332937  1  1.033454  0  0.222093  0.388529  0  4.089842  0
C  C215  1  0.40664078  0.50031137  0.36667105  1  1.03342  0  0.222188  0.388707  0  4.089547  0
C  C216  1  0.50123785  0.85797791  0.25190778  1  0.596296  0  0.026186  -0.107952  0  3.901908  0
C  C217  1  0.99876394  0.35799281  0.74809336  1  0.596675  0  0.026297  -0.107629  0  3.90155  0
C  C218  1  0.49876600  0.14200587  0.74809999  1  0.597019  0  0.026123  -0.107893  0  3.901902  0
C  C219  1  0.00125414  0.64199481  0.25190416  1  0.596791  0  0.026178  -0.107869  0  3.901722  0
C  C220  1  0.45173510  0.87210500  0.29514676  1  1.047441  0  0.226496  0.394637  0  4.080262  0
C  C221  1  0.04826398  0.37211552  0.70485387  1  1.047573  0  0.226476  0.394475  0  4.079661  0
C  C222  1  0.54826652  0.12788262  0.70485986  1  1.047982  0  0.226526  0.394602  0  4.079751  0
C  C223  1  0.95174970  0.62787593  0.29514557  1  1.047676  0  0.226497  0.394465  0  4.080184  0
C  C224  1  0.25021172  0.80929832  0.27601385  1  1.056706  0  0.228029  0.397335  0  4.071555  0
C  C225  1  0.24977113  0.30929698  0.72398189  1  1.056978  0  0.228093  0.397265  0  4.071458  0
C  C226  1  0.74977329  0.19070177  0.72398953  1  1.057107  0  0.227938  0.397289  0  4.071777  0
C  C227  1  0.75025351  0.69069688  0.27601067  1  1.056783  0  0.228095  0.397735  0  4.071952  0
C  C228  1  0.29443007  0.79303879  0.23249068  1  0.594502  0  0.026569  -0.086491  0  3.889693  0
C  C229  1  0.20555207  0.29304043  0.76750530  1  0.594527  0  0.026728  -0.086339  0  3.890208  0
C  C230  1  0.70554279  0.20696322  0.76751389  1  0.594385  0  0.026655  -0.086237  0  3.889452  0
C  C231  1  0.79448032  0.70695342  0.23248797  1  0.593708  0  0.026784  -0.086367  0  3.890014  0
C  C232  1  0.46072924  0.92215062  0.44898514  1  0.403286  0  0.08358  0.291501  0  4.058325  0
C  C233  1  0.03925313  0.42215125  0.55101316  1  0.403491  0  0.083482  0.291308  0  4.058499  0
C  C234  1  0.53925908  0.07785619  0.55101875  1  0.405614  0  0.083548  0.291356  0  4.058403  0
C  C235  1  0.96073509  0.57784596  0.44898262  1  0.400407  0  0.083644  0.291689  0  4.058107  0
C  C236  1  0.37487493  0.97744299  0.44730784  1  0.061561  0  -0.103672  -0.307438  0  3.967585  0
C  C237  1  0.12510277  0.47744176  0.55268801  1  0.060964  0  -0.103724  -0.307445  0  3.967708  0
C  C238  1  0.62512223  0.02256670  0.55269504  1  0.059353  0  -0.103629  -0.307278  0  3.967701  0
C  C239  1  0.87486446  0.52256264  0.44730820  1  0.064824  0  -0.103755  -0.307653  0  3.967694  0
C  C240  1  0.34197074  0.00884114  0.40390581  1  0.411447  0  0.088376  0.303415  0  4.034087  0
C  C241  1  0.15801929  0.50884325  0.59608616  1  0.410837  0  0.088439  0.303415  0  4.03432  0
C  C242  1  0.65801752  0.99115943  0.59609314  1  0.411323  0  0.088359  0.303267  0  4.034136  0
C  C243  1  0.84197888  0.49115396  0.40391043  1  0.410797  0  0.088513  0.303558  0  4.034059  0
C  C244  1  0.39249840  0.98680734  0.36298699  1  0.030459  0  -0.095006  -0.289339  0  3.921187  0
C  C245  1  0.10749675  0.48681556  0.63700831  1  0.030637  0  -0.095013  -0.289481  0  3.921282  0
C  C246  1  0.60748105  0.01318651  0.63701401  1  0.031426  0  -0.095067  -0.289466  0  3.921094  0
C  C247  1  0.89251471  0.51318022  0.36298962  1  0.031101  0  -0.095177  -0.289723  0  3.921503  0
C  C248  1  0.47967150  0.93186863  0.36665768  1  0.398819  0  0.090163  0.302029  0  4.036204  0
C  C249  1  0.02031619  0.43188061  0.63334268  1  0.398588  0  0.090034  0.301739  0  4.036518  0
C  C250  1  0.52029805  0.06812474  0.63334674  1  0.397589  0  0.090054  0.301879  0  4.036249  0
C  C251  1  0.97970188  0.56810989  0.36665450  1  0.398616  0  0.090215  0.30196  0  4.036461  0
C  C252  1  0.51605387  0.89862375  0.40936474  1  0.038888  0  -0.101505  -0.297648  0  3.944216  0
C  C253  1  0.98392374  0.39862924  0.59063756  1  0.039416  0  -0.10146  -0.297533  0  3.944002  0
C  C254  1  0.48392344  0.10137490  0.59064215  1  0.038633  0  -0.101444  -0.297678  0  3.944091  0
C  C255  1  0.01607553  0.60136510  0.40935873  1  0.03927  0  -0.101512  -0.297705  0  3.943936  0
C  C256  1  0.04326109  0.80027917  0.40858253  1  0.375601  0  0.086419  0.300004  0  4.046206  0
C  C257  1  0.45673090  0.30028192  0.59141957  1  0.375669  0  0.086482  0.300203  0  4.046061  0
C  C258  1  0.95672838  0.19972284  0.59142422  1  0.375732  0  0.086471  0.300273  0  4.046  0
C  C259  1  0.54328274  0.69972009  0.40857634  1  0.376362  0  0.086551  0.300179  0  4.045919  0
C  C260  1  0.95741684  0.85573173  0.40512157  1  0.097386  0  -0.10339  -0.31446  0  3.959557  0
C  C261  1  0.54258058  0.35573367  0.59488007  1  0.097252  0  -0.103398  -0.314578  0  3.959347  0
C  C262  1  0.04257701  0.14427028  0.59488222  1  0.09684  0  -0.103387  -0.314551  0  3.959452  0
C  C263  1  0.45742974  0.64426642  0.40511569  1  0.097078  0  -0.103413  -0.314555  0  3.959363  0
C  C264  1  0.92973679  0.88671505  0.36118398  1  0.371397  0  0.09237  0.307884  0  4.03966  0
C  C265  1  0.57025773  0.38671243  0.63882153  1  0.371616  0  0.092445  0.308054  0  4.039444  0
C  C266  1  0.07025048  0.11328600  0.63882373  1  0.372114  0  0.092382  0.308011  0  4.039386  0
C  C267  1  0.42975479  0.61328718  0.36117327  1  0.372091  0  0.092418  0.308093  0  4.039333  0
C  C268  1  0.98209291  0.86299720  0.32101432  1  0.065924  0  -0.09427  -0.290451  0  3.900616  0
C  C269  1  0.51789553  0.36299422  0.67898975  1  0.065155  0  -0.09436  -0.290608  0  3.900532  0
C  C270  1  0.01787442  0.13699713  0.67898999  1  0.065996  0  -0.094176  -0.290506  0  3.90067  0
C  C271  1  0.48213914  0.63699339  0.32100926  1  0.065989  0  -0.094241  -0.290563  0  3.900633  0
C  C272  1  0.06853580  0.80773131  0.32649173  1  0.373504  0  0.091182  0.304745  0  4.033166  0
C  C273  1  0.43145487  0.30772528  0.67350789  1  0.374309  0  0.091287  0.304928  0  4.03304  0
C  C274  1  0.93144145  0.19226830  0.67351023  1  0.373702  0  0.091279  0.305135  0  4.032944  0
C  C275  1  0.56857536  0.69226329  0.32648950  1  0.373738  0  0.091213  0.304852  0  4.033004  0
C  C276  1  0.10063187  0.77542408  0.36970282  1  0.103326  0  -0.100069  -0.299051  0  3.940116  0
C  C277  1  0.39936510  0.27542552  0.63029625  1  0.102819  0  -0.100117  -0.299097  0  3.940415  0
C  C278  1  0.89935093  0.22457218  0.63030081  1  0.103058  0  -0.100078  -0.299162  0  3.940636  0
C  C279  1  0.60066291  0.72456834  0.36970069  1  0.10267  0  -0.099995  -0.298911  0  3.94051  0
C  C280  1  0.38703784  0.85068218  0.50508231  1  1.047685  0  0.222734  0.385178  0  4.088255  0
C  C281  1  0.11296293  0.35068293  0.49492324  1  1.047862  0  0.222712  0.385413  0  4.088138  0
C  C282  1  0.61295489  0.14931887  0.49492037  1  1.048114  0  0.222591  0.385233  0  4.088248  0
C  C283  1  0.88705630  0.64931620  0.50507822  1  1.048015  0  0.222598  0.385247  0  4.088733  0
C  C284  1  0.39992648  0.83065773  0.55258585  1  0.555446  0  0.02204  -0.113225  0  3.943052  0
C  C285  1  0.10009244  0.33066438  0.44741870  1  0.556219  0  0.02195  -0.113487  0  3.942758  0
C  C286  1  0.60008281  0.16933325  0.44741549  1  0.5561  0  0.022056  -0.113344  0  3.942996  0
C  C287  1  0.89992900  0.66933235  0.55258215  1  0.556092  0  0.021919  -0.113512  0  3.942894  0
C  C288  1  0.19470033  0.76633041  0.53201194  1  0.579244  0  0.020183  -0.110144  0  3.936279  0
C  C289  1  0.30530684  0.26633142  0.46799003  1  0.579314  0  0.020283  -0.109989  0  3.936098  0
C  C290  1  0.80529901  0.23366680  0.46798929  1  0.579344  0  0.02026  -0.10995  0  3.936191  0
C  C291  1  0.69472006  0.73367011  0.53200580  1  0.57952  0  0.020426  -0.109781  0  3.936189  0
C  C292  1  0.18296213  0.78977908  0.48528648  1  1.047213  0  0.221239  0.382718  0  4.086984  0
C  C293  1  0.31704782  0.28977802  0.51471783  1  1.046445  0  0.221121  0.38269  0  4.086994  0
C  C294  1  0.81703614  0.21022006  0.51471716  1  1.046465  0  0.221091  0.382613  0  4.086765  0
C  C295  1  0.68298131  0.71022063  0.48528057  1  1.046205  0  0.221132  0.38263  0  4.086929  0
N  N296  1  0.55523427  0.20715044  0.92449123  1  -1.171619  0  -0.332534  -0.124397  0  3.68869  0
N  N297  1  0.94476674  0.70713713  0.07551065  1  -1.171361  0  -0.332371  -0.124202  0  3.688593  0
N  N298  1  0.44476511  0.79285733  0.07551247  1  -1.17134  0  -0.33245  -0.124433  0  3.688527  0
N  N299  1  0.05523919  0.29286488  0.92448737  1  -1.171063  0  -0.332394  -0.124218  0  3.68843  0
N  N300  1  0.67987548  0.16706680  0.01433195  1  -1.231615  0  -0.316652  -0.412083  0  3.34171  0
N  N301  1  0.82014406  0.66706997  0.98566111  1  -1.232821  0  -0.316512  -0.411918  0  3.341907  0
N  N302  1  0.32012935  0.83292945  0.98566672  1  -1.232083  0  -0.316609  -0.412066  0  3.341927  0
N  N303  1  0.17985746  0.33293156  0.01433775  1  -1.233039  0  -0.316553  -0.41198  0  3.341972  0
N  N304  1  0.78620480  0.15124228  0.18291057  1  -1.255471  0  -0.319606  -0.418471  0  3.328935  0
N  N305  1  0.71378198  0.65123495  0.81708337  1  -1.255339  0  -0.319736  -0.418511  0  3.329267  0
N  N306  1  0.21379010  0.84876645  0.81708905  1  -1.255464  0  -0.319602  -0.418226  0  3.329107  0
N  N307  1  0.28621736  0.34876850  0.18291786  1  -1.25513  0  -0.319745  -0.418561  0  3.32915  0
N  N308  1  0.74388616  0.19135295  0.27313950  1  -1.165693  0  -0.307819  -0.118919  0  3.579519  0
N  N309  1  0.75611848  0.69135233  0.72685720  1  -1.165279  0  -0.307853  -0.11913  0  3.579417  0
N  N310  1  0.25613868  0.80863658  0.72686820  1  -1.166545  0  -0.307897  -0.119106  0  3.579484  0
N  N311  1  0.24387198  0.30863913  0.27314080  1  -1.165846  0  -0.307822  -0.119009  0  3.579336  0
N  N312  1  0.21373590  0.90779880  0.08136057  1  -1.165128  0  -0.303012  -0.177241  0  3.4396  0
N  N313  1  0.28628227  0.40780036  0.91864427  1  -1.165114  0  -0.303064  -0.177242  0  3.439749  0
N  N314  1  0.78627447  0.09221136  0.91863836  1  -1.165031  0  -0.303166  -0.177382  0  3.439549  0
N  N315  1  0.71370812  0.59219493  0.08134809  1  -1.165447  0  -0.303012  -0.177172  0  3.439876  0
N  N316  1  0.01630971  0.00813570  0.08596767  1  -1.217913  0  -0.321432  -0.415163  0  3.33135  0
N  N317  1  0.48369925  0.50813362  0.91403328  1  -1.217989  0  -0.321421  -0.415251  0  3.331537  0
N  N318  1  0.98370181  0.99187927  0.91403589  1  -1.217698  0  -0.321514  -0.41511  0  3.331832  0
N  N319  1  0.51628785  0.49186408  0.08596069  1  -1.217959  0  -0.321402  -0.415208  0  3.33144  0
N  N320  1  0.87857906  0.11203719  0.37257663  1  -1.20119  0  -0.308751  -0.145762  0  3.5684  0
N  N321  1  0.62141079  0.61202871  0.62741059  1  -1.20146  0  -0.308669  -0.14571  0  3.568747  0
N  N322  1  0.12141805  0.88796674  0.62742309  1  -1.201057  0  -0.308744  -0.145792  0  3.568269  0
N  N323  1  0.37858508  0.38796610  0.37257886  1  -1.200935  0  -0.308764  -0.14571  0  3.568392  0
N  N324  1  0.05218536  0.00262434  0.37945409  1  -1.233033  0  -0.321558  -0.419311  0  3.329698  0
N  N325  1  0.44779608  0.50261995  0.62054485  1  -1.233264  0  -0.321638  -0.419298  0  3.329478  0
N  N326  1  0.94780402  0.99737671  0.62054632  1  -1.233792  0  -0.321518  -0.419257  0  3.329607  0
N  N327  1  0.55219992  0.49737535  0.37945376  1  -1.233666  0  -0.321534  -0.419242  0  3.329497  0
N  N328  1  0.32743074  0.84852936  0.30706189  1  -1.257239  0  -0.316628  -0.41374  0  3.328001  0
N  N329  1  0.17256665  0.34853389  0.69293505  1  -1.257276  0  -0.316684  -0.413771  0  3.327546  0
N  N330  1  0.67256314  0.15146641  0.69294402  1  -1.257756  0  -0.316654  -0.413926  0  3.327929  0
N  N331  1  0.82746025  0.65146572  0.30706113  1  -1.257305  0  -0.316588  -0.413841  0  3.32811  0
N  N332  1  0.41984530  0.81821521  0.22128347  1  -1.175452  0  -0.328527  -0.112698  0  3.684244  0
N  N333  1  0.08014840  0.31822236  0.77871386  1  -1.175691  0  -0.32855  -0.112654  0  3.68423  0
N  N334  1  0.58014748  0.18177817  0.77872308  1  -1.175333  0  -0.328418  -0.112589  0  3.684048  0
N  N335  1  0.91987515  0.68176286  0.22127970  1  -1.175006  0  -0.328377  -0.112578  0  3.683876  0
N  N336  1  0.30306292  0.78798304  0.56521975  1  -1.184176  0  -0.312688  -0.12552  0  3.588354  0
N  N337  1  0.19695144  0.28798766  0.43478053  1  -1.184201  0  -0.312598  -0.125402  0  3.587818  0
N  N338  1  0.69694305  0.21200746  0.43478143  1  -1.184474  0  -0.312675  -0.125524  0  3.588295  0
N  N339  1  0.80306885  0.71201291  0.56521675  1  -1.184438  0  -0.312684  -0.12556  0  3.58775  0
N  N340  1  0.27805639  0.83153005  0.47178714  1  -1.217779  0  -0.316148  -0.406792  0  3.329797  0
N  N341  1  0.22193708  0.33152335  0.52821693  1  -1.217542  0  -0.316088  -0.406867  0  3.329724  0
N  N342  1  0.72192862  0.16847627  0.52821694  1  -1.217847  0  -0.315999  -0.406764  0  3.329509  0
N  N343  1  0.77808434  0.66847290  0.47178322  1  -1.217435  0  -0.315991  -0.406743  0  3.329834  0
N  N344  1  0.14979585  0.15639727  0.82347287  1  0.789666  0  0.087892  0.717453  0  4.424438  0
N  N345  1  0.35021504  0.65638961  0.17652670  1  0.789994  0  0.087998  0.717426  0  4.424458  0
N  N346  1  0.85020126  0.84360714  0.17652685  1  0.789913  0  0.087812  0.717313  0  4.424531  0
N  N347  1  0.64979753  0.34361240  0.82347269  1  0.789097  0  0.087901  0.717428  0  4.424719  0
N  N348  1  0.37250711  0.15972335  0.32998682  1  0.81772  0  0.08479  0.70971  0  4.428714  0
N  N349  1  0.12745724  0.65972816  0.67000917  1  0.820805  0  0.084701  0.709403  0  4.428499  0
N  N350  1  0.62745458  0.84027050  0.67000842  1  0.820878  0  0.084644  0.70933  0  4.428346  0
N  N351  1  0.87251557  0.34027481  0.32999153  1  0.82076  0  0.08457  0.70931  0  4.429324  0
O  O352  1  0.48600773  0.09609075  0.01489946  1  -1.089064  0  -0.14308  -0.231106  0  2.537559  0
O  O353  1  0.01402105  0.59609446  0.98508977  1  -1.088752  0  -0.143277  -0.23126  0  2.537817  0
O  O354  1  0.51401024  0.90390502  0.98508997  1  -1.088687  0  -0.143232  -0.231246  0  2.538048  0
O  O355  1  0.98598714  0.40390323  0.01491223  1  -1.088666  0  -0.143226  -0.231203  0  2.537874  0
O  O356  1  0.87174352  0.23911101  0.01268719  1  -1.093186  0  -0.14389  -0.235674  0  2.534167  0
O  O357  1  0.62826111  0.73910410  0.98731288  1  -1.093155  0  -0.143889  -0.23586  0  2.53406  0
O  O358  1  0.12826032  0.76090012  0.98732024  1  -1.093347  0  -0.143788  -0.235745  0  2.534234  0
O  O359  1  0.37172385  0.26088975  0.01268697  1  -1.09279  0  -0.143866  -0.235918  0  2.534309  0
O  O360  1  0.97254826  0.22724095  0.18375505  1  -1.086558  0  -0.145787  -0.236368  0  2.50546  0
O  O361  1  0.52744556  0.72723981  0.81624095  1  -1.086557  0  -0.145754  -0.236311  0  2.505523  0
O  O362  1  0.02745443  0.77276106  0.81624881  1  -1.086442  0  -0.145845  -0.236342  0  2.505511  0
O  O363  1  0.47254376  0.27276028  0.18375488  1  -1.086503  0  -0.145753  -0.236346  0  2.505772  0
O  O364  1  0.59925471  0.07585975  0.18486640  1  -1.092201  0  -0.145509  -0.227098  0  2.493679  0
O  O365  1  0.90071500  0.57584140  0.81511972  1  -1.091309  0  -0.145358  -0.226857  0  2.493777  0
O  O366  1  0.40070137  0.92416193  0.81512224  1  -1.091831  0  -0.145412  -0.226921  0  2.493815  0
O  O367  1  0.09927439  0.42415821  0.18488104  1  -1.091406  0  -0.145306  -0.226655  0  2.49364  0
O  O368  1  0.82602967  0.93390546  0.08352914  1  -1.099773  0  -0.145391  -0.230178  0  2.522441  0
O  O369  1  0.67398691  0.43390516  0.91647619  1  -1.09938  0  -0.145373  -0.230159  0  2.52209  0
O  O370  1  0.17398530  0.06610327  0.91648479  1  -1.099696  0  -0.145268  -0.230169  0  2.522565  0
O  O371  1  0.32601576  0.56609062  0.08352625  1  -1.099361  0  -0.145303  -0.230166  0  2.522491  0
O  O372  1  0.21071029  0.08054460  0.08830407  1  -1.099044  0  -0.146075  -0.237146  0  2.544055  0
O  O373  1  0.28930017  0.58054489  0.91169198  1  -1.09896  0  -0.146047  -0.237162  0  2.544013  0
O  O374  1  0.78930787  0.91946557  0.91169980  1  -1.098868  0  -0.145824  -0.23688  0  2.543935  0
O  O375  1  0.71070240  0.41945520  0.08830306  1  -1.099047  0  -0.146002  -0.237002  0  2.543854  0
O  O376  1  0.25949733  0.06580193  0.40220335  1  -1.092942  0  -0.142662  -0.22735  0  2.52128  0
O  O377  1  0.24048469  0.56579981  0.59778744  1  -1.092282  0  -0.142706  -0.227202  0  2.521158  0
O  O378  1  0.74049415  0.93420343  0.59778801  1  -1.092322  0  -0.142666  -0.227249  0  2.52119  0
O  O379  1  0.75950467  0.43420124  0.40221086  1  -1.092833  0  -0.142688  -0.227195  0  2.521403  0
O  O380  1  0.84052633  0.94152564  0.35685225  1  -1.086938  0  -0.142361  -0.229002  0  2.557864  0
O  O381  1  0.65946132  0.44152597  0.64315177  1  -1.086802  0  -0.142372  -0.229024  0  2.557726  0
O  O382  1  0.15945870  0.05847349  0.64315289  1  -1.086901  0  -0.142431  -0.229013  0  2.557716  0
O  O383  1  0.34055016  0.55847796  0.35684827  1  -1.087108  0  -0.142479  -0.229021  0  2.557734  0
O  O384  1  0.12288784  0.78281624  0.28668469  1  -1.090188  0  -0.139267  -0.229366  0  2.541287  0
O  O385  1  0.37709123  0.28281321  0.71331181  1  -1.090513  0  -0.139335  -0.229364  0  2.541361  0
O  O386  1  0.87708166  0.21718241  0.71331656  1  -1.090522  0  -0.139355  -0.229623  0  2.541588  0
O  O387  1  0.62294562  0.71717872  0.28668518  1  -1.090442  0  -0.139599  -0.229942  0  2.541737  0
O  O388  1  0.53747140  0.91118438  0.32619970  1  -1.087235  0  -0.141069  -0.227339  0  2.543045  0
O  O389  1  0.96252140  0.41119979  0.67380372  1  -1.087335  0  -0.141092  -0.227143  0  2.542789  0
O  O390  1  0.46251259  0.08880083  0.67381032  1  -1.08841  0  -0.141127  -0.227167  0  2.542797  0
O  O391  1  0.03750005  0.58879550  0.32619819  1  -1.088356  0  -0.141148  -0.227075  0  2.543076  0
O  O392  1  0.49400978  0.89034627  0.49286990  1  -1.094605  0  -0.147133  -0.236487  0  2.527297  0
O  O393  1  0.00598228  0.39033805  0.50713435  1  -1.095128  0  -0.147073  -0.236492  0  2.527452  0
O  O394  1  0.50598521  0.10966198  0.50713605  1  -1.095002  0  -0.147099  -0.236411  0  2.527336  0
O  O395  1  0.99401813  0.60965772  0.49286446  1  -1.095575  0  -0.147094  -0.236512  0  2.5275  0
O  O396  1  0.06898917  0.76785295  0.45247472  1  -1.085198  0  -0.148172  -0.236941  0  2.512208  0
O  O397  1  0.43104335  0.26785353  0.54752492  1  -1.084823  0  -0.148186  -0.23709  0  2.512196  0
O  O398  1  0.93102014  0.23214858  0.54752803  1  -1.084673  0  -0.148195  -0.237126  0  2.511775  0
O  O399  1  0.56899349  0.73214896  0.45247102  1  -1.085191  0  -0.148309  -0.237125  0  2.511728  0
O  O400  1  0.19655087  0.11716690  0.79534175  1  -0.539533  0  -0.19685  -0.458469  0  1.941225  0
O  O401  1  0.30345105  0.61716594  0.20466004  1  -0.53967  0  -0.196847  -0.458422  0  1.941232  0
O  O402  1  0.80343740  0.88283367  0.20465825  1  -0.539677  0  -0.196854  -0.458399  0  1.941194  0
O  O403  1  0.69655155  0.38283559  0.79533712  1  -0.53939  0  -0.196957  -0.458561  0  1.941228  0
O  O404  1  0.01299019  0.16413519  0.82391517  1  -0.522622  0  -0.203561  -0.458712  0  1.983799  0
O  O405  1  0.48702162  0.66412157  0.17608446  1  -0.522847  0  -0.203606  -0.458664  0  1.983969  0
O  O406  1  0.98700800  0.83587641  0.17608283  1  -0.522538  0  -0.20351  -0.458707  0  1.983919  0
O  O407  1  0.51299095  0.33587228  0.82391457  1  -0.522607  0  -0.203501  -0.458591  0  1.983746  0
O  O408  1  0.24210640  0.19004089  0.85219933  1  -0.581914  0  -0.223082  -0.501745  0  2.10307  0
O  O409  1  0.25791137  0.69003200  0.14779682  1  -0.581934  0  -0.22313  -0.501801  0  2.10297  0
O  O410  1  0.75789735  0.80995872  0.14780105  1  -0.5821  0  -0.223048  -0.501738  0  2.103032  0
O  O411  1  0.74211229  0.30997961  0.85220519  1  -0.581495  0  -0.223031  -0.501718  0  2.103352  0
O  O412  1  0.23690024  0.15824521  0.31437555  1  -0.526324  0  -0.201185  -0.451166  0  1.935859  0
O  O413  1  0.26306636  0.65823220  0.68562054  1  -0.52604  0  -0.201208  -0.451092  0  1.935764  0
O  O414  1  0.76305820  0.84176976  0.68562412  1  -0.526037  0  -0.201173  -0.451048  0  1.935681  0
O  O415  1  0.73690969  0.34176693  0.31437432  1  -0.526684  0  -0.201236  -0.451123  0  1.935782  0
O  O416  1  0.42942054  0.20993482  0.35244336  1  -0.570782  0  -0.215549  -0.47437  0  2.10849  0
O  O417  1  0.07056261  0.70994979  0.64756147  1  -0.571739  0  -0.215611  -0.474321  0  2.107913  0
O  O418  1  0.57057550  0.79004800  0.64755877  1  -0.571844  0  -0.215572  -0.474277  0  2.107932  0
O  O419  1  0.92940256  0.29005990  0.35244626  1  -0.571198  0  -0.215366  -0.47415  0  2.108529  0
O  O420  1  0.45731007  0.11327844  0.32425059  1  -0.566806  0  -0.197121  -0.466352  0  2.012198  0
O  O421  1  0.04262317  0.61329043  0.67573072  1  -0.569201  0  -0.196963  -0.466166  0  2.012477  0
O  O422  1  0.54261830  0.88670774  0.67573112  1  -0.569278  0  -0.19699  -0.466173  0  2.012317  0
O  O423  1  0.95735401  0.38670918  0.32426631  1  -0.56897  0  -0.197035  -0.466197  0  2.012486  0
