# generated using pymatgen
data_Zn3H34C54(NO3)4
_symmetry_space_group_name_H-M   'P 1'
_cell_length_a   13.82114334
_cell_length_b   24.77923385
_cell_length_c   26.47501207
_cell_angle_alpha   113.19019257
_cell_angle_beta   90.00346396
_cell_angle_gamma   106.20000252
_symmetry_Int_Tables_number   1
_chemical_formula_structural   Zn3H34C54(NO3)4
_chemical_formula_sum   'Zn12 H136 C216 N16 O48'
_cell_volume   7941.26294797
_cell_formula_units_Z   4
loop_
 _symmetry_equiv_pos_site_id
 _symmetry_equiv_pos_as_xyz
  1  'x, y, z'
loop_
 _atom_site_type_symbol
 _atom_site_label
 _atom_site_symmetry_multiplicity
 _atom_site_fract_x
 _atom_site_fract_y
 _atom_site_fract_z
 _atom_site_occupancy
 _atom_site_pbe_bader_charge
 _atom_site_pbe_bader_spin_density
 _atom_site_pbe_cm5_charge
 _atom_site_pbe_ddec_charge
 _atom_site_pbe_ddec_spin_density
 _atom_site_pbe_ddec_sum_bond_order
 _atom_site_pbe_magmom
Zn  Zn0  1  0.11059933  0.70969879  0.45252818  1  1.431763  0  0.698807  1.047305  0  2.232955  0
Zn  Zn1  1  0.40092854  0.29039769  0.04749939  1  1.432997  0  0.699084  1.047327  0  2.234873  0
Zn  Zn2  1  0.88939881  0.29030368  0.54747328  1  1.431812  0  0.698754  1.047183  0  2.233053  0
Zn  Zn3  1  0.59907071  0.70959833  0.95249965  1  1.43297  0  0.699049  1.047272  0  2.234939  0
Zn  Zn4  1  0.03958107  0.55842507  0.39238093  1  1.28884  0  0.685399  0.826689  0  2.381338  0
Zn  Zn5  1  0.48117157  0.44152048  0.10761755  1  1.288508  0  0.685508  0.827129  0  2.380007  0
Zn  Zn6  1  0.96041764  0.44157276  0.60762332  1  1.289021  0  0.6854  0.826649  0  2.381442  0
Zn  Zn7  1  0.51883333  0.55848104  0.89238545  1  1.288353  0  0.685476  0.827094  0  2.379936  0
Zn  Zn8  1  0.17367030  0.86778772  0.51642978  1  1.298422  0  0.682229  0.843192  0  2.349498  0
Zn  Zn9  1  0.30603728  0.13223246  0.98355493  1  1.299096  0  0.682132  0.842762  0  2.351958  0
Zn  Zn10  1  0.82632699  0.13221016  0.48356732  1  1.298391  0  0.682277  0.843352  0  2.349361  0
Zn  Zn11  1  0.69395932  0.86776406  0.01643977  1  1.299062  0  0.682094  0.842663  0  2.351914  0
H  H12  1  0.92831288  0.71704279  0.57187388  1  0.094559  0  0.106677  0.114347  0  0.991839  0
H  H13  1  0.21098336  0.28299611  0.92806810  1  0.11489  0  0.106791  0.114601  0  0.990975  0
H  H14  1  0.07168792  0.28295922  0.42812703  1  0.094657  0  0.106649  0.114294  0  0.991906  0
H  H15  1  0.78901703  0.71700217  0.07193633  1  0.115058  0  0.106822  0.114587  0  0.991087  0
H  H16  1  0.84649949  0.72074055  0.65572803  1  0.046872  0  0.100842  0.099774  0  1.014154  0
H  H17  1  0.12557270  0.27940287  0.84423832  1  0.064425  0  0.100651  0.099506  0  1.014554  0
H  H18  1  0.15349928  0.27926607  0.34427346  1  0.047069  0  0.100901  0.099863  0  1.014219  0
H  H19  1  0.87442284  0.72059587  0.15576703  1  0.064359  0  0.10068  0.099555  0  1.014568  0
H  H20  1  0.77669849  0.52295087  0.59538823  1  0.070236  0  0.102152  0.105663  0  1.0207  0
H  H21  1  0.25382984  0.47718974  0.90468375  1  0.069619  0  0.101804  0.105985  0  1.020793  0
H  H22  1  0.22328819  0.47705619  0.40461721  1  0.070173  0  0.102171  0.10567  0  1.020617  0
H  H23  1  0.74617898  0.52280948  0.09531914  1  0.069465  0  0.101803  0.106001  0  1.020739  0
H  H24  1  0.85681582  0.52079941  0.51204389  1  0.07511  0  0.104266  0.106955  0  1.001857  0
H  H25  1  0.33608650  0.47923184  0.98800259  1  0.102191  0  0.103225  0.106611  0  1.002849  0
H  H26  1  0.14317509  0.47920162  0.48796270  1  0.075278  0  0.104266  0.106968  0  1.001771  0
H  H27  1  0.66392113  0.52076644  0.01200108  1  0.101838  0  0.103259  0.10666  0  1.0028  0
H  H28  1  0.81277587  0.72336397  0.72886296  1  0.064123  0  0.098979  0.097374  0  1.017424  0
H  H29  1  0.08963078  0.27678704  0.77114518  1  0.042324  0  0.09856  0.096043  0  1.019032  0
H  H30  1  0.18720744  0.27664357  0.27113926  1  0.064082  0  0.09891  0.097328  0  1.017508  0
H  H31  1  0.91037026  0.72321400  0.22886103  1  0.042116  0  0.098596  0.096047  0  1.018886  0
H  H32  1  0.73852252  0.72431973  0.81393484  1  0.096955  0  0.107213  0.115546  0  0.988813  0
H  H33  1  0.01457922  0.27577421  0.68600618  1  0.110698  0  0.107449  0.116047  0  0.988559  0
H  H34  1  0.26147144  0.27568595  0.18607008  1  0.095773  0  0.107255  0.115634  0  0.98883  0
H  H35  1  0.98541823  0.72422544  0.31400026  1  0.110587  0  0.107391  0.115992  0  0.98866  0
H  H36  1  0.63067607  0.52682490  0.74130255  1  0.06622  0  0.101269  0.104415  0  1.010346  0
H  H37  1  0.10386518  0.47325785  0.75866044  1  0.065141  0  0.101718  0.105189  0  1.01048  0
H  H38  1  0.36932878  0.47317940  0.25870035  1  0.066075  0  0.101246  0.10438  0  1.010351  0
H  H39  1  0.89613804  0.52674320  0.24134502  1  0.065474  0  0.101738  0.105189  0  1.010659  0
H  H40  1  0.70090198  0.52404429  0.65555769  1  0.071351  0  0.099261  0.101683  0  1.037138  0
H  H41  1  0.17670051  0.47608908  0.84449257  1  0.081106  0  0.099322  0.10197  0  1.036964  0
H  H42  1  0.29909265  0.47596417  0.34444450  1  0.071107  0  0.099254  0.101702  0  1.03722  0
H  H43  1  0.82330103  0.52391151  0.15551271  1  0.080759  0  0.09935  0.101918  0  1.037034  0
H  H44  1  0.33236776  0.70996408  0.48971680  1  0.103411  0  0.105474  0.115703  0  1.017855  0
H  H45  1  0.62216581  0.28971937  0.01038347  1  0.116119  0  0.105644  0.114642  0  1.018706  0
H  H46  1  0.66763489  0.29004017  0.51029288  1  0.103496  0  0.105549  0.115779  0  1.017794  0
H  H47  1  0.37783451  0.71028312  0.98961497  1  0.116242  0  0.105656  0.114677  0  1.018703  0
H  H48  1  0.51864272  0.76144401  0.51036149  1  0.058994  0  0.100662  0.100795  0  1.004279  0
H  H49  1  0.75675749  0.23814528  0.98976918  1  0.060074  0  0.101176  0.100814  0  1.00476  0
H  H50  1  0.48136096  0.23855797  0.48964281  1  0.059166  0  0.100675  0.100836  0  1.004272  0
H  H51  1  0.24324023  0.76185491  0.01022765  1  0.060134  0  0.101186  0.100831  0  1.004812  0
H  H52  1  0.55796910  0.63932568  0.34786278  1  0.058806  0  0.098291  0.094869  0  1.027036  0
H  H53  1  0.91878441  0.36059023  0.15207952  1  0.06469  0  0.098056  0.094611  0  1.026737  0
H  H54  1  0.44202118  0.36067121  0.65214151  1  0.058971  0  0.098264  0.094881  0  1.027041  0
H  H55  1  0.08121676  0.63940673  0.84791723  1  0.064759  0  0.098063  0.094635  0  1.026721  0
H  H56  1  0.37178419  0.58573532  0.32933854  1  0.083915  0  0.105678  0.11016  0  1.002423  0
H  H57  1  0.78623347  0.41416266  0.17063248  1  0.091405  0  0.106299  0.111266  0  1.000983  0
H  H58  1  0.62820680  0.41426153  0.67067177  1  0.085043  0  0.10567  0.110178  0  1.002516  0
H  H59  1  0.21377055  0.58583566  0.82936705  1  0.091349  0  0.106294  0.111261  0  1.000986  0
H  H60  1  0.65381502  0.82342611  0.49626535  1  0.050083  0  0.097259  0.091977  0  1.021745  0
H  H61  1  0.83065970  0.17635176  0.00370364  1  0.047122  0  0.096392  0.091897  0  1.021665  0
H  H62  1  0.34618075  0.17657451  0.50373466  1  0.050192  0  0.097278  0.09201  0  1.021688  0
H  H63  1  0.16933468  0.82364753  0.99629058  1  0.047183  0  0.096408  0.091945  0  1.021696  0
H  H64  1  0.84170280  0.87130627  0.52000715  1  0.111493  0  0.103599  0.108046  0  1.001026  0
H  H65  1  0.97088628  0.12868007  0.98010097  1  0.111136  0  0.103612  0.108886  0  1.00037  0
H  H66  1  0.15829224  0.12869435  0.47999399  1  0.111421  0  0.10361  0.108114  0  1.000997  0
H  H67  1  0.02911074  0.87132162  0.01988169  1  0.111611  0  0.103669  0.108907  0  1.000378  0
H  H68  1  0.88583454  0.69784306  0.41869875  1  0.124383  0  0.106615  0.116448  0  1.019211  0
H  H69  1  0.18818078  0.30237345  0.08124389  1  0.117747  0  0.107435  0.118379  0  1.019939  0
H  H70  1  0.11416170  0.30215707  0.58130561  1  0.124329  0  0.106575  0.116432  0  1.01916  0
H  H71  1  0.81181947  0.69762455  0.91873890  1  0.117575  0  0.10753  0.118503  0  1.019934  0
H  H72  1  0.69926334  0.64934320  0.39490390  1  0.050038  0  0.104114  0.105094  0  0.997817  0
H  H73  1  0.04991432  0.35064503  0.10498379  1  0.083944  0  0.104046  0.105091  0  0.998351  0
H  H74  1  0.30073265  0.35065787  0.60509854  1  0.050009  0  0.104128  0.105125  0  0.997757  0
H  H75  1  0.95008684  0.64935335  0.89500896  1  0.083953  0  0.104044  0.105082  0  0.998326  0
H  H76  1  0.34277660  0.90229335  0.39233016  1  0.069808  0  0.100452  0.102591  0  1.010708  0
H  H77  1  0.44107593  0.09775514  0.10744199  1  0.087582  0  0.100637  0.102428  0  1.010516  0
H  H78  1  0.65723165  0.09771054  0.60766692  1  0.06973  0  0.100437  0.102643  0  1.010652  0
H  H79  1  0.55892273  0.90223535  0.89255423  1  0.087483  0  0.100637  0.102448  0  1.010613  0
H  H80  1  0.42304532  0.89924686  0.30752779  1  0.052253  0  0.099222  0.099932  0  1.005846  0
H  H81  1  0.52444662  0.10078048  0.19223599  1  0.051578  0  0.098505  0.098896  0  1.00686  0
H  H82  1  0.57696014  0.10075288  0.69246736  1  0.05203  0  0.099208  0.099876  0  1.005795  0
H  H83  1  0.47555023  0.89921508  0.80776326  1  0.051287  0  0.098519  0.098926  0  1.006917  0
H  H84  1  0.39441040  0.70728501  0.26038033  1  0.0519  0  0.099863  0.100554  0  1.006924  0
H  H85  1  0.68732566  0.29288945  0.23960487  1  0.053901  0  0.100099  0.099722  0  1.006916  0
H  H86  1  0.60559070  0.29271469  0.73962009  1  0.051909  0  0.099866  0.100553  0  1.006927  0
H  H87  1  0.31267244  0.70710571  0.76038668  1  0.053771  0  0.100086  0.099716  0  1.006897  0
H  H88  1  0.31169869  0.71105566  0.34476524  1  0.095886  0  0.105187  0.112166  0  1.012898  0
H  H89  1  0.60079179  0.28909313  0.15521489  1  0.10935  0  0.105498  0.11262  0  1.012829  0
H  H90  1  0.68830231  0.28894819  0.65523636  1  0.095876  0  0.105155  0.112086  0  1.012926  0
H  H91  1  0.39920453  0.71089557  0.84477424  1  0.108962  0  0.105474  0.112552  0  1.012835  0
H  H92  1  0.56412771  0.89211924  0.26432190  1  0.067442  0  0.096542  0.093901  0  1.025094  0
H  H93  1  0.67238865  0.10795120  0.23544930  1  0.068061  0  0.096724  0.094117  0  1.024983  0
H  H94  1  0.43587396  0.10787728  0.73567167  1  0.067214  0  0.096561  0.093913  0  1.025112  0
H  H95  1  0.32760963  0.89204577  0.76454557  1  0.0682  0  0.096748  0.094181  0  1.025029  0
H  H96  1  0.63394357  0.88891674  0.17683699  1  0.080998  0  0.099974  0.101802  0  1.012216  0
H  H97  1  0.74511852  0.11092437  0.32288997  1  0.082755  0  0.099599  0.101147  0  1.012033  0
H  H98  1  0.36605045  0.11107749  0.82315458  1  0.081318  0  0.099948  0.101757  0  1.012278  0
H  H99  1  0.25489135  0.88907262  0.67710227  1  0.082697  0  0.099646  0.101172  0  1.011932  0
H  H100  1  0.43483983  0.70531415  0.08849179  1  0.084971  0  0.109124  0.115858  0  0.990771  0
H  H101  1  0.72962605  0.29447991  0.41144954  1  0.084221  0  0.108547  0.11538  0  0.991333  0
H  H102  1  0.56514737  0.29468235  0.91150403  1  0.085013  0  0.109096  0.115754  0  0.990738  0
H  H103  1  0.27038839  0.70551753  0.58854475  1  0.084334  0  0.108493  0.115303  0  0.991514  0
H  H104  1  0.36073519  0.70853616  0.17519033  1  0.073266  0  0.10516  0.10822  0  0.994035  0
H  H105  1  0.65246450  0.29144430  0.32479944  1  0.066361  0  0.105517  0.108929  0  0.994935  0
H  H106  1  0.63925871  0.29146218  0.82480694  1  0.073388  0  0.105142  0.108193  0  0.994063  0
H  H107  1  0.34754674  0.70855544  0.67519722  1  0.066047  0  0.105554  0.109062  0  0.994755  0
H  H108  1  0.06629746  0.46991246  0.28593730  1  0.132836  0  0.129067  0.109491  0  0.97208  0
H  H109  1  0.59621093  0.53003257  0.21417916  1  0.128494  0  0.128515  0.108694  0  0.971703  0
H  H110  1  0.93370359  0.53008859  0.71406741  1  0.132578  0  0.129043  0.109475  0  0.972126  0
H  H111  1  0.40380649  0.46997083  0.78582113  1  0.12801  0  0.128521  0.108658  0  0.971801  0
H  H112  1  0.01384867  0.35445013  0.23194826  1  0.087658  0  0.114487  0.120403  0  1.00882  0
H  H113  1  0.65955640  0.64547097  0.26816055  1  0.120273  0  0.114432  0.120042  0  1.009201  0
H  H114  1  0.98615193  0.64555003  0.76805346  1  0.087801  0  0.114486  0.120399  0  1.008876  0
H  H115  1  0.34046343  0.35453291  0.73183728  1  0.120195  0  0.11448  0.120117  0  1.009228  0
H  H116  1  0.88912813  0.33782209  0.37660066  1  0.109695  0  0.111531  0.120165  0  1.013751  0
H  H117  1  0.55158936  0.66222413  0.12354278  1  0.100842  0  0.112261  0.120409  0  1.012863  0
H  H118  1  0.11087618  0.66217391  0.62339989  1  0.109674  0  0.111552  0.120158  0  1.013667  0
H  H119  1  0.44841487  0.33777604  0.87645631  1  0.100859  0  0.11225  0.120436  0  1.012892  0
H  H120  1  0.94150196  0.45351299  0.42316112  1  0.120993  0  0.125192  0.101813  0  0.987478  0
H  H121  1  0.48792120  0.54654329  0.07698967  1  0.091238  0  0.124892  0.101522  0  0.987232  0
H  H122  1  0.05849994  0.54648253  0.57684189  1  0.121156  0  0.125197  0.101861  0  0.987462  0
H  H123  1  0.51208206  0.45345641  0.92301112  1  0.091179  0  0.124926  0.101537  0  0.987209  0
H  H124  1  0.87613182  0.24290988  0.29390295  1  0.103747  0  0.117105  0.084848  0  1.013735  0
H  H125  1  0.63358472  0.75714442  0.20631635  1  0.105025  0  0.117205  0.085252  0  1.011994  0
H  H126  1  0.12386782  0.75708982  0.70609822  1  0.103818  0  0.117121  0.084863  0  1.01372  0
H  H127  1  0.36641243  0.24285896  0.79368658  1  0.105035  0  0.117243  0.085314  0  1.011984  0
H  H128  1  0.83593374  0.18672761  0.12441735  1  0.115071  0  0.121361  0.090783  0  0.985913  0
H  H129  1  0.64858412  0.81316254  0.37584405  1  0.11309  0  0.120849  0.090567  0  0.986485  0
H  H130  1  0.16407202  0.81326840  0.87558282  1  0.114902  0  0.121473  0.090937  0  0.985972  0
H  H131  1  0.35142337  0.18683116  0.62415602  1  0.113278  0  0.120885  0.090593  0  0.986505  0
H  H132  1  0.70959214  0.97654403  0.98801371  1  0.101541  0  0.126709  0.099738  0  0.977121  0
H  H133  1  0.73288624  0.02356770  0.51222729  1  0.104481  0  0.12628  0.099237  0  0.97794  0
H  H134  1  0.29040459  0.02345707  0.01198459  1  0.101609  0  0.126717  0.099754  0  0.977056  0
H  H135  1  0.26710794  0.97642829  0.48777476  1  0.10456  0  0.126278  0.099312  0  0.977966  0
H  H136  1  0.77518865  0.09223516  0.03646158  1  0.072167  0  0.113475  0.119535  0  1.002869  0
H  H137  1  0.68250412  0.90787003  0.46391683  1  0.067549  0  0.113283  0.119801  0  1.002143  0
H  H138  1  0.22481534  0.90776453  0.96353997  1  0.072128  0  0.113476  0.11956  0  1.002883  0
H  H139  1  0.31750205  0.09212824  0.53608910  1  0.067924  0  0.113252  0.119748  0  1.00225  0
H  H140  1  0.75611767  0.95661990  0.13305112  1  0.105834  0  0.124289  0.098253  0  0.985501  0
H  H141  1  0.79883281  0.04319495  0.36702836  1  0.094958  0  0.124274  0.097868  0  0.985944  0
H  H142  1  0.24386044  0.04337291  0.86694408  1  0.105815  0  0.124284  0.09829  0  0.985402  0
H  H143  1  0.20117391  0.95680010  0.63297561  1  0.094666  0  0.124252  0.097918  0  0.985949  0
H  H144  1  0.82321739  0.07184603  0.18823572  1  0.128175  0  0.113715  0.119223  0  1.005309  0
H  H145  1  0.75070590  0.92795228  0.31199652  1  0.082348  0  0.113787  0.119406  0  1.005614  0
H  H146  1  0.17677232  0.92814537  0.81176236  1  0.128161  0  0.113699  0.119254  0  1.005304  0
H  H147  1  0.24931262  0.07204321  0.68800988  1  0.082195  0  0.113715  0.119304  0  1.005646  0
C  C148  1  0.95451162  0.61723192  0.48853561  1  1.554192  0  0.217535  0.603912  0  4.167174  0
C  C149  1  0.33720684  0.38274098  0.01143681  1  1.552039  0  0.217301  0.604682  0  4.166335  0
C  C150  1  0.04548174  0.38276822  0.51146799  1  1.554425  0  0.217617  0.603931  0  4.167329  0
C  C151  1  0.66279882  0.61725916  0.98856718  1  1.552382  0  0.217238  0.604699  0  4.166452  0
C  C152  1  0.89851577  0.61883276  0.53697570  1  0.021986  0  -0.023604  -0.047342  0  3.992293  0
C  C153  1  0.27960164  0.38120655  0.96301992  1  -0.007128  0  -0.022693  -0.046181  0  3.989812  0
C  C154  1  0.10147946  0.38116969  0.46302689  1  0.021763  0  -0.023523  -0.047312  0  3.992179  0
C  C155  1  0.72040310  0.61879175  0.03698262  1  -0.006835  0  -0.022606  -0.04604  0  3.989421  0
C  C156  1  0.89415050  0.67488422  0.57767169  1  -0.072998  0  -0.083544  -0.08502  0  3.986695  0
C  C157  1  0.21907925  0.32518090  0.92231141  1  -0.044178  0  -0.083948  -0.085861  0  3.986439  0
C  C158  1  0.10584665  0.32511917  0.42232973  1  -0.072773  0  -0.083583  -0.085055  0  3.986615  0
C  C159  1  0.78092042  0.67481738  0.07769301  1  -0.044279  0  -0.084044  -0.08589  0  3.986346  0
C  C160  1  0.84831929  0.67638492  0.62476493  1  -0.023766  0  -0.093244  -0.137313  0  3.985168  0
C  C161  1  0.17177756  0.32373037  0.87523397  1  -0.052323  0  -0.092563  -0.137288  0  3.983927  0
C  C162  1  0.15167372  0.32362031  0.37523643  1  -0.024076  0  -0.093317  -0.137417  0  3.985036  0
C  C163  1  0.82822496  0.67626929  0.12477060  1  -0.052636  0  -0.092618  -0.137448  0  3.983656  0
C  C164  1  0.80531094  0.62215401  0.63299585  1  -0.038964  0  -0.003865  0.071617  0  3.980907  0
C  C165  1  0.18311302  0.37798362  0.86703507  1  -0.063127  0  -0.003456  0.07453  0  3.978254  0
C  C166  1  0.19467937  0.37785306  0.36700733  1  -0.039042  0  -0.003911  0.071684  0  3.980703  0
C  C167  1  0.81689217  0.62201558  0.13297045  1  -0.063444  0  -0.003347  0.075478  0  3.978172  0
C  C168  1  0.80776897  0.56602168  0.59078778  1  -0.049616  0  -0.089951  -0.128971  0  3.970037  0
C  C169  1  0.24174698  0.43409876  0.90925580  1  -0.0181  0  -0.091301  -0.131441  0  3.971968  0
C  C170  1  0.19221943  0.43398446  0.40921656  1  -0.049376  0  -0.089953  -0.128926  0  3.969724  0
C  C171  1  0.75826016  0.56590000  0.09074729  1  -0.018087  0  -0.09142  -0.131631  0  3.971798  0
C  C172  1  0.85345595  0.56437723  0.54375411  1  -0.039371  0  -0.087395  -0.092741  0  4.006199  0
C  C173  1  0.28907505  0.43568887  0.95627325  1  -0.079622  0  -0.085961  -0.092619  0  4.006219  0
C  C174  1  0.14653518  0.43562568  0.45624940  1  -0.040068  0  -0.087403  -0.092822  0  4.006067  0
C  C175  1  0.71092994  0.56430850  0.04373045  1  -0.079352  0  -0.085941  -0.092579  0  4.0059  0
C  C176  1  0.76134870  0.62367903  0.68433928  1  -0.028593  0  -0.006254  0.06712  0  3.987872  0
C  C177  1  0.13768319  0.37646430  0.81568483  1  -0.03662  0  -0.006732  0.065854  0  3.987257  0
C  C178  1  0.23864279  0.37632896  0.31566462  1  -0.028817  0  -0.006276  0.067115  0  3.987992  0
C  C179  1  0.86232128  0.62353490  0.18431957  1  -0.035939  0  -0.006786  0.063269  0  3.990456  0
C  C180  1  0.77155896  0.67969234  0.73034977  1  -0.048838  0  -0.094143  -0.135593  0  3.984618  0
C  C181  1  0.09204117  0.32044270  0.76964424  1  -0.031068  0  -0.092773  -0.132916  0  3.984943  0
C  C182  1  0.22843013  0.32031520  0.26965321  1  -0.048654  0  -0.093947  -0.135371  0  3.984452  0
C  C183  1  0.90796110  0.67955789  0.23036067  1  -0.03035  0  -0.092786  -0.132037  0  3.985296  0
C  C184  1  0.73079734  0.68083230  0.77866195  1  -0.019486  0  -0.083288  -0.086451  0  3.984251  0
C  C185  1  0.05021330  0.31927798  0.72130111  1  -0.08292  0  -0.083978  -0.088393  0  3.985288  0
C  C186  1  0.26920024  0.31917339  0.22134109  1  -0.018455  0  -0.083352  -0.086641  0  3.984203  0
C  C187  1  0.94978679  0.68072261  0.27870380  1  -0.083578  0  -0.083994  -0.088437  0  3.985063  0
C  C188  1  0.67930894  0.62568983  0.78282980  1  -0.071078  0  -0.022133  -0.041305  0  3.982368  0
C  C189  1  0.05380182  0.37440438  0.71713783  1  -0.022852  0  -0.020965  -0.039863  0  3.981336  0
C  C190  1  0.32069419  0.37431540  0.21717382  1  -0.070679  0  -0.022221  -0.041388  0  3.982447  0
C  C191  1  0.94619946  0.62559713  0.28286742  1  -0.022025  0  -0.020979  -0.039776  0  3.981384  0
C  C192  1  0.66995871  0.56964408  0.73776019  1  -0.073202  0  -0.085204  -0.085744  0  3.988566  0
C  C193  1  0.10038272  0.43046319  0.76222953  1  -0.004955  0  -0.086829  -0.087416  0  3.989027  0
C  C194  1  0.33004203  0.43036069  0.26224250  1  -0.073542  0  -0.085138  -0.085616  0  3.988635  0
C  C195  1  0.89962148  0.56953694  0.23777521  1  -0.005754  0  -0.086736  -0.08731  0  3.988887  0
C  C196  1  0.70965544  0.56864185  0.68938202  1  0.037925  0  -0.091104  -0.130371  0  3.973677  0
C  C197  1  0.14098261  0.43148728  0.81064130  1  -0.032461  0  -0.09083  -0.129931  0  3.973611  0
C  C198  1  0.29034043  0.43136477  0.31062023  1  0.038574  0  -0.091062  -0.130439  0  3.973937  0
C  C199  1  0.85902014  0.56851284  0.18936456  1  -0.032429  0  -0.090885  -0.129077  0  3.974163  0
C  C200  1  0.63420023  0.62604504  0.83418377  1  1.570118  0  0.217386  0.596956  0  4.179901  0
C  C201  1  0.00828757  0.37401547  0.66578382  1  1.576014  0  0.216307  0.59539  0  4.18171  0
C  C202  1  0.36580730  0.37395741  0.16581957  1  1.570564  0  0.217334  0.596925  0  4.179903  0
C  C203  1  0.99171394  0.62598651  0.33422047  1  1.576215  0  0.216238  0.595292  0  4.181736  0
C  C204  1  0.23180000  0.60920554  0.39679895  1  1.502267  0  0.204759  0.572282  0  4.172629  0
C  C205  1  0.62266246  0.39070259  0.10318508  1  1.523152  0  0.202102  0.569884  0  4.176416  0
C  C206  1  0.76819643  0.39079641  0.60320911  1  1.502215  0  0.204619  0.572184  0  4.172842  0
C  C207  1  0.37733597  0.60929759  0.89681363  1  1.523112  0  0.20213  0.569858  0  4.176341  0
C  C208  1  0.34142733  0.64417625  0.40856466  1  -0.046231  0  -0.018871  -0.035601  0  3.985498  0
C  C209  1  0.69723203  0.35565688  0.09144143  1  -0.065305  0  -0.017029  -0.035166  0  3.98465  0
C  C210  1  0.65856982  0.35582569  0.59144491  1  -0.045876  0  -0.018812  -0.035664  0  3.98525  0
C  C211  1  0.30276835  0.64434283  0.90855824  1  -0.06524  0  -0.017008  -0.035096  0  3.984636  0
C  C212  1  0.38263511  0.69459164  0.45915111  1  -0.02814  0  -0.078566  -0.070454  0  3.955161  0
C  C213  1  0.68788900  0.30514127  0.04091282  1  0.024249  0  -0.079483  -0.069301  0  3.95681  0
C  C214  1  0.61736468  0.30541123  0.54085730  1  -0.028286  0  -0.078573  -0.070387  0  3.954874  0
C  C215  1  0.31211158  0.69486029  0.95908641  1  0.024056  0  -0.079493  -0.069288  0  3.956758  0
C  C216  1  0.48678966  0.72375945  0.47006057  1  0.011524  0  -0.090763  -0.135077  0  3.970496  0
C  C217  1  0.76282551  0.27594499  0.03001326  1  -0.044312  0  -0.090292  -0.133633  0  3.972196  0
C  C218  1  0.51320826  0.27624113  0.52994509  1  0.011615  0  -0.090834  -0.135233  0  3.970525  0
C  C219  1  0.23717342  0.72405473  0.96998490  1  -0.04419  0  -0.090361  -0.133777  0  3.972329  0
C  C220  1  0.55207534  0.70384668  0.43078191  1  -0.034366  0  -0.003681  0.072497  0  4.002814  0
C  C221  1  0.84819314  0.29594328  0.06922125  1  -0.036008  0  -0.005195  0.069759  0  4.005187  0
C  C222  1  0.44792087  0.29615484  0.56922297  1  -0.034295  0  -0.003728  0.072538  0  4.003194  0
C  C223  1  0.15180777  0.70405460  0.93077622  1  -0.036007  0  -0.005192  0.069873  0  4.005238  0
C  C224  1  0.50921101  0.65429573  0.37951847  1  -0.036639  0  -0.093204  -0.138925  0  3.995758  0
C  C225  1  0.85497744  0.34556404  0.12044829  1  -0.051815  0  -0.091458  -0.135959  0  3.994085  0
C  C226  1  0.49078312  0.34570161  0.62048787  1  -0.037297  0  -0.093155  -0.138916  0  3.996028  0
C  C227  1  0.14502347  0.65443383  0.87954956  1  -0.05222  0  -0.09144  -0.13603  0  3.994169  0
C  C228  1  0.40542868  0.62457591  0.36869609  1  -0.020906  0  -0.082023  -0.087398  0  3.986278  0
C  C229  1  0.78093105  0.37529745  0.13127826  1  -0.032797  0  -0.083844  -0.090271  0  3.985958  0
C  C230  1  0.59456320  0.37542418  0.63131317  1  -0.022166  0  -0.081969  -0.087332  0  3.986208  0
C  C231  1  0.21906886  0.62470134  0.86872069  1  -0.032586  0  -0.083851  -0.090254  0  3.985941  0
C  C232  1  0.66294347  0.73301273  0.44356772  1  -0.047814  0  -0.002916  0.073615  0  4.004459  0
C  C233  1  0.93000934  0.26687673  0.05641333  1  -0.055344  0  -0.004116  0.073446  0  4.005489  0
C  C234  1  0.33705396  0.26698835  0.55643472  1  -0.048051  0  -0.002923  0.073413  0  4.004472  0
C  C235  1  0.06998990  0.73312072  0.94358020  1  -0.055439  0  -0.004116  0.07323  0  4.005727  0
C  C236  1  0.70460117  0.79577489  0.47914679  1  -0.072765  0  -0.098846  -0.154491  0  4.021946  0
C  C237  1  0.90903963  0.20411480  0.02086490  1  -0.068808  0  -0.097445  -0.153678  0  4.021396  0
C  C238  1  0.29539338  0.20422620  0.52085415  1  -0.072425  0  -0.098842  -0.154347  0  4.021765  0
C  C239  1  0.09095791  0.79588359  0.97912597  1  -0.069302  0  -0.097333  -0.153468  0  4.021166  0
C  C240  1  0.80900349  0.82274252  0.49253598  1  -0.043648  0  -0.084305  -0.088692  0  3.995531  0
C  C241  1  0.98658688  0.17724426  0.00752053  1  -0.104701  0  -0.086156  -0.092099  0  3.996331  0
C  C242  1  0.19099155  0.17725809  0.50746554  1  -0.043721  0  -0.084369  -0.088939  0  3.995401  0
C  C243  1  0.01340825  0.82275509  0.99246617  1  -0.104662  0  -0.086184  -0.092196  0  3.996248  0
C  C244  1  0.87475823  0.78743451  0.47084045  1  -0.02593  0  -0.01922  -0.036423  0  3.976117  0
C  C245  1  0.08763089  0.21266021  0.02919239  1  0.035275  0  -0.019388  -0.035711  0  3.977581  0
C  C246  1  0.12523559  0.21256656  0.52916275  1  -0.026326  0  -0.01917  -0.036357  0  3.975974  0
C  C247  1  0.91236645  0.78733777  0.97079153  1  0.034804  0  -0.01944  -0.035656  0  3.977621  0
C  C248  1  0.83438807  0.72504206  0.43497887  1  -0.007843  0  -0.073591  -0.064123  0  3.938719  0
C  C249  1  0.10955790  0.27506057  0.06500035  1  -0.017851  0  -0.074378  -0.066157  0  3.939605  0
C  C250  1  0.16560795  0.27495762  0.56502419  1  -0.007824  0  -0.073587  -0.064124  0  3.938707  0
C  C251  1  0.89044039  0.72493786  0.93498637  1  -0.017301  0  -0.074506  -0.066389  0  3.939879  0
C  C252  1  0.72986145  0.69835975  0.42150826  1  -0.043287  0  -0.088052  -0.130108  0  3.960812  0
C  C253  1  0.03158660  0.30163006  0.07842592  1  -0.048501  0  -0.086412  -0.129429  0  3.960044  0
C  C254  1  0.27013504  0.30164087  0.57849364  1  -0.043175  0  -0.088011  -0.130009  0  3.960644  0
C  C255  1  0.96841361  0.69836787  0.92156478  1  -0.048528  0  -0.086466  -0.129356  0  3.960267  0
C  C256  1  0.98590798  0.81635750  0.48657077  1  1.523574  0  0.203778  0.582855  0  4.163598  0
C  C257  1  0.16989085  0.18379124  0.01346754  1  1.525277  0  0.207403  0.585942  0  4.163334  0
C  C258  1  0.01408679  0.18364402  0.51343373  1  1.523478  0  0.203761  0.582858  0  4.163392  0
C  C259  1  0.83010289  0.81620534  0.98651811  1  1.525413  0  0.207214  0.585846  0  4.163603  0
C  C260  1  0.26710875  0.80758626  0.42245765  1  1.580293  0  0.218164  0.604861  0  4.160167  0
C  C261  1  0.45971780  0.19250354  0.07748845  1  1.567764  0  0.219479  0.605776  0  4.160761  0
C  C262  1  0.73289106  0.19241808  0.57753960  1  1.58028  0  0.218232  0.605057  0  4.160072  0
C  C263  1  0.54027340  0.80748651  0.92250571  1  1.567943  0  0.219469  0.605826  0  4.160481  0
C  C264  1  0.32186856  0.80679374  0.37348541  1  0.02241  0  -0.020275  -0.04049  0  3.967673  0
C  C265  1  0.51539933  0.19330700  0.12641326  1  0.023368  0  -0.019352  -0.039885  0  3.965366  0
C  C266  1  0.67813607  0.19321013  0.62651431  1  0.023417  0  -0.020227  -0.040444  0  3.967694  0
C  C267  1  0.48459553  0.80668167  0.87357927  1  0.022836  0  -0.019255  -0.039962  0  3.965708  0
C  C268  1  0.35521470  0.85997558  0.36323860  1  -0.033884  0  -0.088972  -0.091112  0  4.007917  0
C  C269  1  0.49573864  0.14009314  0.13658107  1  -0.104633  0  -0.08845  -0.090908  0  4.004806  0
C  C270  1  0.64479115  0.14002784  0.63675906  1  -0.034506  0  -0.088945  -0.091219  0  4.0079  0
C  C271  1  0.50425904  0.85989827  0.86341512  1  -0.103967  0  -0.088523  -0.091009  0  4.005299  0
C  C272  1  0.40064280  0.85808838  0.31598799  1  -0.037117  0  -0.095678  -0.141744  0  3.999579  0
C  C273  1  0.54309308  0.14197033  0.18381843  1  0.002106  0  -0.094864  -0.139269  0  3.997457  0
C  C274  1  0.59936213  0.14191319  0.68400935  1  -0.036706  0  -0.095668  -0.141618  0  3.999483  0
C  C275  1  0.45690476  0.85802432  0.81617821  1  0.002469  0  -0.094859  -0.139189  0  3.997785  0
C  C276  1  0.41374701  0.80288767  0.27754269  1  -0.089222  0  -0.007453  0.069246  0  4.006535  0
C  C277  1  0.61126658  0.19719864  0.22233690  1  -0.035819  0  -0.008502  0.068003  0  4.007461  0
C  C278  1  0.58625460  0.19711160  0.72245417  1  -0.089221  0  -0.007477  0.069243  0  4.006627  0
C  C279  1  0.38873170  0.80279832  0.77765948  1  -0.036081  0  -0.008592  0.067779  0  4.0076  0
C  C280  1  0.38238134  0.75010537  0.28886661  1  -0.021321  0  -0.092272  -0.135746  0  3.979044  0
C  C281  1  0.63256791  0.25001701  0.21106823  1  -0.046335  0  -0.092278  -0.135271  0  3.979884  0
C  C282  1  0.61762022  0.24989527  0.71113265  1  -0.021349  0  -0.092274  -0.135755  0  3.97905  0
C  C283  1  0.36742900  0.74997722  0.78892297  1  -0.046312  0  -0.092148  -0.135125  0  3.979572  0
C  C284  1  0.33689342  0.75197422  0.33615606  1  -0.04325  0  -0.078025  -0.07294  0  3.958646  0
C  C285  1  0.58514972  0.24815125  0.16378906  1  -0.030197  0  -0.079058  -0.073703  0  3.95861  0
C  C286  1  0.66310978  0.24802825  0.66384426  1  -0.043808  0  -0.078057  -0.072948  0  3.958712  0
C  C287  1  0.41484656  0.75183882  0.83620134  1  -0.029719  0  -0.079029  -0.073551  0  3.958236  0
C  C288  1  0.45723374  0.80055362  0.22611732  1  -0.015173  0  -0.005826  0.068972  0  4.003698  0
C  C289  1  0.65697428  0.19946600  0.27376592  1  -0.018942  0  -0.005467  0.070179  0  4.007205  0
C  C290  1  0.54276428  0.19944427  0.77387827  1  -0.014872  0  -0.005763  0.069011  0  4.003588  0
C  C291  1  0.34302469  0.80053235  0.72623060  1  -0.019012  0  -0.005398  0.070411  0  4.007255  0
C  C292  1  0.53437144  0.85131668  0.22570465  1  -0.025688  0  -0.094597  -0.140318  0  4.001869  0
C  C293  1  0.68331082  0.14867578  0.27411717  1  -0.036577  0  -0.095313  -0.141338  0  4.004634  0
C  C294  1  0.46562540  0.14868029  0.77428947  1  -0.025661  0  -0.094653  -0.140382  0  4.001959  0
C  C295  1  0.31669085  0.85132073  0.72587828  1  -0.036526  0  -0.09545  -0.141673  0  4.004941  0
C  C296  1  0.57437562  0.84955049  0.17710503  1  -0.059808  0  -0.088614  -0.093046  0  4.002608  0
C  C297  1  0.72494789  0.15033716  0.32270720  1  -0.078986  0  -0.087748  -0.092013  0  4.002436  0
C  C298  1  0.42561886  0.15044466  0.82288727  1  -0.051543  0  -0.088644  -0.093088  0  4.002736  0
C  C299  1  0.27506026  0.84966075  0.67728688  1  -0.078995  0  -0.087654  -0.091824  0  4.001964  0
C  C300  1  0.53925891  0.79677322  0.12740778  1  -0.028329  0  -0.024023  -0.044015  0  3.977974  0
C  C301  1  0.74254439  0.20305084  0.37245443  1  -0.07638  0  -0.023312  -0.043948  0  3.976032  0
C  C302  1  0.46073122  0.20322191  0.87258602  1  -0.037242  0  -0.023947  -0.043929  0  3.977923  0
C  C303  1  0.25746547  0.79694613  0.62754081  1  -0.076635  0  -0.023391  -0.043879  0  3.976051  0
C  C304  1  0.46256764  0.74595527  0.12740559  1  -0.060948  0  -0.085805  -0.097478  0  4.00007  0
C  C305  1  0.71669110  0.25389151  0.37250053  1  -0.005358  0  -0.08545  -0.096398  0  4.000777  0
C  C306  1  0.53742077  0.25404078  0.87258893  1  -0.060217  0  -0.08577  -0.097271  0  4.000074  0
C  C307  1  0.28332090  0.74610684  0.62749485  1  -0.005136  0  -0.085494  -0.09655  0  4.000985  0
C  C308  1  0.42197410  0.74788268  0.17601072  1  -0.073425  0  -0.089299  -0.136734  0  3.981172  0
C  C309  1  0.67428489  0.25206371  0.32391322  1  -0.075161  0  -0.089887  -0.138545  0  3.985623  0
C  C310  1  0.57802030  0.25211520  0.82398600  1  -0.074074  0  -0.08932  -0.136771  0  3.981171  0
C  C311  1  0.32572371  0.74793510  0.67608384  1  -0.075067  0  -0.089891  -0.138652  0  3.985412  0
C  C312  1  0.58213611  0.79502895  0.07486958  1  1.597946  0  0.217211  0.599224  0  4.178388  0
C  C313  1  0.78714842  0.20477350  0.42501237  1  1.586109  0  0.218908  0.600766  0  4.176774  0
C  C314  1  0.41785862  0.20496525  0.92512425  1  1.597396  0  0.217225  0.599151  0  4.17847  0
C  C315  1  0.21285901  0.79522439  0.57498360  1  1.586325  0  0.219023  0.600776  0  4.176923  0
C  C316  1  0.02477225  0.43838880  0.30338740  1  0.504244  0  0.056421  0.103078  0  3.919204  0
C  C317  1  0.58633947  0.56157059  0.19672153  1  0.486677  0  0.056885  0.104653  0  3.917493  0
C  C318  1  0.97522693  0.56160995  0.69661644  1  0.504347  0  0.056527  0.103172  0  3.919227  0
C  C319  1  0.41367509  0.43843144  0.80327674  1  0.486672  0  0.056869  0.104647  0  3.917632  0
C  C320  1  0.99652478  0.37510478  0.27415082  1  0.004284  0  -0.070661  -0.156071  0  3.924508  0
C  C321  1  0.62152968  0.62485170  0.22597052  1  -0.005761  0  -0.07096  -0.156187  0  3.923946  0
C  C322  1  0.00347391  0.62489445  0.72585093  1  0.004202  0  -0.070637  -0.156115  0  3.924702  0
C  C323  1  0.37848367  0.37515079  0.77402830  1  -0.005443  0  -0.070933  -0.156245  0  3.924032  0
C  C324  1  0.94594885  0.33723588  0.30000039  1  0.0432  0  0.013956  0.109503  0  4.016856  0
C  C325  1  0.60892208  0.66277289  0.20015840  1  0.048052  0  0.014634  0.109849  0  4.015269  0
C  C326  1  0.05404941  0.66276104  0.70000050  1  0.043204  0  0.013889  0.109541  0  4.016894  0
C  C327  1  0.39108931  0.33723005  0.79984134  1  0.048409  0  0.014631  0.110005  0  4.014974  0
C  C328  1  0.92640453  0.36541199  0.35468722  1  -0.151302  0  -0.072167  -0.160402  0  3.929207  0
C  C329  1  0.56119671  0.63462658  0.14546618  1  -0.05803  0  -0.073563  -0.160572  0  3.928393  0
C  C330  1  0.07359491  0.63458585  0.64531478  1  -0.15107  0  -0.072175  -0.160354  0  3.929246  0
C  C331  1  0.43880965  0.36537496  0.85453493  1  -0.058092  0  -0.073611  -0.160782  0  3.928578  0
C  C332  1  0.95568882  0.42928425  0.38088872  1  0.575157  0  0.056011  0.101936  0  3.935113  0
C  C333  1  0.52642157  0.57075001  0.11925240  1  0.520107  0  0.056038  0.101589  0  3.934887  0
C  C334  1  0.04431328  0.57071312  0.61911423  1  0.574864  0  0.055953  0.101687  0  3.935413  0
C  C335  1  0.47358696  0.42925153  0.88074909  1  0.520262  0  0.055979  0.101575  0  3.934935  0
C  C336  1  0.91273203  0.27029794  0.27122015  1  0.587717  0  0.0805  0.042089  0  3.906793  0
C  C337  1  0.64263460  0.72971823  0.22899883  1  0.59659  0  0.080411  0.042359  0  3.904259  0
C  C338  1  0.08726616  0.72970176  0.72878103  1  0.587773  0  0.08052  0.042155  0  3.906675  0
C  C339  1  0.35737249  0.27028332  0.77100152  1  0.596678  0  0.0804  0.0423  0  3.904332  0
C  C340  1  0.84438721  0.15790935  0.14578305  1  0.602978  0  0.081232  0.043066  0  3.893807  0
C  C341  1  0.68597349  0.84200980  0.35452165  1  0.654644  0  0.082848  0.044348  0  3.893525  0
C  C342  1  0.15561253  0.84208620  0.85421695  1  0.603066  0  0.081007  0.042766  0  3.893947  0
C  C343  1  0.31404140  0.15798710  0.64548226  1  0.654759  0  0.082835  0.044241  0  3.893684  0
C  C344  1  0.80495641  0.09109234  0.11646473  1  -0.007991  0  0.016946  0.118328  0  4.009909  0
C  C345  1  0.71330953  0.90883789  0.38382995  1  -0.044041  0  0.016782  0.119238  0  4.009925  0
C  C346  1  0.19503922  0.90890367  0.88353469  1  -0.007906  0  0.016931  0.118385  0  4.009794  0
C  C347  1  0.28670028  0.09115899  0.61617697  1  -0.04428  0  0.01678  0.119316  0  4.010091  0
C  C348  1  0.73579450  0.99993339  0.03230932  1  0.520858  0  0.058106  0.100585  0  3.934678  0
C  C349  1  0.73552818  0.00009963  0.46792597  1  0.506627  0  0.05908  0.101704  0  3.935519  0
C  C350  1  0.26419987  0.00006587  0.96768867  1  0.520553  0  0.058092  0.10064  0  3.934603  0
C  C351  1  0.26446957  0.99989773  0.53207848  1  0.506715  0  0.059155  0.10174  0  3.935579  0
C  C352  1  0.77166513  0.06380360  0.05944783  1  0.02865  0  -0.072275  -0.163076  0  3.924915  0
C  C353  1  0.70738341  0.93621496  0.44084791  1  0.028428  0  -0.072271  -0.164188  0  3.924786  0
C  C354  1  0.22833288  0.93619426  0.94055115  1  0.028528  0  -0.07227  -0.163147  0  3.924909  0
C  C355  1  0.29262230  0.06378238  0.55915881  1  0.02852  0  -0.072276  -0.164157  0  3.925088  0
C  C356  1  0.76222734  0.98886232  0.11376455  1  0.538835  0  0.054163  0.09715  0  3.93872  0
C  C357  1  0.77280750  0.01101804  0.38638860  1  0.467  0  0.054189  0.09755  0  3.938882  0
C  C358  1  0.23775797  0.01113186  0.88623230  1  0.538666  0  0.054228  0.097248  0  3.938451  0
C  C359  1  0.22719992  0.98897839  0.61361589  1  0.464971  0  0.05422  0.097497  0  3.939155  0
C  C360  1  0.79901031  0.05203914  0.14387823  1  -0.101887  0  -0.073255  -0.159617  0  3.927528  0
C  C361  1  0.74634106  0.94782767  0.35635273  1  0.021405  0  -0.073396  -0.160672  0  3.929157  0
C  C362  1  0.20097957  0.94795550  0.85611992  1  -0.101783  0  -0.073354  -0.159835  0  3.927516  0
C  C363  1  0.25366928  0.05216736  0.64365350  1  0.023383  0  -0.073409  -0.160626  0  3.929432  0
N  N364  1  0.00371902  0.46504972  0.35567794  1  -1.246414  0  -0.32729  -0.223838  0  3.567604  0
N  N365  1  0.53855812  0.53494112  0.14444130  1  -1.248691  0  -0.326251  -0.224252  0  3.56784  0
N  N366  1  0.99628015  0.53494903  0.64432552  1  -1.246383  0  -0.327299  -0.223723  0  3.567726  0
N  N367  1  0.46145114  0.46506042  0.85555943  1  -1.248947  0  -0.326179  -0.224111  0  3.56779  0
N  N368  1  0.92296555  0.24465250  0.21936695  1  -0.69342  0  -0.190948  -0.135591  0  3.358394  0
N  N369  1  0.67813102  0.75531302  0.28091464  1  -0.792741  0  -0.190498  -0.13498  0  3.357963  0
N  N370  1  0.07702837  0.75534442  0.78063432  1  -0.693537  0  -0.191001  -0.135745  0  3.358449  0
N  N371  1  0.32188528  0.24468669  0.71908427  1  -0.792702  0  -0.190562  -0.135097  0  3.358205  0
N  N372  1  0.88814728  0.18200157  0.19614901  1  -0.775791  0  -0.191384  -0.138041  0  3.363607  0
N  N373  1  0.70584209  0.81796545  0.30419309  1  -0.701447  0  -0.192735  -0.140458  0  3.366917  0
N  N374  1  0.11184518  0.81799534  0.80385339  1  -0.775747  0  -0.191196  -0.137795  0  3.363506  0
N  N375  1  0.29417419  0.18203423  0.69580997  1  -0.701772  0  -0.192691  -0.140317  0  3.367067  0
N  N376  1  0.73109357  0.96305617  0.05888889  1  -1.261331  0  -0.317582  -0.213888  0  3.529412  0
N  N377  1  0.76767485  0.03690472  0.44127492  1  -1.240339  0  -0.318343  -0.213702  0  3.530113  0
N  N378  1  0.26889359  0.03694171  0.94110783  1  -1.260815  0  -0.317531  -0.213939  0  3.529224  0
N  N379  1  0.23232320  0.96309034  0.55872867  1  -1.24024  0  -0.318324  -0.213783  0  3.530287  0
O  O380  1  0.98593383  0.66628278  0.48098742  1  -1.177877  0  -0.310665  -0.569903  0  2.365827  0
O  O381  1  0.31946653  0.33366835  0.01895215  1  -1.174071  0  -0.310812  -0.570902  0  2.366861  0
O  O382  1  0.01406078  0.33371552  0.51901399  1  -1.178021  0  -0.310774  -0.570001  0  2.365897  0
O  O383  1  0.68053989  0.66633041  0.98105019  1  -1.174066  0  -0.310746  -0.570885  0  2.3669  0
O  O384  1  0.96718219  0.56513025  0.45806437  1  -1.180754  0  -0.328971  -0.560151  0  2.337496  0
O  O385  1  0.40210584  0.43480507  0.04190390  1  -1.181821  0  -0.328801  -0.560565  0  2.335918  0
O  O386  1  0.03281310  0.43486942  0.54193982  1  -1.180937  0  -0.328901  -0.559991  0  2.337621  0
O  O387  1  0.59789425  0.56519551  0.95810101  1  -1.181924  0  -0.328776  -0.560589  0  2.335883  0
O  O388  1  0.63296640  0.67717934  0.87126357  1  -1.182943  0  -0.308054  -0.560053  0  2.352382  0
O  O389  1  0.95595189  0.32286689  0.62869536  1  -1.183622  0  -0.307826  -0.559547  0  2.352379  0
O  O390  1  0.36703512  0.32282264  0.12873997  1  -1.182786  0  -0.308016  -0.559996  0  2.352159  0
O  O391  1  0.04404212  0.67713600  0.37131079  1  -1.183821  0  -0.307809  -0.559485  0  2.352297  0
O  O392  1  0.59978873  0.57309935  0.83599026  1  -1.17046  0  -0.332026  -0.559168  0  2.360403  0
O  O393  1  0.02671465  0.42696939  0.66401264  1  -1.170528  0  -0.331197  -0.558309  0  2.361179  0
O  O394  1  0.40022169  0.42690308  0.16401496  1  -1.170753  0  -0.332016  -0.559185  0  2.360546  0
O  O395  1  0.97329338  0.57303259  0.33599128  1  -1.17049  0  -0.331102  -0.558261  0  2.361003  0
O  O396  1  0.17024319  0.63010223  0.43170517  1  -1.172576  0  -0.326408  -0.582135  0  2.388009  0
O  O397  1  0.54018900  0.36983439  0.06829066  1  -1.178915  0  -0.325977  -0.580529  0  2.390394  0
O  O398  1  0.82974984  0.36990160  0.56829906  1  -1.172569  0  -0.32635  -0.582039  0  2.388128  0
O  O399  1  0.45981216  0.63016255  0.93170835  1  -1.178918  0  -0.326034  -0.580577  0  2.390281  0
O  O400  1  0.19893675  0.55877623  0.35516362  1  -1.166801  0  -0.311782  -0.543344  0  2.159811  0
O  O401  1  0.64033990  0.44117308  0.14478534  1  -1.163752  0  -0.31081  -0.542965  0  2.160048  0
O  O402  1  0.80106284  0.44122478  0.64484598  1  -1.166766  0  -0.31182  -0.543396  0  2.15972  0
O  O403  1  0.35965952  0.55882616  0.85521453  1  -1.163792  0  -0.310814  -0.542949  0  2.160031  0
O  O404  1  0.02200134  0.87378470  0.51737729  1  -1.170883  0  -0.33142  -0.552781  0  2.155297  0
O  O405  1  0.14856165  0.12635963  0.98266299  1  -1.168027  0  -0.33211  -0.553087  0  2.156218  0
O  O406  1  0.97799346  0.12621543  0.48262632  1  -1.170893  0  -0.331454  -0.552884  0  2.155023  0
O  O407  1  0.85143064  0.87363837  0.01731792  1  -1.168009  0  -0.331918  -0.552976  0  2.156148  0
O  O408  1  0.04722876  0.78424844  0.46898947  1  -1.184693  0  -0.316007  -0.574223  0  2.412464  0
O  O409  1  0.26331318  0.21589065  0.03104182  1  -1.189483  0  -0.317649  -0.575615  0  2.414819  0
O  O410  1  0.95276794  0.21575261  0.53101636  1  -1.184317  0  -0.316002  -0.574184  0  2.412413  0
O  O411  1  0.73668349  0.78410309  0.96895260  1  -1.189265  0  -0.317594  -0.575549  0  2.415181  0
O  O412  1  0.25450350  0.85952765  0.45396019  1  -1.171871  0  -0.330273  -0.568039  0  2.339186  0
O  O413  1  0.39511676  0.14054635  0.04602110  1  -1.176015  0  -0.332219  -0.569603  0  2.339198  0
O  O414  1  0.74548671  0.14047487  0.54603448  1  -1.171645  0  -0.330328  -0.568203  0  2.338995  0
O  O415  1  0.60488119  0.85944417  0.95397174  1  -1.175806  0  -0.332166  -0.56959  0  2.339055  0
O  O416  1  0.23789842  0.75827083  0.42941175  1  -1.183806  0  -0.306435  -0.560235  0  2.37569  0
O  O417  1  0.47976900  0.24180746  0.07053557  1  -1.180738  0  -0.306298  -0.559679  0  2.37739  0
O  O418  1  0.76210469  0.24173579  0.57058975  1  -1.18404  0  -0.306461  -0.560268  0  2.375853  0
O  O419  1  0.52021733  0.75818442  0.92946117  1  -1.180859  0  -0.306452  -0.55979  0  2.377173  0
O  O420  1  0.63948730  0.84700230  0.07746974  1  -1.187415  0  -0.329311  -0.567582  0  2.368271  0
O  O421  1  0.79268151  0.15282804  0.42240322  1  -1.174884  0  -0.330435  -0.568289  0  2.367891  0
O  O422  1  0.36051177  0.15299191  0.92252409  1  -1.186946  0  -0.329436  -0.567701  0  2.368385  0
O  O423  1  0.20733216  0.84717078  0.57759272  1  -1.175011  0  -0.330446  -0.568215  0  2.367881  0
O  O424  1  0.55837932  0.74388085  0.03330783  1  -1.180075  0  -0.302181  -0.550415  0  2.342169  0
O  O425  1  0.81441816  0.25590902  0.46660799  1  -1.176409  0  -0.302812  -0.551458  0  2.342739  0
O  O426  1  0.44161616  0.25611197  0.96668662  1  -1.179786  0  -0.302126  -0.550335  0  2.342192  0
O  O427  1  0.18558156  0.74408794  0.53338913  1  -1.176441  0  -0.302878  -0.551519  0  2.342916  0
