# generated using pymatgen
data_MnH16C24(NO2)2
_symmetry_space_group_name_H-M   'P 1'
_cell_length_a   13.80884525
_cell_length_b   17.56870398
_cell_length_c   18.84876244
_cell_angle_alpha   98.16808563
_cell_angle_beta   89.99995494
_cell_angle_gamma   90.00000024
_symmetry_Int_Tables_number   1
_chemical_formula_structural   MnH16C24(NO2)2
_chemical_formula_sum   'Mn8 H128 C192 N16 O32'
_cell_volume   4526.38759226
_cell_formula_units_Z   8
loop_
 _symmetry_equiv_pos_site_id
 _symmetry_equiv_pos_as_xyz
  1  'x, y, z'
loop_
 _atom_site_type_symbol
 _atom_site_label
 _atom_site_symmetry_multiplicity
 _atom_site_fract_x
 _atom_site_fract_y
 _atom_site_fract_z
 _atom_site_occupancy
 _atom_site_pbe_bader_charge
 _atom_site_pbe_bader_spin_density
 _atom_site_pbe_cm5_charge
 _atom_site_pbe_ddec_charge
 _atom_site_pbe_ddec_spin_density
 _atom_site_pbe_ddec_sum_bond_order
 _atom_site_pbe_magmom
Mn  Mn0  1  0.57150832  0.38314216  0.00510568  1  1.541315  4.530435  0.613622  0.955044  4.655676  2.397495  4.46
Mn  Mn1  1  0.42281667  0.13112052  0.00417853  1  1.542404  4.523719  0.616729  0.950367  4.654377  2.436904  4.46
Mn  Mn2  1  0.07150101  0.61685453  0.49489633  1  1.541205  4.530493  0.613566  0.954984  4.655713  2.397552  4.46
Mn  Mn3  1  0.92281187  0.86888362  0.49582527  1  1.542385  4.523752  0.616695  0.950303  4.654443  2.436797  4.46
Mn  Mn4  1  0.42848715  0.61685898  0.99488849  1  1.541388  4.530428  0.613574  0.954971  4.655625  2.39759  4.46
Mn  Mn5  1  0.57718025  0.86887661  0.99581831  1  1.542369  4.523763  0.616674  0.950273  4.654376  2.436928  4.46
Mn  Mn6  1  0.92849229  0.38314667  0.50510686  1  1.541308  4.530409  0.613592  0.954952  4.655626  2.397765  4.46
Mn  Mn7  1  0.07719156  0.13111811  0.50417215  1  1.542261  4.523754  0.616696  0.950319  4.654442  2.436889  4.46
H  H8  1  0.83673165  0.28375379  0.29837137  1  0.102993  0.000287  0.102585  0.103011  -7e-05  1.036627  0.0
H  H9  1  0.87268044  0.09666924  0.12557405  1  0.068829  0.000119  0.102106  0.101698  5.2e-05  0.999444  0.0
H  H10  1  0.96439118  0.02374515  0.20738827  1  0.104619  0.000138  0.097014  0.097511  6.1e-05  1.016262  0.0
H  H11  1  0.99304593  0.08232967  0.33480415  1  0.126786  9.2e-05  0.103394  0.104376  -0.000476  1.065114  0.0
H  H12  1  0.75893668  0.41937169  0.11373360  1  0.080558  0.001106  0.110799  0.074929  0.00043  1.018804  0.0
H  H13  1  0.86123628  0.35048464  0.19385744  1  0.053137  0.000662  0.102374  0.109673  0.000366  1.019881  0.0
H  H14  1  0.71420521  0.14151717  0.10574561  1  0.094428  0.000703  0.105603  0.111661  0.000307  1.029345  0.0
H  H15  1  0.61961588  0.21785506  0.02975574  1  0.164219  0.001158  0.12093  0.092459  0.000475  1.06138  0.0
H  H16  1  0.67164475  0.48601749  0.20977965  1  0.066191  0.000359  0.102888  0.100031  -4.3e-05  1.047451  0.0
H  H17  1  0.66768054  0.68715508  0.37071173  1  0.060183  0.000199  0.102632  0.102411  7e-05  1.004337  0.0
H  H18  1  0.57738918  0.75798472  0.28641900  1  0.07049  0.000152  0.099586  0.099724  6.6e-05  1.010333  0.0
H  H19  1  0.54049188  0.69350677  0.16251077  1  0.112117  0.000213  0.105005  0.104627  -0.000338  1.052864  0.0
H  H20  1  0.90012143  0.39648655  0.34449519  1  0.11153  0.001016  0.115667  0.077957  0.000454  1.044676  0.0
H  H21  1  0.81507670  0.47155225  0.26081179  1  0.082558  0.000566  0.103155  0.105356  0.00031  1.028694  0.0
H  H22  1  0.66642696  0.59296522  0.44435027  1  0.048068  0.000665  0.103332  0.105547  0.000373  1.015548  0.0
H  H23  1  0.76070490  0.51435921  0.52010027  1  0.107084  0.001068  0.11276  0.07191  0.000455  1.026755  0.0
H  H24  1  0.65868132  0.96675415  0.20187476  1  0.107079  0.000284  0.101781  0.09755  -5.3e-05  1.046974  0.0
H  H25  1  0.62424823  0.15085143  0.37754308  1  0.030659  0.000134  0.103167  0.10298  5e-05  0.997977  0.0
H  H26  1  0.53139475  0.22512814  0.29810642  1  0.084573  0.000132  0.096757  0.095999  5.4e-05  1.02933  0.0
H  H27  1  0.50273275  0.16993616  0.16980392  1  0.1316  6.6e-05  0.104059  0.105793  -0.000463  1.067165  0.0
H  H28  1  0.75169697  0.82948688  0.38139154  1  0.067794  0.001297  0.114107  0.082157  0.000527  1.016248  0.001
H  H29  1  0.64874923  0.89646607  0.30007290  1  0.092549  0.000654  0.101704  0.10721  0.000358  1.032395  0.0
H  H30  1  0.77851456  0.10975390  0.39760625  1  0.064134  0.000722  0.106901  0.114345  0.000321  1.019473  0.0
H  H31  1  0.87698909  0.03439997  0.47260515  1  0.163933  0.001095  0.121072  0.095323  0.000207  1.059232  0.001
H  H32  1  0.34250644  0.23011003  0.21413005  1  0.09156  0.000296  0.102709  0.09855  -5.4e-05  1.04343  0.0
H  H33  1  0.41043961  0.40322597  0.39321341  1  0.0127  0.000183  0.098  0.095858  7.6e-05  1.009569  0.0
H  H34  1  0.50568513  0.47435461  0.31218003  1  0.073679  0.000154  0.095206  0.094499  6.6e-05  1.014285  0.0
H  H35  1  0.51611112  0.42416164  0.18100028  1  0.133286  0.000111  0.104685  0.110158  -0.000535  1.05282  0.0
H  H36  1  0.24747813  0.08925418  0.38928380  1  0.055216  0.001211  0.11656  0.087594  0.000461  1.00733  0.0
H  H37  1  0.35314740  0.15378457  0.30820898  1  0.085272  0.00062  0.104271  0.112851  0.000335  1.020066  0.0
H  H38  1  0.25122788  0.37063500  0.41963381  1  0.04696  0.000765  0.10169  0.102009  0.000344  1.042524  0.0
H  H39  1  0.14764568  0.29801549  0.49326798  1  0.168173  0.00112  0.119889  0.094774  0.000181  1.053406  0.001
H  H40  1  0.33673043  0.71624174  0.20163140  1  0.102829  0.000287  0.102564  0.103043  -7e-05  1.036659  0.0
H  H41  1  0.37268845  0.90332740  0.37442406  1  0.068893  0.000119  0.102118  0.101722  5.2e-05  0.999349  0.0
H  H42  1  0.46439711  0.97624629  0.29260701  1  0.103998  0.000138  0.097059  0.097513  6.1e-05  1.016435  0.0
H  H43  1  0.49304258  0.91766063  0.16519203  1  0.127  9.2e-05  0.103441  0.10444  -0.000476  1.065068  0.0
H  H44  1  0.25891862  0.58062730  0.38627018  1  0.080539  0.001106  0.110815  0.074895  0.00043  1.018887  0.0
H  H45  1  0.36122700  0.64951091  0.30614903  1  0.053323  0.000662  0.102367  0.109676  0.000366  1.019923  0.0
H  H46  1  0.21421031  0.85848525  0.39425598  1  0.094365  0.000703  0.105601  0.111674  0.000307  1.029273  0.0
H  H47  1  0.11961294  0.78215193  0.47024118  1  0.164118  0.001158  0.120941  0.092509  0.000474  1.061367  0.0
H  H48  1  0.17164128  0.51398781  0.29022339  1  0.065889  0.00036  0.102855  0.099994  -4.2e-05  1.047458  0.0
H  H49  1  0.16768231  0.31284392  0.12929264  1  0.059777  0.000199  0.102654  0.102459  7e-05  1.0044  0.0
H  H50  1  0.07738434  0.24202404  0.21358454  1  0.070682  0.000152  0.099595  0.099737  6.6e-05  1.010427  0.0
H  H51  1  0.04047678  0.30650082  0.33748839  1  0.112047  0.000213  0.104995  0.104611  -0.000339  1.052866  0.0
H  H52  1  0.40012606  0.60351125  0.15550518  1  0.111413  0.001017  0.115633  0.077868  0.000454  1.044779  0.0
H  H53  1  0.31507546  0.52844786  0.23918839  1  0.082553  0.000566  0.103158  0.105315  0.00031  1.028761  0.0
H  H54  1  0.16643025  0.40703606  0.05565332  1  0.048157  0.000665  0.103297  0.105497  0.000373  1.015667  0.0
H  H55  1  0.26070702  0.48563786  0.97989992  1  0.107082  0.001068  0.112739  0.071892  0.000455  1.026786  0.0
H  H56  1  0.15868581  0.03324192  0.29812235  1  0.11051  0.000282  0.10179  0.097603  -5.3e-05  1.04677  0.0
H  H57  1  0.12424855  0.84915327  0.12245513  1  0.030579  0.000134  0.103159  0.102962  5e-05  0.997933  0.0
H  H58  1  0.03139353  0.77486906  0.20188666  1  0.084725  0.000132  0.096723  0.095911  5.4e-05  1.029432  0.0
H  H59  1  0.00273285  0.83005823  0.33019624  1  0.131538  6.6e-05  0.104044  0.105847  -0.000463  1.067116  0.0
H  H60  1  0.25169803  0.17051725  0.11860918  1  0.067704  0.001298  0.114099  0.082087  0.000527  1.016304  0.001
H  H61  1  0.14875238  0.10353174  0.19992602  1  0.092622  0.000655  0.101703  0.107192  0.000358  1.032505  0.0
H  H62  1  0.27851780  0.89024737  0.10239516  1  0.064248  0.000722  0.106914  0.114321  0.000321  1.019478  0.0
H  H63  1  0.37699674  0.96560072  0.02739665  1  0.163862  0.001095  0.12109  0.095276  0.000206  1.059208  0.001
H  H64  1  0.84249969  0.76988781  0.28587566  1  0.091533  0.000296  0.102724  0.098535  -5.4e-05  1.043489  0.0
H  H65  1  0.91044174  0.59677646  0.10679284  1  0.012868  0.000183  0.098031  0.095941  7.6e-05  1.009459  0.0
H  H66  1  0.00568321  0.52564670  0.18782526  1  0.073716  0.000154  0.095204  0.094386  6.6e-05  1.014284  0.0
H  H67  1  0.01610545  0.57583564  0.31900449  1  0.133193  0.000112  0.104672  0.11023  -0.000535  1.052766  0.0
H  H68  1  0.74746577  0.91074012  0.11070666  1  0.055318  0.001211  0.116583  0.087518  0.000461  1.00734  0.0
H  H69  1  0.85314074  0.84621721  0.19178396  1  0.085614  0.00062  0.10422  0.112756  0.000335  1.020063  0.0
H  H70  1  0.75122859  0.62936167  0.08036756  1  0.047017  0.000765  0.101641  0.101917  0.000344  1.042547  0.0
H  H71  1  0.64764937  0.70196967  0.00672987  1  0.166975  0.001119  0.119892  0.094663  0.000181  1.053592  0.001
H  H72  1  0.16325730  0.71624796  0.70162765  1  0.103038  0.000287  0.102557  0.102987  -7e-05  1.036743  0.0
H  H73  1  0.12732083  0.90333138  0.87442800  1  0.068774  0.000119  0.102096  0.101681  5.2e-05  0.999414  0.0
H  H74  1  0.03560719  0.97625604  0.79261492  1  0.104667  0.000138  0.09706  0.09756  6.1e-05  1.016262  0.0
H  H75  1  0.00695171  0.91767267  0.66519866  1  0.127042  9.2e-05  0.103374  0.104332  -0.000476  1.065124  0.0
H  H76  1  0.24106676  0.58062773  0.88626194  1  0.080561  0.001106  0.110818  0.0749  0.00043  1.018777  0.0
H  H77  1  0.13876280  0.64951307  0.80613947  1  0.053062  0.000662  0.102398  0.109677  0.000366  1.019911  0.0
H  H78  1  0.28579315  0.85848631  0.89425469  1  0.094351  0.000703  0.105618  0.111674  0.000307  1.029335  0.0
H  H79  1  0.38037887  0.78214438  0.97024299  1  0.163878  0.001159  0.120942  0.092492  0.000475  1.061415  0.0
H  H80  1  0.32835289  0.51398484  0.79022156  1  0.066094  0.000359  0.102892  0.09999  -4.3e-05  1.047518  0.0
H  H81  1  0.33231855  0.31285299  0.62928809  1  0.05989  0.000199  0.102614  0.102406  7e-05  1.004365  0.0
H  H82  1  0.42260991  0.24201986  0.71357507  1  0.070721  0.000152  0.099599  0.099756  6.6e-05  1.010398  0.0
H  H83  1  0.45951372  0.30649150  0.83748356  1  0.112183  0.000213  0.10502  0.104631  -0.000338  1.052825  0.0
H  H84  1  0.09986680  0.60351582  0.65551134  1  0.11129  0.001017  0.115664  0.077943  0.000454  1.044842  0.0
H  H85  1  0.18492238  0.52844836  0.73918921  1  0.082537  0.000566  0.103163  0.105327  0.00031  1.028755  0.0
H  H86  1  0.33356561  0.40704170  0.55564993  1  0.048319  0.000666  0.103267  0.105466  0.000373  1.015655  0.0
H  H87  1  0.23928333  0.48564310  0.47989669  1  0.106675  0.001069  0.112752  0.071959  0.000455  1.026853  0.0
H  H88  1  0.34132284  0.03324761  0.79812745  1  0.106705  0.000284  0.101809  0.097555  -5.3e-05  1.046924  0.0
H  H89  1  0.37575085  0.84915319  0.62245683  1  0.030698  0.000134  0.103195  0.103005  5e-05  0.997922  0.0
H  H90  1  0.46860217  0.77487532  0.70189122  1  0.084726  0.000132  0.09675  0.095967  5.4e-05  1.029365  0.0
H  H91  1  0.49726851  0.83006157  0.83019617  1  0.131539  6.6e-05  0.104025  0.105737  -0.000463  1.06719  0.0
H  H92  1  0.24830139  0.17051543  0.61860648  1  0.067705  0.001298  0.114091  0.0821  0.000527  1.016269  0.001
H  H93  1  0.35125203  0.10353684  0.69992786  1  0.092515  0.000655  0.10168  0.107147  0.000358  1.032442  0.0
H  H94  1  0.22148887  0.89024846  0.60239868  1  0.063916  0.000722  0.10687  0.114293  0.000321  1.019522  0.0
H  H95  1  0.12301290  0.96559662  0.52739692  1  0.163915  0.001095  0.1211  0.095343  0.000207  1.05923  0.001
H  H96  1  0.65749627  0.76988944  0.78587293  1  0.091611  0.000296  0.102689  0.098528  -5.4e-05  1.043462  0.0
H  H97  1  0.58956165  0.59676833  0.60679050  1  0.012739  0.000183  0.098034  0.09587  7.6e-05  1.009567  0.0
H  H98  1  0.49431975  0.52564086  0.68782615  1  0.073597  0.000154  0.095201  0.094401  6.6e-05  1.014343  0.0
H  H99  1  0.48389521  0.57583495  0.81900127  1  0.133245  0.000111  0.104685  0.110187  -0.000535  1.052903  0.0
H  H100  1  0.75252675  0.91074299  0.61071782  1  0.055299  0.001211  0.116585  0.087635  0.000461  1.00728  0.0
H  H101  1  0.64685821  0.84621375  0.69179331  1  0.085193  0.00062  0.10425  0.112812  0.000335  1.020117  0.0
H  H102  1  0.74877121  0.62936274  0.58036788  1  0.046892  0.000765  0.101664  0.101966  0.000344  1.0425  0.0
H  H103  1  0.85235413  0.70197877  0.50673009  1  0.168099  0.001119  0.119916  0.094753  0.00018  1.053478  0.001
H  H104  1  0.66326793  0.28375197  0.79836819  1  0.103032  0.000287  0.102558  0.102954  -7e-05  1.036633  0.0
H  H105  1  0.62731932  0.09666741  0.62556984  1  0.068798  0.000119  0.102101  0.10174  5.2e-05  0.999351  0.0
H  H106  1  0.53560995  0.02374393  0.70738683  1  0.104725  0.000138  0.097058  0.097584  6.1e-05  1.016219  0.0
H  H107  1  0.50696230  0.08232788  0.83480425  1  0.126794  9.2e-05  0.103372  0.104416  -0.000476  1.065027  0.0
H  H108  1  0.74106092  0.41937333  0.61373400  1  0.080732  0.001106  0.110785  0.074871  0.00043  1.018824  0.0
H  H109  1  0.63876123  0.35048397  0.69385443  1  0.053081  0.000662  0.102393  0.1097  0.000366  1.019877  0.0
H  H110  1  0.78579602  0.14151821  0.60574219  1  0.094448  0.000703  0.105633  0.111781  0.000307  1.029246  0.0
H  H111  1  0.88038543  0.21786071  0.52975550  1  0.163888  0.001158  0.120937  0.092544  0.000474  1.061357  0.0
H  H112  1  0.82835564  0.48601567  0.70977744  1  0.066161  0.000359  0.102895  0.10002  -4.3e-05  1.047478  0.0
H  H113  1  0.83232692  0.68715441  0.87071125  1  0.059687  0.000199  0.10264  0.102402  7e-05  1.004377  0.0
H  H114  1  0.92261836  0.75798292  0.78642098  1  0.070469  0.000152  0.099592  0.099775  6.6e-05  1.010394  0.0
H  H115  1  0.95951217  0.69350726  0.66251302  1  0.112203  0.000213  0.105015  0.104631  -0.000339  1.052914  0.0
H  H116  1  0.59988244  0.39648995  0.84449908  1  0.111813  0.001016  0.115666  0.077891  0.000454  1.044624  0.0
H  H117  1  0.68492508  0.47155391  0.76081434  1  0.082633  0.000566  0.103135  0.105351  0.00031  1.028584  0.0
H  H118  1  0.83357898  0.59296747  0.94435547  1  0.048509  0.000666  0.103279  0.105452  0.000373  1.015563  0.0
H  H119  1  0.73929786  0.51435931  0.02010276  1  0.10699  0.001067  0.112815  0.071981  0.000454  1.026952  0.0
H  H120  1  0.84131617  0.96675522  0.70187555  1  0.107109  0.000284  0.101774  0.097551  -5.3e-05  1.046857  0.0
H  H121  1  0.87575343  0.15084560  0.87754299  1  0.030655  0.000134  0.103172  0.102979  5e-05  0.997943  0.0
H  H122  1  0.96860990  0.22512979  0.79811040  1  0.084796  0.000132  0.096758  0.095954  5.4e-05  1.029356  0.0
H  H123  1  0.99726769  0.16993606  0.66980395  1  0.13159  6.6e-05  0.10405  0.105782  -0.000463  1.067203  0.0
H  H124  1  0.74830830  0.82948220  0.88139114  1  0.067659  0.001298  0.114097  0.082106  0.000527  1.016303  0.001
H  H125  1  0.85125178  0.89646655  0.80007203  1  0.092515  0.000655  0.101711  0.107146  0.000358  1.032446  0.0
H  H126  1  0.72148781  0.10975093  0.89760502  1  0.06394  0.000722  0.106861  0.114254  0.000321  1.019507  0.0
H  H127  1  0.62301031  0.03439817  0.97260466  1  0.163943  0.001095  0.121121  0.09534  0.000206  1.059208  0.001
H  H128  1  0.15749867  0.23010995  0.71412922  1  0.091565  0.000296  0.102726  0.098546  -5.4e-05  1.043423  0.0
H  H129  1  0.08956314  0.40322245  0.89321271  1  0.01273  0.000183  0.098009  0.095876  7.6e-05  1.009538  0.0
H  H130  1  0.99432022  0.47435221  0.81218030  1  0.0738  0.000154  0.095209  0.094455  6.6e-05  1.014222  0.0
H  H131  1  0.98389436  0.42416325  0.68099841  1  0.133256  0.000112  0.104696  0.110216  -0.000535  1.052846  0.0
H  H132  1  0.25254056  0.08925760  0.88929238  1  0.055226  0.001211  0.116576  0.087502  0.000461  1.007382  0.0
H  H133  1  0.14686559  0.15378337  0.80821385  1  0.085393  0.00062  0.10423  0.112755  0.000335  1.020182  0.0
H  H134  1  0.24876760  0.37063953  0.91963511  1  0.046832  0.000765  0.101638  0.101885  0.000344  1.042528  0.0
H  H135  1  0.35235334  0.29802923  0.99327303  1  0.16732  0.001119  0.119901  0.094639  0.000181  1.053601  0.001
C  C136  1  0.93168305  0.22007975  0.40109818  1  1.555485  0.022874  0.220673  0.581433  0.021511  4.189629  0.02
C  C137  1  0.91691212  0.18641653  0.32372875  1  -0.089618  0.002602  -0.020372  -0.043688  0.001405  3.986255  0.001
C  C138  1  0.86603606  0.22747851  0.27736281  1  -0.033747  0.004953  -0.081382  -0.13716  0.003677  3.934012  0.003
C  C139  1  0.85000869  0.19601318  0.20578715  1  -0.058439  -0.000874  -0.010213  0.056114  -0.001007  4.011126  -0.001
C  C140  1  0.88481828  0.12172059  0.18122686  1  -0.05458  0.004776  -0.086057  -0.12255  0.003773  3.973283  0.003
C  C141  1  0.93642576  0.08090842  0.22705201  1  -0.161175  -0.000572  -0.096051  -0.086527  -0.000682  4.029263  -0.001
C  C142  1  0.95285866  0.11309455  0.29806916  1  0.07671  0.004764  -0.083881  -0.093847  0.003578  3.95662  0.003
C  C143  1  0.75177895  0.35747039  0.11343570  1  0.474508  0.005468  0.043132  0.092025  0.003927  3.988613  0.004
C  C144  1  0.80758808  0.31911818  0.15862047  1  -0.014083  -4e-05  -0.093461  -0.195397  -0.000441  3.965809  0.0
C  C145  1  0.79575943  0.23950805  0.15746482  1  -0.053086  0.004363  0.010263  0.115506  0.003276  3.99443  0.003
C  C146  1  0.72827228  0.20283159  0.10870247  1  -0.003027  4e-06  -0.084407  -0.171913  -0.000558  3.937063  0.0
C  C147  1  0.67470374  0.24552831  0.06602424  1  0.452729  0.005478  0.048107  0.100176  0.004028  3.92221  0.003
C  C148  1  0.58024831  0.54683422  0.10415608  1  1.5973  0.022925  0.218342  0.572055  0.021772  4.215301  0.02
C  C149  1  0.60403448  0.58602610  0.17880933  1  -0.048309  0.002651  -0.021516  -0.046131  0.001325  3.986181  0.001
C  C150  1  0.65343830  0.54616300  0.22680382  1  -0.022345  0.006367  -0.081794  -0.137908  0.004743  3.934425  0.004
C  C151  1  0.67712525  0.58160477  0.29612593  1  0.02252  -0.001133  -0.01174  0.051294  -0.001275  4.007601  -0.001
C  C152  1  0.64867536  0.65832361  0.31737290  1  -0.081407  0.005453  -0.084648  -0.119593  0.0043  3.964652  0.003
C  C153  1  0.59918102  0.69841856  0.26977496  1  -0.101866  -0.000536  -0.093451  -0.082426  -0.000656  4.012922  -0.001
C  C154  1  0.57778825  0.66280318  0.20061174  1  -0.000221  0.005018  -0.08249  -0.089538  0.003718  3.961986  0.003
C  C155  1  0.84723575  0.44038719  0.36432713  1  0.449457  0.006106  0.05148  0.105481  0.004379  3.940124  0.004
C  C156  1  0.79869225  0.48174569  0.31788313  1  -0.015646  -0.000343  -0.082909  -0.171725  -0.00077  3.943249  0.0
C  C157  1  0.73105805  0.53819217  0.34481470  1  -0.059831  0.005151  0.013855  0.117225  0.003853  3.984544  0.003
C  C158  1  0.71776870  0.55015872  0.41941102  1  0.020932  -0.000409  -0.087425  -0.183766  -0.0009  3.95092  0.0
C  C159  1  0.76977013  0.50617765  0.46204894  1  0.454185  0.006234  0.052473  0.106039  0.004494  3.966191  0.004
C  C160  1  0.56727403  0.03420576  0.10040074  1  1.571471  0.024082  0.223662  0.583694  0.02256  4.187545  0.021
C  C161  1  0.57940172  0.06531750  0.17847323  1  0.033968  0.002358  -0.021165  -0.04529  0.001232  3.989652  0.001
C  C162  1  0.63062901  0.02316904  0.22370184  1  -0.078037  0.005518  -0.081768  -0.138837  0.004109  3.945092  0.003
C  C163  1  0.64773250  0.05332649  0.29541511  1  -0.048094  -0.001115  -0.011719  0.054056  -0.001262  4.019251  -0.001
C  C164  1  0.61190255  0.12682586  0.32166330  1  -0.030321  0.005301  -0.085078  -0.121064  0.004202  3.967979  0.003
C  C165  1  0.55943620  0.16844774  0.27708628  1  -0.124171  -0.000697  -0.094833  -0.08114  -0.000832  4.025447  -0.001
C  C166  1  0.54311410  0.13808794  0.20561686  1  -0.028853  0.005261  -0.083149  -0.093084  0.00396  3.9514  0.003
C  C167  1  0.75481164  0.89177983  0.38305434  1  0.49538  0.006787  0.044329  0.092074  0.005077  3.977648  0.004
C  C168  1  0.69831237  0.92931425  0.33774942  1  -0.063901  -0.000472  -0.091538  -0.190581  -0.0009  3.96241  0.0
C  C169  1  0.70439543  0.00971939  0.34214006  1  -0.012432  0.005599  0.009632  0.110539  0.004247  3.999941  0.004
C  C170  1  0.76862742  0.04776249  0.39279203  1  0.037237  -0.000361  -0.085485  -0.174316  -0.000886  3.944705  0.0
C  C171  1  0.82398830  0.00584471  0.43492761  1  0.451127  0.006715  0.047073  0.097565  0.005085  3.925205  0.004
C  C172  1  0.43578873  0.29424301  0.11129903  1  1.589529  0.025383  0.224297  0.588203  0.023991  4.182774  0.023
C  C173  1  0.42973243  0.32429396  0.19012514  1  0.00822  0.002419  -0.01647  -0.032837  0.001173  3.96053  0.001
C  C174  1  0.37764622  0.28374407  0.23625682  1  -0.088836  0.005972  -0.078894  -0.13428  0.004452  3.940938  0.004
C  C175  1  0.36902562  0.31161635  0.30941416  1  -0.02675  -0.001266  -0.011657  0.051853  -0.001421  4.010238  -0.001
C  C176  1  0.41502439  0.38128382  0.33613775  1  -0.020156  0.005658  -0.08987  -0.127337  0.004486  3.980378  0.003
C  C177  1  0.46864656  0.42120747  0.29061743  1  -0.028147  -0.000724  -0.09748  -0.088506  -0.000822  4.034044  -0.001
C  C178  1  0.47556898  0.39335136  0.21764571  1  -0.084969  0.005512  -0.081444  -0.087517  0.004103  3.940113  0.003
C  C179  1  0.25074632  0.15180879  0.39394820  1  0.521949  0.006712  0.045495  0.093772  0.004976  3.966933  0.004
C  C180  1  0.30918715  0.18818111  0.34884551  1  -0.012991  -0.000555  -0.089965  -0.187629  -0.000972  3.952043  -0.001
C  C181  1  0.31189845  0.26898064  0.35698811  1  -0.026507  0.005654  0.009615  0.111548  0.004286  3.992047  0.004
C  C182  1  0.25483210  0.30815241  0.41186370  1  -0.050983  -0.000172  -0.089307  -0.18168  -0.000785  3.965756  0.0
C  C183  1  0.19652452  0.26766189  0.45349271  1  0.504606  0.006498  0.048395  0.098572  0.004947  3.929541  0.004
C  C184  1  0.43167977  0.77991346  0.09890265  1  1.555131  0.022873  0.22087  0.581608  0.021506  4.188986  0.02
C  C185  1  0.41691601  0.81357668  0.17627208  1  -0.09016  0.002601  -0.020615  -0.04407  0.001405  3.986659  0.001
C  C186  1  0.36603555  0.77251184  0.22263875  1  -0.03433  0.004954  -0.081238  -0.137012  0.003677  3.933825  0.003
C  C187  1  0.35000811  0.80398062  0.29421432  1  -0.057786  -0.000874  -0.010279  0.056021  -0.001006  4.010997  -0.001
C  C188  1  0.38482201  0.87827377  0.31877308  1  -0.054785  0.004776  -0.086014  -0.122411  0.003773  3.973041  0.003
C  C189  1  0.43642447  0.91908476  0.27294403  1  -0.160626  -0.000572  -0.096201  -0.086736  -0.000682  4.029746  -0.001
C  C190  1  0.45285817  0.88689577  0.20192917  1  0.077406  0.004763  -0.083713  -0.09358  0.003578  3.95681  0.003
C  C191  1  0.25176813  0.64252745  0.38656847  1  0.473717  0.005468  0.043085  0.092086  0.003927  3.988646  0.004
C  C192  1  0.30758165  0.68087966  0.34138473  1  -0.013942  -4e-05  -0.093427  -0.195417  -0.000441  3.965797  0.0
C  C193  1  0.29575880  0.76049035  0.34253781  1  -0.053043  0.004362  0.010169  0.115363  0.003276  3.994732  0.003
C  C194  1  0.22827449  0.79717140  0.39129971  1  -0.002963  4e-06  -0.084394  -0.171865  -0.000557  3.936876  0.0
C  C195  1  0.17470083  0.75447411  0.43397738  1  0.452804  0.005478  0.048032  0.100054  0.004028  3.922139  0.003
C  C196  1  0.08024039  0.45317335  0.39584147  1  1.597354  0.022934  0.218332  0.571923  0.021785  4.215419  0.02
C  C197  1  0.10402663  0.41397805  0.32119149  1  -0.048289  0.002649  -0.02142  -0.045948  0.001323  3.986069  0.001
C  C198  1  0.15343556  0.45384056  0.27319583  1  -0.02213  0.006373  -0.081727  -0.137798  0.004747  3.934195  0.004
C  C199  1  0.17712694  0.41839764  0.20387302  1  0.022589  -0.001134  -0.01169  0.051355  -0.001276  4.007677  -0.001
C  C200  1  0.14867272  0.34167823  0.18262706  1  -0.080851  0.005458  -0.084637  -0.11974  0.004304  3.96467  0.003
C  C201  1  0.09917399  0.30158848  0.23022835  1  -0.102077  -0.000537  -0.093568  -0.082487  -0.000657  4.013128  -0.001
C  C202  1  0.07777752  0.33720154  0.29938863  1  -0.000129  0.005021  -0.082498  -0.089545  0.003721  3.961912  0.003
C  C203  1  0.34724402  0.55961002  0.13567054  1  0.44957  0.006104  0.05148  0.105573  0.004377  3.940182  0.004
C  C204  1  0.29870120  0.51825442  0.18211706  1  -0.015712  -0.000343  -0.082887  -0.171601  -0.00077  3.943285  0.0
C  C205  1  0.23105906  0.46180851  0.15518560  1  -0.059783  0.00515  0.013903  0.117197  0.003853  3.984767  0.003
C  C206  1  0.21777341  0.44984025  0.08058960  1  0.02091  -0.000408  -0.087404  -0.183717  -0.000899  3.951183  0.0
C  C207  1  0.26977344  0.49382073  0.03795051  1  0.454036  0.006234  0.052481  0.106076  0.004494  3.96631  0.004
C  C208  1  0.06727695  0.96578630  0.39959591  1  1.572567  0.024071  0.223615  0.583696  0.022557  4.187888  0.021
C  C209  1  0.07940690  0.93467686  0.32152318  1  0.034407  0.002358  -0.021141  -0.045303  0.001232  3.99  0.001
C  C210  1  0.13063206  0.97682531  0.27629507  1  -0.081677  0.005517  -0.081875  -0.138997  0.004108  3.945172  0.003
C  C211  1  0.14773780  0.94667131  0.20458168  1  -0.047902  -0.001115  -0.011592  0.054177  -0.001262  4.019131  -0.001
C  C212  1  0.11189847  0.87317366  0.17833268  1  -0.030404  0.005299  -0.085136  -0.121073  0.004201  3.967892  0.003
C  C213  1  0.05943280  0.83154947  0.22290678  1  -0.123865  -0.000698  -0.094823  -0.081057  -0.000832  4.025524  -0.001
C  C214  1  0.04311423  0.86190411  0.29437874  1  -0.029409  0.005261  -0.08309  -0.093149  0.00396  3.951362  0.003
C  C215  1  0.25481487  0.10822142  0.11694389  1  0.495469  0.006787  0.044381  0.092148  0.005078  3.977724  0.004
C  C216  1  0.19831411  0.07068584  0.16224764  1  -0.063912  -0.000472  -0.091563  -0.190542  -0.0009  3.962476  0.0
C  C217  1  0.20440006  0.99028070  0.15785700  1  -0.012044  0.005599  0.009576  0.11042  0.004248  3.999812  0.004
C  C218  1  0.26863065  0.95223817  0.10720453  1  0.036447  -0.000361  -0.085462  -0.174203  -0.000886  3.9445  0.0
C  C219  1  0.32399157  0.99415595  0.06506997  1  0.451491  0.006715  0.047017  0.097544  0.005085  3.925162  0.004
C  C220  1  0.93577970  0.70575995  0.38869931  1  1.589676  0.025374  0.224334  0.588167  0.023987  4.182666  0.023
C  C221  1  0.92973507  0.67571474  0.30987128  1  -0.004589  0.00242  -0.01647  -0.032801  0.001171  3.960582  0.001
C  C222  1  0.87764239  0.71626062  0.26374284  1  -0.076069  0.005968  -0.078951  -0.134253  0.004451  3.941261  0.004
C  C223  1  0.86901825  0.68838263  0.19058956  1  -0.026499  -0.001266  -0.011608  0.051913  -0.001421  4.010035  -0.001
C  C224  1  0.91501704  0.61871517  0.16386806  1  -0.020802  0.005658  -0.09001  -0.127682  0.004486  3.980396  0.003
C  C225  1  0.96863990  0.57879438  0.20938712  1  -0.027729  -0.000724  -0.097479  -0.08814  -0.000822  4.034215  -0.001
C  C226  1  0.97556875  0.60665220  0.28235640  1  -0.085095  0.005512  -0.081415  -0.087727  0.004103  3.940427  0.003
C  C227  1  0.75073759  0.84818553  0.10604545  1  0.522066  0.006707  0.045479  0.093907  0.004973  3.966889  0.004
C  C228  1  0.80917836  0.81181726  0.15115286  1  -0.013094  -0.000555  -0.089906  -0.187585  -0.000971  3.952042  -0.001
C  C229  1  0.81189185  0.73101774  0.14301238  1  -0.026423  0.00565  0.009686  0.111578  0.004283  3.991892  0.004
C  C230  1  0.75483207  0.69184424  0.08813396  1  -0.051285  -0.000171  -0.089216  -0.181427  -0.000784  3.965655  0.0
C  C231  1  0.69652599  0.73232899  0.04650159  1  0.505546  0.006494  0.048259  0.098401  0.004944  3.92965  0.004
C  C232  1  0.06831459  0.77992606  0.59890666  1  1.554825  0.022868  0.220757  0.581518  0.021503  4.189333  0.02
C  C233  1  0.08308624  0.81358983  0.67627350  1  -0.088942  0.0026  -0.020447  -0.043773  0.001404  3.986314  0.001
C  C234  1  0.13395723  0.77252095  0.72263751  1  -0.033684  0.004953  -0.08139  -0.13722  0.003677  3.934011  0.003
C  C235  1  0.14998822  0.80398571  0.79421362  1  -0.058562  -0.000874  -0.01018  0.056169  -0.001007  4.011011  -0.001
C  C236  1  0.11517864  0.87827887  0.81877452  1  -0.054332  0.004774  -0.086016  -0.122389  0.003773  3.973165  0.003
C  C237  1  0.06357695  0.91909392  0.77294920  1  -0.161423  -0.000571  -0.096183  -0.086789  -0.000682  4.029628  -0.001
C  C238  1  0.04714332  0.88691009  0.70193394  1  0.076368  0.004762  -0.083728  -0.093617  0.003577  3.956593  0.003
C  C239  1  0.24822159  0.64252846  0.88655977  1  0.474267  0.00547  0.043141  0.092169  0.003929  3.988369  0.004
C  C240  1  0.19241101  0.68088010  0.84137599  1  -0.013673  -4e-05  -0.093487  -0.195485  -0.000442  3.965802  0.0
C  C241  1  0.20423966  0.76049024  0.84253323  1  -0.053082  0.004365  0.010232  0.115468  0.003277  3.994486  0.003
C  C242  1  0.27172536  0.79717186  0.89129464  1  -0.00291  3e-06  -0.084416  -0.171884  -0.000558  3.937026  0.0
C  C243  1  0.32529463  0.75447342  0.93397319  1  0.453017  0.005481  0.048077  0.100111  0.00403  3.922271  0.003
C  C244  1  0.41974932  0.45316575  0.89583582  1  1.597136  0.022925  0.218341  0.571942  0.02177  4.215273  0.02
C  C245  1  0.39596533  0.41397446  0.82118370  1  -0.048499  0.002649  -0.021568  -0.046248  0.001324  3.985975  0.001
C  C246  1  0.34656007  0.45384044  0.77319117  1  -0.022232  0.006368  -0.08177  -0.137871  0.004744  3.934294  0.004
C  C247  1  0.32287094  0.41840212  0.70386843  1  0.022093  -0.001134  -0.011834  0.051427  -0.001275  4.007612  -0.001
C  C248  1  0.35132301  0.34168044  0.68262640  1  -0.081026  0.005454  -0.084545  -0.119579  0.004301  3.964431  0.003
C  C249  1  0.40082097  0.30158376  0.73022360  1  -0.102161  -0.000537  -0.093616  -0.082678  -0.000656  4.012904  -0.001
C  C250  1  0.42221519  0.33719741  0.79938554  1  0.000185  0.005018  -0.082324  -0.089254  0.003718  3.961506  0.003
C  C251  1  0.15275175  0.55961457  0.63567455  1  0.449134  0.006108  0.051491  0.105531  0.004381  3.940357  0.004
C  C252  1  0.20129887  0.51825837  0.68211777  1  -0.015735  -0.000343  -0.082953  -0.171646  -0.000771  3.943296  0.0
C  C253  1  0.26894104  0.46181473  0.65518285  1  -0.059799  0.005153  0.013987  0.117152  0.003855  3.984674  0.003
C  C254  1  0.28222532  0.44985049  0.58058682  1  0.011376  -0.000398  -0.087344  -0.183534  -0.0009  3.950826  0.0
C  C255  1  0.23022099  0.49382811  0.53794846  1  0.464342  0.006225  0.052318  0.105714  0.004498  3.966421  0.004
C  C256  1  0.43272796  0.96579542  0.89959873  1  1.571321  0.024085  0.223627  0.583775  0.022562  4.18757  0.021
C  C257  1  0.42060244  0.93468197  0.82152868  1  0.034286  0.002357  -0.021247  -0.045559  0.001231  3.989897  0.001
C  C258  1  0.36937153  0.97682870  0.77630092  1  -0.07767  0.005518  -0.081798  -0.138804  0.00411  3.945155  0.003
C  C259  1  0.35226659  0.94667758  0.70458844  1  -0.047999  -0.001116  -0.011674  0.054137  -0.001262  4.019157  -0.001
C  C260  1  0.38810016  0.87317762  0.67833753  1  -0.030274  0.005303  -0.085077  -0.121047  0.004203  3.967735  0.003
C  C261  1  0.44056650  0.83155458  0.72291281  1  -0.124371  -0.000698  -0.094862  -0.081154  -0.000833  4.025391  -0.001
C  C262  1  0.45688861  0.86190978  0.79438218  1  -0.029189  0.005263  -0.083078  -0.092935  0.003962  3.951235  0.003
C  C263  1  0.24518745  0.10822191  0.61694361  1  0.495369  0.006787  0.044446  0.092275  0.005076  3.977575  0.004
C  C264  1  0.30168382  0.07068980  0.66225148  1  -0.06364  -0.000472  -0.091572  -0.190579  -0.0009  3.962442  0.0
C  C265  1  0.29560221  0.99028526  0.65786357  1  -0.012272  0.005599  0.009558  0.1104  0.004247  4.000038  0.004
C  C266  1  0.23137311  0.95223929  0.60721229  1  0.036594  -0.000361  -0.085471  -0.174216  -0.000886  3.944711  0.0
C  C267  1  0.17601224  0.99415418  0.56507422  1  0.451707  0.006714  0.047094  0.097553  0.005084  3.925299  0.004
C  C268  1  0.56421760  0.70575583  0.88869537  1  1.589578  0.025382  0.224222  0.588078  0.02399  4.182607  0.023
C  C269  1  0.57026883  0.67570720  0.80987115  1  -0.004452  0.002421  -0.016512  -0.032933  0.001172  3.960861  0.001
C  C270  1  0.62235649  0.71625594  0.76374145  1  -0.076029  0.005969  -0.078893  -0.134243  0.004452  3.941199  0.004
C  C271  1  0.63097998  0.68838139  0.69058647  1  -0.026951  -0.001266  -0.011687  0.051811  -0.001421  4.010173  -0.001
C  C272  1  0.58498194  0.61871220  0.66386532  1  -0.020299  0.005658  -0.089847  -0.127344  0.004486  3.980252  0.003
C  C273  1  0.53136049  0.57879028  0.70938533  1  -0.027821  -0.000724  -0.097504  -0.088284  -0.000822  4.034193  -0.001
C  C274  1  0.52443446  0.60664867  0.78235521  1  -0.085059  0.005512  -0.081405  -0.087605  0.004103  3.94042  0.003
C  C275  1  0.74925639  0.84818664  0.60605267  1  0.52211  0.00671  0.045457  0.093687  0.004975  3.966712  0.004
C  C276  1  0.69081556  0.81181549  0.65115816  1  -0.012902  -0.000555  -0.089961  -0.187636  -0.000971  3.952049  -0.001
C  C277  1  0.68810281  0.73101595  0.64301344  1  -0.026541  0.005652  0.009658  0.111653  0.004284  3.992066  0.004
C  C278  1  0.74516989  0.69184590  0.58813648  1  -0.051094  -0.000171  -0.089288  -0.181623  -0.000785  3.965693  0.0
C  C279  1  0.80347457  0.73233181  0.54650635  1  0.5046  0.006496  0.048311  0.098501  0.004945  3.929647  0.004
C  C280  1  0.56831931  0.22008138  0.90109496  1  1.554973  0.022874  0.220848  0.581515  0.021508  4.189362  0.02
C  C281  1  0.58308380  0.18641528  0.82372357  1  -0.088984  0.002601  -0.020411  -0.043776  0.001405  3.986299  0.001
C  C282  1  0.63396426  0.22748012  0.77735797  1  -0.033902  0.004953  -0.08141  -0.137148  0.003677  3.93386  0.003
C  C283  1  0.64999388  0.19601193  0.70578406  1  -0.058337  -0.000874  -0.01016  0.056198  -0.001007  4.011033  -0.001
C  C284  1  0.61518504  0.12171878  0.68122477  1  -0.05441  0.004776  -0.086057  -0.12258  0.003774  3.973186  0.003
C  C285  1  0.56358114  0.08090489  0.72704974  1  -0.16168  -0.000572  -0.096187  -0.086702  -0.000682  4.029473  -0.001
C  C286  1  0.54714526  0.11309273  0.79806499  1  0.076781  0.004764  -0.083743  -0.093764  0.003578  3.956607  0.003
C  C287  1  0.74822010  0.35747260  0.61343564  1  0.474565  0.005468  0.043167  0.09221  0.003927  3.98835  0.004
C  C288  1  0.69241019  0.31911809  0.65861962  1  -0.014009  -4e-05  -0.093502  -0.195501  -0.000441  3.96579  0.0
C  C289  1  0.70424102  0.23950796  0.65746290  1  -0.053021  0.004363  0.010256  0.115536  0.003276  3.994398  0.003
C  C290  1  0.77172677  0.20283149  0.60869892  1  -0.002881  4e-06  -0.084521  -0.17215  -0.000558  3.936748  0.0
C  C291  1  0.82529681  0.24553281  0.56602230  1  0.453011  0.005478  0.048164  0.100174  0.004029  3.922058  0.003
C  C292  1  0.91974422  0.54683306  0.60416769  1  1.597086  0.022927  0.218316  0.571914  0.021774  4.214943  0.02
C  C293  1  0.89597029  0.58602606  0.67881738  1  -0.048563  0.002649  -0.021595  -0.046191  0.001322  3.985896  0.001
C  C294  1  0.84655990  0.54616238  0.72681023  1  -0.02238  0.00637  -0.081706  -0.137755  0.004745  3.934201  0.004
C  C295  1  0.82287143  0.58160700  0.79612901  1  0.022531  -0.001134  -0.01179  0.051247  -0.001275  4.007744  -0.001
C  C296  1  0.85132636  0.65832581  0.81737278  1  -0.080877  0.005456  -0.084651  -0.119539  0.004302  3.964593  0.003
C  C297  1  0.90082075  0.69842019  0.76977526  1  -0.101957  -0.000537  -0.093539  -0.082654  -0.000656  4.013137  -0.001
C  C298  1  0.92221505  0.66280539  0.70061317  1  -5.1e-05  0.00502  -0.082402  -0.089394  0.00372  3.961775  0.003
C  C299  1  0.65276593  0.44038943  0.86432871  1  0.44912  0.006107  0.051533  0.105723  0.004378  3.939953  0.004
C  C300  1  0.70130730  0.48174907  0.81788589  1  -0.016356  -0.000343  -0.082952  -0.17182  -0.00077  3.943335  0.0
C  C301  1  0.76894437  0.53819269  0.84481812  1  -0.063885  0.005151  0.013915  0.117178  0.003853  3.984397  0.003
C  C302  1  0.78223871  0.55015809  0.91941535  1  0.024634  -0.000409  -0.087355  -0.183531  -0.0009  3.950464  0.0
C  C303  1  0.73023724  0.50617587  0.96205263  1  0.454359  0.006234  0.052385  0.105886  0.004494  3.966395  0.004
C  C304  1  0.93272648  0.03421199  0.60040267  1  1.572335  0.024072  0.223662  0.583679  0.022556  4.187693  0.021
C  C305  1  0.92059653  0.06532086  0.67847427  1  0.034376  0.002358  -0.021145  -0.045338  0.001232  3.989738  0.001
C  C306  1  0.86936993  0.02317126  0.72370329  1  -0.078116  0.005516  -0.081803  -0.138853  0.004108  3.945118  0.003
C  C307  1  0.85226853  0.05332524  0.79541455  1  -0.048076  -0.001115  -0.011701  0.054087  -0.001261  4.019212  -0.001
C  C308  1  0.88810352  0.12682521  0.82166544  1  -0.030329  0.0053  -0.085052  -0.120967  0.004201  3.967753  0.003
C  C309  1  0.94057136  0.16844767  0.77709059  1  -0.123934  -0.000698  -0.094884  -0.081142  -0.000832  4.025519  -0.001
C  C310  1  0.95688848  0.13809189  0.70562061  1  -0.029471  0.005261  -0.083104  -0.093053  0.00396  3.951397  0.003
C  C311  1  0.74518928  0.89177572  0.88305454  1  0.495346  0.006786  0.044341  0.092095  0.005076  3.977786  0.004
C  C312  1  0.80168643  0.92931073  0.83775019  1  -0.063927  -0.000472  -0.091577  -0.190506  -0.0009  3.962475  0.0
C  C313  1  0.79560338  0.00971585  0.84213871  1  -0.012152  0.005599  0.009572  0.110344  0.004247  4.000005  0.004
C  C314  1  0.73137423  0.04775896  0.89279285  1  0.036841  -0.000361  -0.085398  -0.174097  -0.000885  3.944507  0.0
C  C315  1  0.67601259  0.00584236  0.93493126  1  0.451439  0.006714  0.047018  0.097491  0.005084  3.925209  0.004
C  C316  1  0.06421359  0.29424292  0.61129560  1  1.589456  0.025388  0.224287  0.588163  0.023995  4.182407  0.023
C  C317  1  0.07027271  0.32429045  0.69012658  1  -0.004533  0.002423  -0.016497  -0.032851  0.001174  3.96048  0.001
C  C318  1  0.12235887  0.28374228  0.73625685  1  -0.076088  0.005968  -0.078969  -0.134314  0.004451  3.941139  0.004
C  C319  1  0.13097649  0.31161569  0.80941327  1  -0.02692  -0.001266  -0.011607  0.051923  -0.001421  4.009931  -0.001
C  C320  1  0.08497770  0.38128202  0.83613727  1  -0.02011  0.005657  -0.089966  -0.127601  0.004485  3.98056  0.003
C  C321  1  0.03135919  0.42120396  0.79061836  1  -0.028162  -0.000723  -0.097453  -0.088201  -0.000822  4.033976  -0.001
C  C322  1  0.02443324  0.39335073  0.71764701  1  -0.084911  0.005511  -0.081416  -0.087687  0.004103  3.940113  0.003
C  C323  1  0.24926874  0.15181047  0.89395390  1  0.522059  0.00671  0.045563  0.094088  0.004974  3.966712  0.004
C  C324  1  0.19082362  0.18818336  0.84884973  1  -0.012724  -0.000556  -0.089905  -0.187639  -0.000972  3.952062  -0.001
C  C325  1  0.18810869  0.26898230  0.85698960  1  -0.026428  0.005651  0.009661  0.111634  0.004284  3.991903  0.004
C  C326  1  0.24516701  0.30815636  0.91186598  1  -0.051232  -0.000171  -0.089239  -0.181468  -0.000785  3.965506  0.0
C  C327  1  0.30347889  0.26767103  0.95349827  1  0.505333  0.006498  0.048298  0.098555  0.004946  3.929385  0.004
N  N328  1  0.68534836  0.32205536  0.06794551  1  -1.242288  0.045844  -0.311353  -0.249092  0.03274  3.46989  0.018
N  N329  1  0.83348655  0.45158241  0.43574155  1  -1.221339  0.045381  -0.306089  -0.238225  0.031713  3.461732  0.016
N  N330  1  0.81732155  0.92881107  0.43081650  1  -1.291715  0.048274  -0.318269  -0.253382  0.033813  3.504099  0.017
N  N331  1  0.19384436  0.19021290  0.44506565  1  -1.293461  0.04759  -0.314218  -0.254098  0.03366  3.482483  0.017
N  N332  1  0.18533894  0.67794765  0.43205776  1  -1.241784  0.045832  -0.311228  -0.249018  0.032738  3.47006  0.018
N  N333  1  0.33349056  0.54841654  0.06425740  1  -1.221326  0.04538  -0.306132  -0.238348  0.031717  3.461739  0.016
N  N334  1  0.31732483  0.07118960  0.06918269  1  -1.291809  0.048273  -0.318224  -0.253308  0.033816  3.504157  0.017
N  N335  1  0.69383785  0.80977856  0.05492819  1  -1.293505  0.047591  -0.31418  -0.254018  0.033653  3.482412  0.017
N  N336  1  0.31465217  0.67794637  0.93205032  1  -1.242393  0.045856  -0.311302  -0.249102  0.03274  3.469852  0.018
N  N337  1  0.16649733  0.54841878  0.56426058  1  -1.221192  0.045386  -0.305964  -0.238125  0.031715  3.461887  0.016
N  N338  1  0.18267899  0.07118722  0.56918208  1  -1.291708  0.048275  -0.318253  -0.253398  0.033814  3.504074  0.017
N  N339  1  0.80615618  0.80978367  0.55493218  1  -1.293454  0.047603  -0.314189  -0.254053  0.033657  3.482301  0.017
N  N340  1  0.81465145  0.32205870  0.56794343  1  -1.242743  0.045839  -0.311386  -0.249219  0.03274  3.470017  0.018
N  N341  1  0.66651577  0.45158350  0.93574352  1  -1.220904  0.045381  -0.306097  -0.23832  0.031715  3.461671  0.016
N  N342  1  0.68268150  0.92880870  0.93081801  1  -1.291493  0.048269  -0.318188  -0.253252  0.033813  3.504188  0.017
N  N343  1  0.30616703  0.19021974  0.94507039  1  -1.293585  0.047596  -0.314259  -0.254237  0.033659  3.482388  0.017
O  O344  1  0.96939581  0.17717620  0.44255646  1  -1.216638  0.062108  -0.309122  -0.551946  0.044746  2.381239  0.027
O  O345  1  0.90309629  0.28880547  0.41987996  1  -1.197921  0.065699  -0.30764  -0.565985  0.048143  2.367122  0.034
O  O346  1  0.54726730  0.58744776  0.05931218  1  -1.204762  0.058271  -0.304888  -0.551308  0.041718  2.376649  0.025
O  O347  1  0.59801302  0.47491867  0.09155868  1  -1.216322  0.06742  -0.306773  -0.567987  0.049353  2.390821  0.034
O  O348  1  0.53608317  0.07963538  0.05874338  1  -1.219361  0.059523  -0.308589  -0.55357  0.042822  2.374461  0.026
O  O349  1  0.59325376  0.96478713  0.08106028  1  -1.207782  0.067411  -0.308086  -0.569248  0.050221  2.373475  0.035
O  O350  1  0.46474266  0.33981247  0.06924079  1  -1.214744  0.062098  -0.309076  -0.549864  0.043825  2.375544  0.027
O  O351  1  0.40875028  0.22498866  0.09207407  1  -1.214992  0.067507  -0.307775  -0.574089  0.050352  2.37596  0.035
O  O352  1  0.46938751  0.82281988  0.05744418  1  -1.216541  0.062114  -0.309288  -0.552168  0.044748  2.381002  0.027
O  O353  1  0.40309086  0.71119060  0.08011966  1  -1.197857  0.065723  -0.307607  -0.56584  0.048136  2.366754  0.034
O  O354  1  0.04726223  0.41255579  0.44068435  1  -1.204837  0.058299  -0.304984  -0.551267  0.041726  2.376627  0.025
O  O355  1  0.09800363  0.52508950  0.40844106  1  -1.216483  0.067448  -0.306714  -0.567982  0.049361  2.391036  0.034
O  O356  1  0.03607953  0.92036068  0.44124955  1  -1.219473  0.059516  -0.308483  -0.553405  0.042811  2.374383  0.026
O  O357  1  0.09325812  0.03520892  0.41893262  1  -1.20877  0.067416  -0.308135  -0.569308  0.050221  2.373546  0.035
O  O358  1  0.96471766  0.66017781  0.43075169  1  -1.21483  0.062076  -0.309053  -0.549767  0.043807  2.375359  0.027
O  O359  1  0.90872892  0.77501203  0.40792877  1  -1.21499  0.067485  -0.307821  -0.574194  0.050341  2.375936  0.035
O  O360  1  0.03060472  0.82282961  0.55744838  1  -1.216661  0.062103  -0.30918  -0.552005  0.044744  2.381173  0.027
O  O361  1  0.09689483  0.71119805  0.58012724  1  -1.19776  0.06568  -0.307679  -0.566015  0.048136  2.366845  0.034
O  O362  1  0.45273034  0.41254932  0.94067564  1  -1.204581  0.058284  -0.304913  -0.551277  0.041717  2.376543  0.025
O  O363  1  0.40198172  0.52508189  0.90843382  1  -1.216329  0.067426  -0.30681  -0.567929  0.049347  2.390857  0.034
O  O364  1  0.46391736  0.92036233  0.94125247  1  -1.219346  0.059525  -0.308517  -0.553492  0.042822  2.374431  0.026
O  O365  1  0.40674750  0.03521404  0.91893867  1  -1.20771  0.06742  -0.308117  -0.569298  0.050226  2.373532  0.035
O  O366  1  0.53526584  0.66018234  0.93075151  1  -1.214824  0.062077  -0.30903  -0.549754  0.043817  2.375345  0.027
O  O367  1  0.59126112  0.77500903  0.90792071  1  -1.21495  0.067485  -0.307698  -0.573986  0.050346  2.375828  0.035
O  O368  1  0.53061158  0.17717552  0.94255191  1  -1.216519  0.062102  -0.30924  -0.552033  0.044742  2.381129  0.027
O  O369  1  0.59691402  0.28880709  0.91987513  1  -1.197997  0.065701  -0.30767  -0.56592  0.048137  2.366851  0.034
O  O370  1  0.95271731  0.58745003  0.55932314  1  -1.204517  0.058275  -0.305029  -0.551454  0.041721  2.376413  0.025
O  O371  1  0.90197590  0.47491577  0.59156955  1  -1.216255  0.067429  -0.306654  -0.567774  0.04935  2.390783  0.034
O  O372  1  0.96392390  0.07963701  0.55874471  1  -1.21941  0.059504  -0.308613  -0.553535  0.042814  2.374303  0.026
O  O373  1  0.90674314  0.96479225  0.58106686  1  -1.20867  0.067414  -0.308078  -0.569225  0.050221  2.37363  0.035
O  O374  1  0.03525609  0.33981585  0.56924153  1  -1.214722  0.062095  -0.309014  -0.549753  0.043824  2.375493  0.027
O  O375  1  0.09126148  0.22498797  0.59206684  1  -1.214889  0.067491  -0.307818  -0.574181  0.050351  2.375806  0.035
