# generated using pymatgen
data_AlH9C14O5
_symmetry_space_group_name_H-M   'P 1'
_cell_length_a   18.53208025
_cell_length_b   18.53210715
_cell_length_c   37.64755275
_cell_angle_alpha   90.00006347
_cell_angle_beta   89.99996923
_cell_angle_gamma   90.00003496
_symmetry_Int_Tables_number   1
_chemical_formula_structural   AlH9C14O5
_chemical_formula_sum   'Al16 H144 C224 O80'
_cell_volume   12929.61892758
_cell_formula_units_Z   16
loop_
 _symmetry_equiv_pos_site_id
 _symmetry_equiv_pos_as_xyz
  1  'x, y, z'
loop_
 _atom_site_type_symbol
 _atom_site_label
 _atom_site_symmetry_multiplicity
 _atom_site_fract_x
 _atom_site_fract_y
 _atom_site_fract_z
 _atom_site_occupancy
 _atom_site_pbe_bader_charge
 _atom_site_pbe_bader_spin_density
 _atom_site_pbe_cm5_charge
 _atom_site_pbe_ddec_charge
 _atom_site_pbe_ddec_spin_density
 _atom_site_pbe_ddec_sum_bond_order
 _atom_site_pbe_magmom
Al  Al0  1  0.32877117  0.67122868  0.00000014  1  2.501217  0  0.40038  1.639424  0  2.577105  0
Al  Al1  1  0.82877202  0.82877273  0.49999968  1  2.50121  0  0.400394  1.639446  0  2.576953  0
Al  Al2  1  0.67122804  0.32877070  0.00000027  1  2.501226  0  0.400397  1.639439  0  2.577021  0
Al  Al3  1  0.17122772  0.17122723  0.50000012  1  2.501235  0  0.400395  1.639436  0  2.576938  0
Al  Al4  1  0.40664851  0.63944827  0.07903740  1  2.49878  0  0.391988  1.639335  0  2.590689  0
Al  Al5  1  0.86055041  0.90664849  0.57903777  1  2.498738  0  0.391992  1.639412  0  2.590529  0
Al  Al6  1  0.59335008  0.36055020  0.07903756  1  2.498734  0  0.39199  1.639327  0  2.590666  0
Al  Al7  1  0.13945033  0.09335112  0.57903818  1  2.498691  0  0.392016  1.639351  0  2.590574  0
Al  Al8  1  0.90664784  0.86055157  0.42096187  1  2.498736  0  0.391983  1.639558  0  2.590393  0
Al  Al9  1  0.09335091  0.13945038  0.42096232  1  2.498661  0  0.391986  1.639384  0  2.590605  0
Al  Al10  1  0.63945023  0.40664846  0.92096268  1  2.498654  0  0.392001  1.639408  0  2.590514  0
Al  Al11  1  0.36055068  0.59335191  0.92096250  1  2.498648  0  0.392005  1.639454  0  2.590516  0
Al  Al12  1  0.50000062  0.49999901  0.11122297  1  2.495093  0  0.39281  1.640756  0  2.582358  0
Al  Al13  1  0.99999942  0.99999953  0.61122287  1  2.495061  0  0.392809  1.640721  0  2.582396  0
Al  Al14  1  0.99999900  0.99999982  0.38877654  1  2.495092  0  0.392795  1.640671  0  2.582475  0
Al  Al15  1  0.50000020  0.49999988  0.88877657  1  2.495133  0  0.392825  1.640744  0  2.582352  0
H  H16  1  0.37920745  0.56209597  0.02838043  1  0.597505  0  0.350773  0.427545  0  0.856827  0
H  H17  1  0.93790548  0.87920689  0.52838001  1  0.597479  0  0.350756  0.427518  0  0.856831  0
H  H18  1  0.62079335  0.43790347  0.02838010  1  0.597525  0  0.350783  0.427581  0  0.856739  0
H  H19  1  0.06209585  0.12079206  0.52838019  1  0.597509  0  0.350761  0.427532  0  0.856774  0
H  H20  1  0.87920732  0.93790548  0.47162044  1  0.59747  0  0.350762  0.427543  0  0.856801  0
H  H21  1  0.12079300  0.06209496  0.47162030  1  0.59748  0  0.350762  0.427516  0  0.856839  0
H  H22  1  0.56209515  0.37920693  0.97162069  1  0.597473  0  0.350778  0.427561  0  0.856822  0
H  H23  1  0.43790463  0.62079356  0.97162024  1  0.597494  0  0.350774  0.427579  0  0.856783  0
H  H24  1  0.49354763  0.79353272  0.02482168  1  0.079125  0  0.121477  0.024244  0  0.936637  0
H  H25  1  0.70646415  0.99354945  0.52482260  1  0.079166  0  0.121456  0.024215  0  0.936588  0
H  H26  1  0.50644994  0.20646402  0.02482126  1  0.07915  0  0.121428  0.02417  0  0.936622  0
H  H27  1  0.29353665  0.00644949  0.52482186  1  0.079138  0  0.12143  0.024181  0  0.936618  0
H  H28  1  0.99354897  0.70646448  0.47517756  1  0.079188  0  0.121465  0.024233  0  0.936596  0
H  H29  1  0.00644865  0.29353650  0.47517864  1  0.079004  0  0.121425  0.024152  0  0.936612  0
H  H30  1  0.79353493  0.49354802  0.97517922  1  0.079195  0  0.12145  0.024193  0  0.936642  0
H  H31  1  0.20646538  0.50645193  0.97517877  1  0.079206  0  0.121455  0.024219  0  0.936622  0
H  H32  1  0.52421059  0.59170575  0.06716993  1  0.617529  0  0.347643  0.42239  0  0.867501  0
H  H33  1  0.90829384  0.02420971  0.56717009  1  0.617589  0  0.347657  0.422418  0  0.867478  0
H  H34  1  0.47578855  0.40829432  0.06716989  1  0.617513  0  0.347642  0.422396  0  0.867519  0
H  H35  1  0.09170583  0.97578933  0.56716992  1  0.617528  0  0.347646  0.422412  0  0.867487  0
H  H36  1  0.02420941  0.90829386  0.43282997  1  0.617561  0  0.347682  0.422449  0  0.867452  0
H  H37  1  0.97578933  0.09170595  0.43283042  1  0.617516  0  0.347645  0.422382  0  0.867524  0
H  H38  1  0.59170603  0.52421091  0.93283015  1  0.617444  0  0.347652  0.422389  0  0.867505  0
H  H39  1  0.40829487  0.47578949  0.93283017  1  0.617532  0  0.34765  0.422403  0  0.867487  0
H  H40  1  0.20420384  0.55254070  0.11044183  1  0.101716  0  0.106151  0.11023  0  1.011068  0
H  H41  1  0.94745909  0.70420152  0.61044134  1  0.10168  0  0.106144  0.110186  0  1.011096  0
H  H42  1  0.79579849  0.44745893  0.11044146  1  0.101687  0  0.106139  0.110191  0  1.011101  0
H  H43  1  0.05254000  0.29579815  0.61044135  1  0.101688  0  0.106146  0.110187  0  1.011115  0
H  H44  1  0.70420273  0.94746010  0.38955802  1  0.10171  0  0.106166  0.110231  0  1.011084  0
H  H45  1  0.29579930  0.05254070  0.38955863  1  0.101678  0  0.106161  0.11017  0  1.01109  0
H  H46  1  0.55254143  0.20420245  0.88955900  1  0.101671  0  0.106135  0.110173  0  1.011104  0
H  H47  1  0.44745951  0.79579785  0.88955917  1  0.10168  0  0.106142  0.110171  0  1.011136  0
H  H48  1  0.34371590  0.38556949  0.14991605  1  0.125547  0  0.110539  0.11642  0  0.995013  0
H  H49  1  0.11442904  0.84371540  0.64991656  1  0.125575  0  0.110516  0.116411  0  0.994979  0
H  H50  1  0.65628423  0.61442861  0.14991527  1  0.125721  0  0.110521  0.116412  0  0.994967  0
H  H51  1  0.88557162  0.15628382  0.64991680  1  0.12557  0  0.110526  0.116408  0  0.994943  0
H  H52  1  0.84371570  0.11443016  0.35008376  1  0.125566  0  0.110522  0.116442  0  0.994912  0
H  H53  1  0.15628421  0.88557162  0.35008380  1  0.125584  0  0.110517  0.116402  0  0.994981  0
H  H54  1  0.38557157  0.34371536  0.85008425  1  0.125588  0  0.110509  0.116369  0  0.995025  0
H  H55  1  0.61442887  0.65628485  0.85008430  1  0.125591  0  0.110513  0.116384  0  0.995004  0
H  H56  1  0.41625682  0.48398160  0.78736175  1  0.100901  0  0.109817  0.114504  0  0.993858  0
H  H57  1  0.01601775  0.91625933  0.28736076  1  0.100822  0  0.109802  0.114435  0  0.993854  0
H  H58  1  0.58374153  0.51601740  0.78736120  1  0.100859  0  0.109738  0.114348  0  0.993876  0
H  H59  1  0.98398169  0.08374070  0.28736120  1  0.100866  0  0.10981  0.114463  0  0.99384  0
H  H60  1  0.91625995  0.01601761  0.71263956  1  0.100858  0  0.109776  0.114434  0  0.993897  0
H  H61  1  0.08374011  0.98398176  0.71263861  1  0.100818  0  0.109798  0.114479  0  0.99384  0
H  H62  1  0.48398130  0.41625850  0.21263831  1  0.100839  0  0.109828  0.114495  0  0.993764  0
H  H63  1  0.51601984  0.58374190  0.21263782  1  0.100867  0  0.109821  0.114492  0  0.993807  0
H  H64  1  0.23661105  0.59535479  0.83388408  1  0.101893  0  0.111773  0.118085  0  0.990978  0
H  H65  1  0.90464646  0.73661198  0.33388420  1  0.10141  0  0.111759  0.118063  0  0.991023  0
H  H66  1  0.76338941  0.40464701  0.83388422  1  0.101404  0  0.111783  0.118117  0  0.991005  0
H  H67  1  0.09535347  0.26338815  0.33388391  1  0.101411  0  0.111778  0.118099  0  0.991004  0
H  H68  1  0.73661231  0.90464608  0.66611596  1  0.101916  0  0.111791  0.118116  0  0.991003  0
H  H69  1  0.26338780  0.09535318  0.66611527  1  0.101398  0  0.111781  0.118127  0  0.990943  0
H  H70  1  0.59535408  0.23661135  0.16611596  1  0.101415  0  0.111795  0.118143  0  0.990967  0
H  H71  1  0.40464549  0.76338949  0.16611560  1  0.101405  0  0.111783  0.118107  0  0.990937  0
H  H72  1  0.09766046  0.48752758  0.13478790  1  0.070306  0  0.099942  0.100562  0  1.006625  0
H  H73  1  0.01247388  0.59766022  0.63478697  1  0.070289  0  0.09994  0.100564  0  1.006638  0
H  H74  1  0.90234077  0.51247426  0.13478780  1  0.07028  0  0.099911  0.100506  0  1.006646  0
H  H75  1  0.98752572  0.40233951  0.63478706  1  0.070333  0  0.099946  0.100584  0  1.006576  0
H  H76  1  0.59765964  0.01247354  0.36521251  1  0.070308  0  0.099924  0.100536  0  1.006663  0
H  H77  1  0.40234079  0.98752612  0.36521306  1  0.070284  0  0.099926  0.100549  0  1.006637  0
H  H78  1  0.48752713  0.09766028  0.86521264  1  0.070317  0  0.099946  0.100564  0  1.006622  0
H  H79  1  0.51247384  0.90233997  0.86521339  1  0.070309  0  0.099939  0.100587  0  1.006603  0
H  H80  1  0.23782544  0.32066591  0.17502949  1  0.077439  0  0.103197  0.104354  0  1.000835  0
H  H81  1  0.17933375  0.73782517  0.67502971  1  0.077469  0  0.103196  0.104346  0  1.000849  0
H  H82  1  0.76217305  0.67933440  0.17502846  1  0.077528  0  0.103217  0.104413  0  1.000817  0
H  H83  1  0.82066689  0.26217411  0.67502976  1  0.077475  0  0.103207  0.104356  0  1.000822  0
H  H84  1  0.73782476  0.17933422  0.32497088  1  0.077441  0  0.103218  0.104399  0  1.000843  0
H  H85  1  0.26217356  0.82066697  0.32497058  1  0.07748  0  0.103186  0.104333  0  1.000848  0
H  H86  1  0.32066735  0.23782503  0.82497051  1  0.0775  0  0.103195  0.104358  0  1.00085  0
H  H87  1  0.67933366  0.76217458  0.82497087  1  0.077465  0  0.103186  0.104347  0  1.000833  0
H  H88  1  0.35495828  0.48580915  0.72851278  1  0.07245  0  0.101934  0.102628  0  1.002719  0
H  H89  1  0.01419012  0.85495863  0.22851176  1  0.072426  0  0.101934  0.10259  0  1.002677  0
H  H90  1  0.64504175  0.51418917  0.72851222  1  0.072435  0  0.101942  0.102645  0  1.002657  0
H  H91  1  0.98581046  0.14503965  0.22851144  1  0.072409  0  0.101936  0.10261  0  1.002616  0
H  H92  1  0.85495865  0.01419056  0.77148828  1  0.072416  0  0.101943  0.102619  0  1.002694  0
H  H93  1  0.14504026  0.98581164  0.77148785  1  0.072416  0  0.10195  0.102623  0  1.002718  0
H  H94  1  0.48580997  0.35495901  0.27148753  1  0.072439  0  0.101947  0.102658  0  1.002694  0
H  H95  1  0.51419165  0.64504044  0.27148734  1  0.072434  0  0.101925  0.102617  0  1.002706  0
H  H96  1  0.17424356  0.59738739  0.77529675  1  0.044819  0  0.102387  0.103018  0  1.001308  0
H  H97  1  0.90261432  0.67424232  0.27529737  1  0.044823  0  0.102379  0.103045  0  1.00126  0
H  H98  1  0.82575859  0.40261427  0.77529741  1  0.04479  0  0.102361  0.103006  0  1.001288  0
H  H99  1  0.09738675  0.32575714  0.27529712  1  0.044831  0  0.102377  0.103008  0  1.001262  0
H  H100  1  0.67424259  0.90261398  0.72470277  1  0.044823  0  0.102357  0.102988  0  1.001321  0
H  H101  1  0.32575637  0.09738757  0.72470233  1  0.044813  0  0.10239  0.103025  0  1.001268  0
H  H102  1  0.59738618  0.17424344  0.22470302  1  0.044837  0  0.102382  0.103041  0  1.001269  0
H  H103  1  0.40261278  0.82575645  0.22470322  1  0.044823  0  0.102382  0.103009  0  1.001294  0
H  H104  1  0.03414085  0.37823129  0.12210684  1  0.099932  0  0.100825  0.099866  0  1.022239  0
H  H105  1  0.12177245  0.53414129  0.62210750  1  0.099971  0  0.10087  0.099918  0  1.022216  0
H  H106  1  0.96585877  0.62176999  0.12210785  1  0.099975  0  0.100807  0.099871  0  1.022334  0
H  H107  1  0.87822879  0.46585949  0.62210765  1  0.099904  0  0.100808  0.099866  0  1.022382  0
H  H108  1  0.53414116  0.12176980  0.37789385  1  0.099893  0  0.100835  0.099844  0  1.022256  0
H  H109  1  0.46586034  0.87823097  0.37789327  1  0.099945  0  0.100822  0.099858  0  1.022252  0
H  H110  1  0.37823122  0.03414077  0.87789314  1  0.099941  0  0.100832  0.099895  0  1.022243  0
H  H111  1  0.62176811  0.96585950  0.87789363  1  0.099842  0  0.100825  0.099875  0  1.022213  0
H  H112  1  0.14659065  0.32538423  0.21870167  1  0.072006  0  0.101741  0.102272  0  1.0161  0
H  H113  1  0.17461593  0.64659004  0.71870211  1  0.071956  0  0.101736  0.10223  0  1.016165  0
H  H114  1  0.85340833  0.67461726  0.21870140  1  0.072009  0  0.101745  0.102283  0  1.016172  0
H  H115  1  0.82538466  0.35340772  0.71870168  1  0.072  0  0.101726  0.102234  0  1.016139  0
H  H116  1  0.64658948  0.17461584  0.28129793  1  0.071961  0  0.101741  0.102271  0  1.016198  0
H  H117  1  0.35340996  0.82538201  0.28129841  1  0.072001  0  0.101742  0.102229  0  1.016137  0
H  H118  1  0.32538457  0.14659035  0.78129832  1  0.071947  0  0.101751  0.102269  0  1.016169  0
H  H119  1  0.67461649  0.85340863  0.78129874  1  0.072022  0  0.101707  0.102214  0  1.016199  0
H  H120  1  0.26239663  0.43527679  0.69891776  1  0.056626  0  0.101655  0.100911  0  1.023081  0
H  H121  1  0.06472357  0.76239655  0.19891778  1  0.056641  0  0.101632  0.1009  0  1.023039  0
H  H122  1  0.73760344  0.56472309  0.69891800  1  0.056639  0  0.101629  0.100903  0  1.023064  0
H  H123  1  0.93527705  0.23760382  0.19891752  1  0.056667  0  0.101623  0.100903  0  1.023  0
H  H124  1  0.76239538  0.06472340  0.80108227  1  0.056653  0  0.101637  0.100918  0  1.023061  0
H  H125  1  0.23760404  0.93527778  0.80108231  1  0.056673  0  0.101631  0.100873  0  1.023041  0
H  H126  1  0.43527701  0.26239643  0.30108227  1  0.056639  0  0.10163  0.100898  0  1.023063  0
H  H127  1  0.56472350  0.73760417  0.30108238  1  0.056638  0  0.101645  0.100917  0  1.023064  0
H  H128  1  0.97573346  0.29765192  0.08585547  1  0.052641  0  0.102822  0.104282  0  1.00123  0
H  H129  1  0.20235056  0.47573292  0.58585465  1  0.052644  0  0.102826  0.104266  0  1.00121  0
H  H130  1  0.02426620  0.70234765  0.08585491  1  0.052603  0  0.102816  0.104312  0  1.001227  0
H  H131  1  0.79765071  0.52426616  0.58585512  1  0.052633  0  0.102826  0.104299  0  1.001195  0
H  H132  1  0.47573542  0.20235105  0.41414511  1  0.052596  0  0.102805  0.104249  0  1.001248  0
H  H133  1  0.52426388  0.79764926  0.41414500  1  0.052589  0  0.102805  0.104249  0  1.001251  0
H  H134  1  0.29765176  0.97573312  0.91414464  1  0.052635  0  0.102816  0.104277  0  1.001242  0
H  H135  1  0.70234916  0.02426670  0.91414486  1  0.052646  0  0.102816  0.104272  0  1.001199  0
H  H136  1  0.83714131  0.29677513  0.17786890  1  0.025117  0  0.103148  0.10434  0  1.000162  0
H  H137  1  0.20322355  0.33714112  0.67786883  1  0.025129  0  0.103167  0.104377  0  1.000118  0
H  H138  1  0.16285879  0.70322357  0.17786857  1  0.025145  0  0.103132  0.104332  0  1.000045  0
H  H139  1  0.79677709  0.66285925  0.67786884  1  0.025134  0  0.103118  0.104303  0  1.000064  0
H  H140  1  0.33714067  0.20322452  0.32213171  1  0.025162  0  0.103115  0.104296  0  1.00014  0
H  H141  1  0.66285819  0.79677666  0.32213182  1  0.025166  0  0.103113  0.104287  0  1.000136  0
H  H142  1  0.29677707  0.83714165  0.82213118  1  0.025153  0  0.103113  0.104287  0  1.000065  0
H  H143  1  0.70322503  0.16285958  0.82213121  1  0.025127  0  0.103105  0.104276  0  1.000105  0
H  H144  1  0.86748336  0.28722993  0.04671216  1  0.110394  0  0.11355  0.119523  0  0.984524  0
H  H145  1  0.21277247  0.36748237  0.54671157  1  0.110377  0  0.113519  0.119453  0  0.984584  0
H  H146  1  0.13251473  0.71277225  0.04671105  1  0.110331  0  0.113498  0.1195  0  0.984517  0
H  H147  1  0.78722776  0.63251608  0.54671157  1  0.110374  0  0.113489  0.119425  0  0.984571  0
H  H148  1  0.36748582  0.21277459  0.45328870  1  0.11034  0  0.113486  0.119484  0  0.98451  0
H  H149  1  0.63251452  0.78722527  0.45328856  1  0.110345  0  0.113504  0.11946  0  0.984571  0
H  H150  1  0.28722816  0.86748481  0.95328819  1  0.110372  0  0.113493  0.119408  0  0.98457  0
H  H151  1  0.71277271  0.13251671  0.95328820  1  0.110373  0  0.113533  0.119505  0  0.984552  0
H  H152  1  0.72989217  0.28525936  0.13839012  1  0.113693  0  0.111953  0.115982  0  0.999502  0
H  H153  1  0.21473762  0.22989153  0.63839027  1  0.113682  0  0.111977  0.116075  0  0.999419  0
H  H154  1  0.27010797  0.71474087  0.13838923  1  0.113119  0  0.111996  0.116091  0  0.999409  0
H  H155  1  0.78526251  0.77010820  0.63838981  1  0.113694  0  0.111987  0.116104  0  0.999393  0
H  H156  1  0.22989257  0.21474076  0.36161078  1  0.112912  0  0.111985  0.116068  0  0.999345  0
H  H157  1  0.77010679  0.78526105  0.36161087  1  0.112926  0  0.112022  0.116155  0  0.999347  0
H  H158  1  0.28526023  0.72989161  0.86160995  1  0.113795  0  0.111975  0.116096  0  0.999426  0
H  H159  1  0.71474182  0.27010809  0.86161030  1  0.11379  0  0.111972  0.116072  0  0.99942  0
C  C160  1  0.45485848  0.74943465  0.03038300  1  1.581311  0  0.200316  0.543003  0  4.161042  0
C  C161  1  0.75056334  0.95485986  0.53038470  1  1.581614  0  0.200296  0.543037  0  4.160717  0
C  C162  1  0.54514016  0.25056426  0.03038311  1  1.581235  0  0.200309  0.543008  0  4.160995  0
C  C163  1  0.24943529  0.04513909  0.53038372  1  1.581284  0  0.200309  0.543029  0  4.161032  0
C  C164  1  0.95485986  0.75056415  0.46961520  1  1.581563  0  0.200264  0.542993  0  4.160755  0
C  C165  1  0.04513830  0.24943467  0.46961651  1  1.581419  0  0.200373  0.543161  0  4.160937  0
C  C166  1  0.74943571  0.45485893  0.96961790  1  1.58121  0  0.200302  0.543006  0  4.161046  0
C  C167  1  0.25056352  0.54514263  0.96961719  1  1.581206  0  0.200297  0.542965  0  4.161084  0
C  C168  1  0.34503421  0.50812270  0.11307623  1  1.558253  0  0.26444  0.6345  0  4.107077  0
C  C169  1  0.99187616  0.84503280  0.61307660  1  1.558242  0  0.264419  0.634449  0  4.107119  0
C  C170  1  0.65496811  0.49187478  0.11307645  1  1.558243  0  0.264419  0.634456  0  4.107018  0
C  C171  1  0.00812454  0.15496688  0.61307761  1  1.558233  0  0.264363  0.634355  0  4.107423  0
C  C172  1  0.84503367  0.99187603  0.38692225  1  1.558251  0  0.264395  0.634451  0  4.107235  0
C  C173  1  0.15496620  0.00812422  0.38692341  1  1.558253  0  0.264464  0.634489  0  4.10718  0
C  C174  1  0.50812391  0.34503369  0.88692275  1  1.558237  0  0.264392  0.634407  0  4.107279  0
C  C175  1  0.49187704  0.65496606  0.88692337  1  1.558243  0  0.26443  0.63444  0  4.107119  0
C  C176  1  0.36653492  0.53939521  0.84942583  1  1.570802  0  0.265396  0.630583  0  4.109879  0
C  C177  1  0.96060405  0.86653572  0.34942574  1  1.570833  0  0.265437  0.630697  0  4.110111  0
C  C178  1  0.63346553  0.46060554  0.84942604  1  1.571153  0  0.26541  0.630565  0  4.109937  0
C  C179  1  0.03939370  0.13346553  0.34942593  1  1.57084  0  0.265592  0.630916  0  4.109694  0
C  C180  1  0.86653569  0.96060412  0.65057444  1  1.570825  0  0.26546  0.630702  0  4.11004  0
C  C181  1  0.13346552  0.03939457  0.65057429  1  1.571108  0  0.265518  0.630792  0  4.109833  0
C  C182  1  0.53939279  0.36653394  0.15057396  1  1.570849  0  0.26548  0.630672  0  4.109661  0
C  C183  1  0.46060625  0.63346578  0.15057351  1  1.57123  0  0.265486  0.630753  0  4.109822  0
C  C184  1  0.28033450  0.47222230  0.12825119  1  -0.008676  0  -0.019805  -0.056398  0  3.987085  0
C  C185  1  0.02777551  0.78033292  0.62825167  1  -0.008681  0  -0.019945  -0.05648  0  3.987291  0
C  C186  1  0.71966674  0.52777683  0.12825062  1  -0.008687  0  -0.019857  -0.056442  0  3.987188  0
C  C187  1  0.97222409  0.21966626  0.62825166  1  -0.008653  0  -0.01996  -0.056484  0  3.987304  0
C  C188  1  0.78033314  0.02777731  0.37174784  1  -0.008642  0  -0.019929  -0.056535  0  3.987373  0
C  C189  1  0.21966674  0.97222506  0.37174870  1  -0.008618  0  -0.019939  -0.0564  0  3.987099  0
C  C190  1  0.47222399  0.28033352  0.87174884  1  -0.008614  0  -0.019845  -0.056403  0  3.987126  0
C  C191  1  0.52777590  0.71966620  0.87174922  1  -0.008698  0  -0.019829  -0.056389  0  3.98712  0
C  C192  1  0.32995027  0.53928346  0.81416139  1  -0.050925  0  -0.018917  -0.051436  0  3.984805  0
C  C193  1  0.96071684  0.82995160  0.31416049  1  -0.051132  0  -0.019002  -0.051634  0  3.98506  0
C  C194  1  0.67005022  0.46071667  0.81416106  1  -0.050909  0  -0.018888  -0.051393  0  3.98482  0
C  C195  1  0.03928257  0.17004903  0.31416070  1  -0.051145  0  -0.018911  -0.051479  0  3.98494  0
C  C196  1  0.82995154  0.96071639  0.68583942  1  -0.051152  0  -0.018976  -0.051493  0  3.984992  0
C  C197  1  0.17004963  0.03928292  0.68583926  1  -0.051149  0  -0.018907  -0.05147  0  3.984887  0
C  C198  1  0.53928322  0.32994990  0.18583866  1  -0.050932  0  -0.01889  -0.05143  0  3.98479  0
C  C199  1  0.46071740  0.67005044  0.18583823  1  -0.051385  0  -0.018851  -0.051333  0  3.984663  0
C  C200  1  0.21092514  0.50138302  0.12435666  1  -0.038765  0  -0.079116  -0.078854  0  3.968243  0
C  C201  1  0.99861632  0.71092394  0.62435671  1  -0.038772  0  -0.079016  -0.07875  0  3.96827  0
C  C202  1  0.78907610  0.49861664  0.12435659  1  -0.03876  0  -0.079074  -0.078847  0  3.968388  0
C  C203  1  0.00138437  0.28907468  0.62435673  1  -0.038842  0  -0.07905  -0.078798  0  3.968329  0
C  C204  1  0.71092353  0.99861671  0.37564266  1  -0.03875  0  -0.079059  -0.078805  0  3.968445  0
C  C205  1  0.28907636  0.00138406  0.37564324  1  -0.038837  0  -0.079005  -0.078718  0  3.968174  0
C  C206  1  0.50138421  0.21092427  0.87564310  1  -0.038835  0  -0.079038  -0.078761  0  3.968225  0
C  C207  1  0.49861675  0.78907547  0.87564405  1  -0.038781  0  -0.079016  -0.078682  0  3.968215  0
C  C208  1  0.28946944  0.40742505  0.14699422  1  -0.1279  0  -0.079382  -0.078678  0  3.981956  0
C  C209  1  0.09257341  0.78946900  0.64699471  1  -0.127882  0  -0.079304  -0.078569  0  3.981859  0
C  C210  1  0.71053070  0.59257412  0.14699395  1  -0.128038  0  -0.079364  -0.078629  0  3.981831  0
C  C211  1  0.90742725  0.21053076  0.64699471  1  -0.127947  0  -0.079314  -0.078535  0  3.981838  0
C  C212  1  0.78946814  0.09257511  0.35300507  1  -0.128176  0  -0.079343  -0.078636  0  3.981951  0
C  C213  1  0.21053123  0.90742722  0.35300590  1  -0.127868  0  -0.079342  -0.07864  0  3.981817  0
C  C214  1  0.40742609  0.28946844  0.85300554  1  -0.127876  0  -0.079358  -0.078582  0  3.981874  0
C  C215  1  0.59257435  0.71053178  0.85300642  1  -0.127868  0  -0.079336  -0.078575  0  3.981888  0
C  C216  1  0.36308255  0.50836574  0.78435705  1  -0.053841  0  -0.082124  -0.085715  0  3.989342  0
C  C217  1  0.99163406  0.86308326  0.28435644  1  -0.0536  0  -0.082111  -0.085548  0  3.989491  0
C  C218  1  0.63691851  0.49163378  0.78435648  1  -0.053814  0  -0.082143  -0.085595  0  3.989417  0
C  C219  1  0.00836538  0.13691729  0.28435610  1  -0.053586  0  -0.082156  -0.085659  0  3.989576  0
C  C220  1  0.86308327  0.99163412  0.71564375  1  -0.05357  0  -0.082144  -0.085691  0  3.989533  0
C  C221  1  0.13691732  0.00836579  0.71564411  1  -0.053559  0  -0.082189  -0.085777  0  3.98947  0
C  C222  1  0.50836494  0.36308161  0.21564326  1  -0.053818  0  -0.082139  -0.085632  0  3.989243  0
C  C223  1  0.49163566  0.63691771  0.21564334  1  -0.053558  0  -0.082197  -0.085789  0  3.989207  0
C  C224  1  0.26198058  0.57179674  0.81049557  1  -0.031566  0  -0.079643  -0.081575  0  3.978336  0
C  C225  1  0.92820509  0.76197928  0.31049543  1  -0.031047  0  -0.07962  -0.08154  0  3.978442  0
C  C226  1  0.73802153  0.42820501  0.81049573  1  -0.031216  0  -0.079634  -0.081614  0  3.978409  0
C  C227  1  0.07179379  0.23802026  0.31049593  1  -0.031043  0  -0.079642  -0.081614  0  3.978463  0
C  C228  1  0.76198020  0.92820469  0.68950447  1  -0.031547  0  -0.079655  -0.081642  0  3.978538  0
C  C229  1  0.23802096  0.07179247  0.68950404  1  -0.031169  0  -0.07963  -0.081575  0  3.978362  0
C  C230  1  0.57179439  0.26197869  0.18950448  1  -0.031082  0  -0.079658  -0.081641  0  3.97844  0
C  C231  1  0.42820515  0.73802004  0.18950436  1  -0.031059  0  -0.079641  -0.081608  0  3.978381  0
C  C232  1  0.15152110  0.46464245  0.13799022  1  -0.05918  0  -0.090843  -0.1367  0  3.976826  0
C  C233  1  0.03535692  0.65152027  0.63799118  1  -0.059217  0  -0.090874  -0.136736  0  3.976721  0
C  C234  1  0.84848012  0.53535778  0.13799041  1  -0.059193  0  -0.090805  -0.136524  0  3.976736  0
C  C235  1  0.96464430  0.34847785  0.63798991  1  -0.059233  0  -0.090874  -0.136733  0  3.976714  0
C  C236  1  0.65151922  0.03535762  0.36200964  1  -0.059247  0  -0.090832  -0.136686  0  3.976804  0
C  C237  1  0.34848013  0.96464257  0.36200914  1  -0.059221  0  -0.090873  -0.13672  0  3.976732  0
C  C238  1  0.46464304  0.15152085  0.86200926  1  -0.05921  0  -0.090883  -0.136703  0  3.976761  0
C  C239  1  0.53535685  0.84847885  0.86200918  1  -0.059226  0  -0.090929  -0.136845  0  3.976801  0
C  C240  1  0.23020678  0.37172161  0.16113352  1  0.022112  0  -0.091224  -0.138115  0  3.993156  0
C  C241  1  0.12827796  0.73020755  0.66113399  1  0.022098  0  -0.091213  -0.138153  0  3.99318  0
C  C242  1  0.76979280  0.62827867  0.16113272  1  0.022041  0  -0.091276  -0.138198  0  3.993205  0
C  C243  1  0.87172215  0.26979332  0.66113297  1  0.022166  0  -0.09125  -0.138211  0  3.993247  0
C  C244  1  0.73020552  0.12827852  0.33886632  1  0.022338  0  -0.091216  -0.138181  0  3.993303  0
C  C245  1  0.26979278  0.87172271  0.33886658  1  0.022124  0  -0.091233  -0.138153  0  3.993262  0
C  C246  1  0.37172313  0.23020640  0.83886596  1  0.022068  0  -0.091247  -0.138197  0  3.993258  0
C  C247  1  0.62827733  0.76979379  0.83886661  1  0.022135  0  -0.091231  -0.138172  0  3.993226  0
C  C248  1  0.32831691  0.50930515  0.75161097  1  -0.09186  0  -0.092188  -0.138585  0  3.987258  0
C  C249  1  0.99069354  0.82831708  0.25161061  1  -0.091829  0  -0.092128  -0.138529  0  3.987269  0
C  C250  1  0.67168364  0.49069485  0.75161092  1  -0.091832  0  -0.092171  -0.138661  0  3.987305  0
C  C251  1  0.00930594  0.17168287  0.25161056  1  -0.091832  0  -0.092193  -0.138673  0  3.987302  0
C  C252  1  0.82831705  0.99069416  0.74838958  1  -0.091832  0  -0.092118  -0.13855  0  3.987241  0
C  C253  1  0.17168297  0.00930583  0.74838966  1  -0.091853  0  -0.092174  -0.138577  0  3.987373  0
C  C254  1  0.50930490  0.32831712  0.24838908  1  -0.09167  0  -0.092255  -0.138789  0  3.987309  0
C  C255  1  0.49069620  0.67168336  0.24838891  1  -0.091851  0  -0.092175  -0.138605  0  3.987212  0
C  C256  1  0.22768115  0.57316459  0.77765864  1  -0.004256  0  -0.092023  -0.137903  0  3.988928  0
C  C257  1  0.92683612  0.72768147  0.27765850  1  -0.004297  0  -0.092053  -0.137976  0  3.988968  0
C  C258  1  0.77231937  0.42683493  0.77765853  1  -0.004183  0  -0.091997  -0.137872  0  3.988981  0
C  C259  1  0.07316387  0.27231799  0.27765848  1  -0.004304  0  -0.092043  -0.137942  0  3.988915  0
C  C260  1  0.72768182  0.92683520  0.72234166  1  -0.004296  0  -0.092003  -0.137902  0  3.989035  0
C  C261  1  0.27231930  0.07316473  0.72234123  1  -0.004212  0  -0.092044  -0.137937  0  3.988874  0
C  C262  1  0.57316334  0.22768150  0.22234140  1  -0.004308  0  -0.092011  -0.137936  0  3.988935  0
C  C263  1  0.42683563  0.77231892  0.22234130  1  -0.004315  0  -0.091997  -0.137882  0  3.988925  0
C  C264  1  0.16006140  0.39894892  0.15634066  1  -0.066111  0  -0.001367  0.080555  0  3.989258  0
C  C265  1  0.10105110  0.66006063  0.65634084  1  -0.066098  0  -0.00136  0.080567  0  3.989225  0
C  C266  1  0.83993872  0.60105189  0.15634036  1  -0.06613  0  -0.001287  0.080513  0  3.989297  0
C  C267  1  0.89894956  0.33993807  0.65634064  1  -0.066136  0  -0.001326  0.080585  0  3.989243  0
C  C268  1  0.66006066  0.10105116  0.34365893  1  -0.066087  0  -0.001382  0.080613  0  3.989171  0
C  C269  1  0.33993980  0.89894899  0.34365893  1  -0.066107  0  -0.001325  0.080528  0  3.989318  0
C  C270  1  0.39894994  0.16006112  0.84365855  1  -0.066121  0  -0.00133  0.080549  0  3.98929  0
C  C271  1  0.60104997  0.83993962  0.84365897  1  -0.066139  0  -0.001327  0.080594  0  3.989247  0
C  C272  1  0.25997165  0.54155078  0.74764234  1  0.005024  0  -0.002284  0.078919  0  3.993063  0
C  C273  1  0.95845051  0.75996974  0.24764247  1  0.005017  0  -0.002215  0.079056  0  3.992965  0
C  C274  1  0.74003052  0.45844920  0.74764251  1  0.005065  0  -0.00222  0.079077  0  3.993014  0
C  C275  1  0.04155113  0.24002966  0.24764272  1  0.005026  0  -0.002184  0.079173  0  3.992848  0
C  C276  1  0.75996961  0.95845010  0.75235743  1  0.005033  0  -0.002207  0.079135  0  3.992882  0
C  C277  1  0.24002932  0.04155205  0.75235698  1  0.005035  0  -0.002259  0.078988  0  3.993033  0
C  C278  1  0.54154951  0.25997035  0.25235744  1  0.004843  0  -0.002232  0.0791  0  3.992939  0
C  C279  1  0.45844943  0.74002906  0.25235731  1  0.005043  0  -0.002267  0.079024  0  3.993015  0
C  C280  1  0.09724922  0.35699632  0.16911626  1  -0.018044  0  -0.007525  0.076786  0  4.024928  0
C  C281  1  0.14300427  0.59724912  0.66911694  1  -0.018032  0  -0.007576  0.076739  0  4.024811  0
C  C282  1  0.90274927  0.64300506  0.16911623  1  -0.018027  0  -0.007583  0.076725  0  4.024823  0
C  C283  1  0.85699583  0.40274906  0.66911600  1  -0.01802  0  -0.007488  0.076854  0  4.024841  0
C  C284  1  0.59724852  0.14300372  0.33088362  1  -0.018017  0  -0.007579  0.076667  0  4.02483  0
C  C285  1  0.40275087  0.85699532  0.33088331  1  -0.018044  0  -0.007578  0.076808  0  4.024741  0
C  C286  1  0.35699620  0.09724903  0.83088320  1  -0.018045  0  -0.007614  0.076711  0  4.024806  0
C  C287  1  0.64300319  0.90275115  0.83088418  1  -0.018027  0  -0.007562  0.07671  0  4.024978  0
C  C288  1  0.22231589  0.54075481  0.71300450  1  -0.000407  0  -0.007682  0.0769  0  4.03116  0
C  C289  1  0.95924536  0.72231559  0.21300462  1  -0.000314  0  -0.007714  0.076893  0  4.031224  0
C  C290  1  0.77768471  0.45924509  0.71300387  1  -0.000377  0  -0.007766  0.076734  0  4.031195  0
C  C291  1  0.04075524  0.27768427  0.21300462  1  -0.000284  0  -0.00774  0.076875  0  4.031087  0
C  C292  1  0.72231435  0.95924551  0.78699528  1  -0.000295  0  -0.007718  0.076862  0  4.031143  0
C  C293  1  0.27768401  0.04075565  0.78699482  1  -0.000155  0  -0.007732  0.076874  0  4.031017  0
C  C294  1  0.54075356  0.22231520  0.28699500  1  -0.000348  0  -0.007734  0.07683  0  4.031243  0
C  C295  1  0.45924588  0.77768375  0.28699517  1  -0.000289  0  -0.00774  0.076745  0  4.031206  0
C  C296  1  0.03588429  0.35019403  0.14757861  1  -0.105395  0  -0.088073  -0.17881  0  3.932569  0
C  C297  1  0.14980868  0.53588371  0.64757847  1  -0.105414  0  -0.088099  -0.178847  0  3.932331  0
C  C298  1  0.96411530  0.64980514  0.14757883  1  -0.105413  0  -0.088083  -0.178842  0  3.932546  0
C  C299  1  0.85019360  0.46411497  0.64757836  1  -0.105343  0  -0.088086  -0.178861  0  3.932571  0
C  C300  1  0.53588249  0.14980759  0.35242128  1  -0.105359  0  -0.088021  -0.17872  0  3.932533  0
C  C301  1  0.46411634  0.85019312  0.35242122  1  -0.105387  0  -0.088078  -0.178859  0  3.932521  0
C  C302  1  0.35019445  0.03588474  0.85242111  1  -0.105413  0  -0.088093  -0.178888  0  3.932537  0
C  C303  1  0.64980492  0.96411818  0.85242132  1  -0.105056  0  -0.088013  -0.17877  0  3.932468  0
C  C304  1  0.09895812  0.32057848  0.20182329  1  -0.054059  0  -0.087634  -0.17981  0  3.924249  0
C  C305  1  0.17942272  0.59895918  0.70182292  1  -0.054036  0  -0.087566  -0.179664  0  3.924197  0
C  C306  1  0.90104034  0.67942297  0.20182354  1  -0.054094  0  -0.087562  -0.179716  0  3.924159  0
C  C307  1  0.82057734  0.40104016  0.70182331  1  -0.054081  0  -0.087564  -0.179663  0  3.924178  0
C  C308  1  0.59895802  0.17942102  0.29817632  1  -0.053998  0  -0.087574  -0.179673  0  3.924217  0
C  C309  1  0.40104195  0.82057795  0.29817679  1  -0.054045  0  -0.087558  -0.179604  0  3.924087  0
C  C310  1  0.32057828  0.09895898  0.79817643  1  -0.054042  0  -0.087556  -0.179682  0  3.924156  0
C  C311  1  0.67942060  0.90104058  0.79817687  1  -0.05407  0  -0.087589  -0.179667  0  3.924244  0
C  C312  1  0.22877063  0.48057599  0.69067182  1  0.038102  0  -0.087179  -0.177253  0  3.934597  0
C  C313  1  0.01942373  0.72876948  0.19067155  1  0.038049  0  -0.087143  -0.177271  0  3.934575  0
C  C314  1  0.77123160  0.51942549  0.69067123  1  0.038116  0  -0.087143  -0.177287  0  3.934559  0
C  C315  1  0.98057689  0.27123087  0.19067104  1  0.038016  0  -0.08712  -0.177311  0  3.934429  0
C  C316  1  0.72876880  0.01942418  0.80932848  1  0.038045  0  -0.087164  -0.177352  0  3.934584  0
C  C317  1  0.27123061  0.98057702  0.80932880  1  0.037891  0  -0.087088  -0.177191  0  3.934384  0
C  C318  1  0.48057574  0.22876941  0.30932847  1  0.038051  0  -0.08718  -0.17732  0  3.934626  0
C  C319  1  0.51942475  0.77123067  0.30932861  1  0.038003  0  -0.087135  -0.177234  0  3.93454  0
C  C320  1  0.97746016  0.30693481  0.15790026  1  -0.051344  0  -0.008938  0.07605  0  4.036371  0
C  C321  1  0.19306716  0.47745919  0.65790050  1  -0.051281  0  -0.008984  0.075962  0  4.036407  0
C  C322  1  0.02253996  0.69306492  0.15790102  1  -0.051345  0  -0.008971  0.075982  0  4.036435  0
C  C323  1  0.80693404  0.52254006  0.65790017  1  -0.051239  0  -0.008952  0.076046  0  4.036334  0
C  C324  1  0.47745841  0.19306600  0.34209952  1  -0.051341  0  -0.008991  0.075954  0  4.036461  0
C  C325  1  0.52253989  0.80693523  0.34209915  1  -0.051356  0  -0.008988  0.075974  0  4.036457  0
C  C326  1  0.30693462  0.97746193  0.84209932  1  -0.051226  0  -0.008958  0.07605  0  4.036338  0
C  C327  1  0.69306475  0.02254150  0.84209954  1  -0.051629  0  -0.008989  0.07601  0  4.036415  0
C  C328  1  0.91396703  0.29831891  0.13461323  1  -0.02462  0  -0.001887  0.079834  0  3.995684  0
C  C329  1  0.20168248  0.41396719  0.63461318  1  -0.024682  0  -0.001884  0.079782  0  3.99572  0
C  C330  1  0.08603204  0.70168023  0.13461291  1  -0.024617  0  -0.001858  0.079903  0  3.995611  0
C  C331  1  0.79831766  0.58603200  0.63461342  1  -0.02478  0  -0.001855  0.079868  0  3.995617  0
C  C332  1  0.41396850  0.20168241  0.36538683  1  -0.024658  0  -0.001844  0.079892  0  3.99562  0
C  C333  1  0.58603247  0.79831834  0.36538671  1  -0.024797  0  -0.001833  0.079913  0  3.995563  0
C  C334  1  0.29831926  0.91396729  0.86538661  1  -0.024669  0  -0.001892  0.079803  0  3.995623  0
C  C335  1  0.70168225  0.08603242  0.86538633  1  -0.024633  0  -0.001836  0.079856  0  3.995684  0
C  C336  1  0.92187172  0.29534133  0.09746977  1  -0.021917  0  -0.091577  -0.140933  0  3.989232  0
C  C337  1  0.20466112  0.42187127  0.59746947  1  -0.021882  0  -0.09162  -0.1409  0  3.989149  0
C  C338  1  0.07812739  0.70465880  0.09746947  1  -0.021938  0  -0.091629  -0.141051  0  3.989343  0
C  C339  1  0.79534014  0.57812837  0.59746970  1  -0.021895  0  -0.091584  -0.140959  0  3.98921  0
C  C340  1  0.42187261  0.20466160  0.40253028  1  -0.021718  0  -0.091616  -0.140988  0  3.989242  0
C  C341  1  0.57812724  0.79533922  0.40253016  1  -0.021734  0  -0.091604  -0.140991  0  3.989344  0
C  C342  1  0.29534116  0.92187199  0.90253032  1  -0.021956  0  -0.091602  -0.140975  0  3.989333  0
C  C343  1  0.70465977  0.07812888  0.90253031  1  -0.02171  0  -0.091614  -0.140953  0  3.989168  0
C  C344  1  0.84426087  0.29308043  0.14917487  1  -0.010223  0  -0.090771  -0.139133  0  3.986242  0
C  C345  1  0.20691986  0.34426116  0.64917453  1  -0.010171  0  -0.090807  -0.139195  0  3.986246  0
C  C346  1  0.15573818  0.70691929  0.14917428  1  -0.010155  0  -0.090777  -0.139188  0  3.986134  0
C  C347  1  0.79308027  0.65573914  0.64917428  1  -0.010097  0  -0.090752  -0.139117  0  3.986147  0
C  C348  1  0.34426128  0.20692084  0.35082600  1  -0.010146  0  -0.090724  -0.139074  0  3.986148  0
C  C349  1  0.65574079  0.79307879  0.35082612  1  -0.009941  0  -0.090739  -0.139082  0  3.986216  0
C  C350  1  0.29307914  0.84425960  0.85082628  1  -0.010163  0  -0.090702  -0.139003  0  3.98617  0
C  C351  1  0.70692076  0.15573953  0.85082550  1  -0.010047  0  -0.090767  -0.139118  0  3.986266  0
C  C352  1  0.86194430  0.28855955  0.07552174  1  -0.040223  0  -0.076456  -0.077637  0  3.979737  0
C  C353  1  0.21144287  0.36194390  0.57552168  1  -0.040208  0  -0.076369  -0.077534  0  3.97978  0
C  C354  1  0.13805375  0.71144108  0.07552089  1  -0.040215  0  -0.076368  -0.077577  0  3.979778  0
C  C355  1  0.78855841  0.63805515  0.57552167  1  -0.040234  0  -0.076393  -0.077532  0  3.979772  0
C  C356  1  0.36194571  0.21144335  0.42447913  1  -0.040377  0  -0.076333  -0.077535  0  3.979574  0
C  C357  1  0.63805358  0.78855590  0.42447898  1  -0.040396  0  -0.076375  -0.077546  0  3.979796  0
C  C358  1  0.28855830  0.86194683  0.92447835  1  -0.040244  0  -0.076377  -0.077495  0  3.979646  0
C  C359  1  0.71144314  0.13805518  0.92447863  1  -0.040415  0  -0.0764  -0.077597  0  3.979686  0
C  C360  1  0.78421851  0.28659003  0.12735805  1  -0.02337  0  -0.075645  -0.075688  0  3.976869  0
C  C361  1  0.21340968  0.28421832  0.62735822  1  -0.023354  0  -0.075656  -0.075741  0  3.976838  0
C  C362  1  0.21578164  0.71340964  0.12735798  1  -0.02293  0  -0.075662  -0.075713  0  3.976816  0
C  C363  1  0.78659047  0.71578194  0.62735774  1  -0.02342  0  -0.075682  -0.075792  0  3.976883  0
C  C364  1  0.28421890  0.21341067  0.37264257  1  -0.022817  0  -0.075654  -0.075729  0  3.976769  0
C  C365  1  0.71578153  0.78659009  0.37264320  1  -0.022834  0  -0.075689  -0.075835  0  3.976896  0
C  C366  1  0.28658875  0.78421734  0.87264282  1  -0.023725  0  -0.075673  -0.075855  0  3.977003  0
C  C367  1  0.71341221  0.21578238  0.87264155  1  -0.023679  0  -0.075712  -0.075788  0  3.976906  0
C  C368  1  0.79268007  0.28471756  0.09034715  1  -0.042577  0  -0.017011  -0.058541  0  3.989863  0
C  C369  1  0.21528375  0.29267927  0.59034679  1  -0.042625  0  -0.017  -0.058574  0  3.989945  0
C  C370  1  0.20731958  0.71528418  0.09034654  1  -0.042414  0  -0.017014  -0.058586  0  3.989924  0
C  C371  1  0.78471698  0.70731982  0.59034709  1  -0.042589  0  -0.017008  -0.058575  0  3.989976  0
C  C372  1  0.29268150  0.21528584  0.40965321  1  -0.042304  0  -0.017042  -0.058506  0  3.989787  0
C  C373  1  0.70731780  0.78471554  0.40965384  1  -0.042303  0  -0.017033  -0.058461  0  3.989857  0
C  C374  1  0.28471468  0.79268107  0.90965320  1  -0.042239  0  -0.017051  -0.05857  0  3.989785  0
C  C375  1  0.71528624  0.20731981  0.90965271  1  -0.042556  0  -0.01698  -0.058457  0  3.989698  0
C  C376  1  0.72779746  0.28745493  0.06733079  1  1.562951  0  0.274721  0.646698  0  4.091872  0
C  C377  1  0.21254579  0.22779779  0.56733120  1  1.562981  0  0.274672  0.646714  0  4.091913  0
C  C378  1  0.27220060  0.71254298  0.06733017  1  1.56293  0  0.274699  0.646713  0  4.091868  0
C  C379  1  0.78745497  0.77220125  0.56733127  1  1.562965  0  0.274659  0.646656  0  4.091906  0
C  C380  1  0.22779994  0.21254573  0.43266932  1  1.562862  0  0.274595  0.646707  0  4.091705  0
C  C381  1  0.77220042  0.78745570  0.43266940  1  1.56288  0  0.274645  0.646711  0  4.091734  0
C  C382  1  0.28745368  0.72779749  0.93267008  1  1.562875  0  0.2747  0.6467  0  4.091951  0
C  C383  1  0.71254505  0.27220183  0.93266963  1  1.562945  0  0.27462  0.646724  0  4.091949  0
O  O384  1  0.36909958  0.61151453  0.03494874  1  -1.419934  0  -0.453063  -1.001712  0  2.214217  0
O  O385  1  0.88848631  0.86910010  0.53494857  1  -1.419952  0  -0.453019  -1.001664  0  2.214148  0
O  O386  1  0.63089959  0.38848385  0.03494864  1  -1.419911  0  -0.453068  -1.001765  0  2.214167  0
O  O387  1  0.11151556  0.13089887  0.53494874  1  -1.419898  0  -0.453029  -1.001667  0  2.214081  0
O  O388  1  0.86909889  0.88848745  0.46505107  1  -1.419917  0  -0.453007  -1.00167  0  2.214066  0
O  O389  1  0.13089928  0.11151352  0.46505176  1  -1.419953  0  -0.453036  -1.001619  0  2.21409  0
O  O390  1  0.61151270  0.36909961  0.96505159  1  -1.419906  0  -0.453036  -1.001671  0  2.214142  0
O  O391  1  0.38848601  0.63090140  0.96505116  1  -1.419915  0  -0.453054  -1.00178  0  2.214152  0
O  O392  1  0.40170904  0.74467530  0.00944087  1  -1.252154  0  -0.240454  -0.549625  0  2.371303  0
O  O393  1  0.75532211  0.90171208  0.50944282  1  -1.252547  0  -0.240494  -0.549688  0  2.371198  0
O  O394  1  0.59828855  0.25532140  0.00944124  1  -1.252134  0  -0.24051  -0.549655  0  2.371281  0
O  O395  1  0.24467871  0.09828737  0.50944214  1  -1.25227  0  -0.240501  -0.549663  0  2.371268  0
O  O396  1  0.90171201  0.75532292  0.49055654  1  -1.252551  0  -0.240447  -0.549593  0  2.371218  0
O  O397  1  0.09828667  0.24467756  0.49055837  1  -1.252307  0  -0.240535  -0.549711  0  2.371202  0
O  O398  1  0.74467745  0.40170903  0.99055922  1  -1.252199  0  -0.240441  -0.549598  0  2.371288  0
O  O399  1  0.25532176  0.59829204  0.99055907  1  -1.252201  0  -0.240468  -0.549631  0  2.371275  0
O  O400  1  0.28989970  0.73665567  0.96622233  1  -1.247324  0  -0.229558  -0.577126  0  2.323999  0
O  O401  1  0.76334279  0.78990230  0.46622272  1  -1.247296  0  -0.229519  -0.577039  0  2.323678  0
O  O402  1  0.71009846  0.26334481  0.96622188  1  -1.24728  0  -0.229469  -0.576999  0  2.323815  0
O  O403  1  0.23665592  0.21009921  0.46622263  1  -1.247278  0  -0.229479  -0.577019  0  2.323639  0
O  O404  1  0.78990209  0.76334361  0.53377796  1  -1.247223  0  -0.229492  -0.577068  0  2.32383  0
O  O405  1  0.21009870  0.23665535  0.53377789  1  -1.24723  0  -0.229506  -0.577109  0  2.323825  0
O  O406  1  0.73665563  0.28990200  0.03377801  1  -1.247267  0  -0.229539  -0.577148  0  2.32387  0
O  O407  1  0.26334462  0.71009800  0.03377792  1  -1.247312  0  -0.229501  -0.577119  0  2.32397  0
O  O408  1  0.48009734  0.57034714  0.07626853  1  -1.434575  0  -0.4547  -0.993676  0  2.171925  0
O  O409  1  0.92965277  0.98009725  0.57626868  1  -1.434631  0  -0.454721  -0.993728  0  2.171892  0
O  O410  1  0.51990233  0.42965241  0.07626795  1  -1.434596  0  -0.454696  -0.993668  0  2.171904  0
O  O411  1  0.07034689  0.01990289  0.57626826  1  -1.434587  0  -0.45469  -0.99367  0  2.171874  0
O  O412  1  0.98009672  0.92965329  0.42373099  1  -1.434602  0  -0.454711  -0.993714  0  2.17186  0
O  O413  1  0.01990204  0.07034704  0.42373168  1  -1.434555  0  -0.454693  -0.99362  0  2.171896  0
O  O414  1  0.57034846  0.48009773  0.92373075  1  -1.434502  0  -0.454697  -0.993639  0  2.171861  0
O  O415  1  0.42965245  0.51990265  0.92373131  1  -1.434559  0  -0.454693  -0.993691  0  2.171857  0
O  O416  1  0.43818408  0.67092128  0.12433702  1  -1.263039  0  -0.237219  -0.595692  0  2.364182  0
O  O417  1  0.82908064  0.93818137  0.62433794  1  -1.262965  0  -0.237177  -0.595661  0  2.36432  0
O  O418  1  0.56181716  0.32907838  0.12433718  1  -1.263017  0  -0.237118  -0.595541  0  2.363965  0
O  O419  1  0.17092005  0.06181887  0.62433805  1  -1.262996  0  -0.23716  -0.595632  0  2.364146  0
O  O420  1  0.93818075  0.82908182  0.37566197  1  -1.262962  0  -0.237162  -0.595623  0  2.364308  0
O  O421  1  0.06181698  0.17092002  0.37566244  1  -1.26299  0  -0.237203  -0.595633  0  2.364132  0
O  O422  1  0.67092056  0.43818126  0.87566253  1  -1.262979  0  -0.23714  -0.595536  0  2.364108  0
O  O423  1  0.32907932  0.56181685  0.87566261  1  -1.263001  0  -0.237127  -0.59558  0  2.364145  0
O  O424  1  0.46967493  0.70975868  0.05696638  1  -1.263775  0  -0.252739  -0.566646  0  2.34436  0
O  O425  1  0.79024047  0.96967905  0.55696810  1  -1.263686  0  -0.252684  -0.566641  0  2.344075  0
O  O426  1  0.53032206  0.29023975  0.05696653  1  -1.263803  0  -0.252673  -0.566591  0  2.344282  0
O  O427  1  0.20976083  0.03032158  0.55696792  1  -1.263647  0  -0.252693  -0.566627  0  2.344309  0
O  O428  1  0.96967905  0.79024175  0.44303154  1  -1.263653  0  -0.252725  -0.566706  0  2.344044  0
O  O429  1  0.03032076  0.20976133  0.44303257  1  -1.263657  0  -0.252728  -0.566669  0  2.344275  0
O  O430  1  0.70976021  0.46967750  0.94303397  1  -1.263725  0  -0.252742  -0.566611  0  2.344247  0
O  O431  1  0.29023960  0.53032563  0.94303378  1  -1.263724  0  -0.252708  -0.566613  0  2.34442  0
O  O432  1  0.33344898  0.70982773  0.08283236  1  -1.268246  0  -0.24458  -0.608771  0  2.358904  0
O  O433  1  0.79017189  0.83344902  0.58283296  1  -1.268316  0  -0.24455  -0.608765  0  2.358899  0
O  O434  1  0.66655015  0.29017237  0.08283220  1  -1.268267  0  -0.244546  -0.608727  0  2.358971  0
O  O435  1  0.20982939  0.16655059  0.58283312  1  -1.268351  0  -0.244566  -0.608782  0  2.358909  0
O  O436  1  0.83344827  0.79017261  0.41716746  1  -1.268301  0  -0.244581  -0.609215  0  2.359194  0
O  O437  1  0.16655211  0.20982933  0.41716739  1  -1.268158  0  -0.244519  -0.609163  0  2.359147  0
O  O438  1  0.70982871  0.33344903  0.91716745  1  -1.268154  0  -0.24452  -0.609136  0  2.359249  0
O  O439  1  0.29017004  0.66655026  0.91716786  1  -1.268164  0  -0.244509  -0.608744  0  2.358964  0
O  O440  1  0.34015621  0.57307321  0.10251594  1  -1.253725  0  -0.230058  -0.580614  0  2.344011  0
O  O441  1  0.92692609  0.84015529  0.60251550  1  -1.253773  0  -0.230025  -0.580584  0  2.344035  0
O  O442  1  0.65984505  0.42692479  0.10251532  1  -1.253817  0  -0.230065  -0.580605  0  2.344088  0
O  O443  1  0.07307355  0.15984329  0.60251622  1  -1.253702  0  -0.229992  -0.580536  0  2.344248  0
O  O444  1  0.84015561  0.92692660  0.39748282  1  -1.253689  0  -0.23004  -0.580626  0  2.344059  0
O  O445  1  0.15984317  0.07307422  0.39748347  1  -1.253759  0  -0.23007  -0.580628  0  2.344136  0
O  O446  1  0.57307397  0.34015570  0.89748332  1  -1.253737  0  -0.230026  -0.580561  0  2.344133  0
O  O447  1  0.42692588  0.65984354  0.89748369  1  -1.25373  0  -0.230044  -0.580626  0  2.343983  0
O  O448  1  0.48148948  0.56789850  0.14929213  1  -1.254837  0  -0.236437  -0.594748  0  2.351004  0
O  O449  1  0.93210469  0.98148681  0.64929334  1  -1.254732  0  -0.236376  -0.594668  0  2.351  0
O  O450  1  0.51851173  0.43210338  0.14929342  1  -1.254691  0  -0.236482  -0.594773  0  2.350972  0
O  O451  1  0.06789597  0.01851403  0.64929320  1  -1.254959  0  -0.236475  -0.594784  0  2.351026  0
O  O452  1  0.98148678  0.93210517  0.35070659  1  -1.254753  0  -0.236397  -0.594706  0  2.351023  0
O  O453  1  0.01851313  0.06789554  0.35070727  1  -1.254705  0  -0.236493  -0.594844  0  2.35095  0
O  O454  1  0.56789545  0.48148550  0.85070661  1  -1.255003  0  -0.236435  -0.59472  0  2.351011  0
O  O455  1  0.43210283  0.51851201  0.85070664  1  -1.254674  0  -0.236429  -0.59469  0  2.351009  0
O  O456  1  0.59725577  0.52992062  0.11177811  1  -1.272347  0  -0.246809  -0.614193  0  2.358689  0
O  O457  1  0.97007698  0.09725598  0.61177857  1  -1.272402  0  -0.246823  -0.614167  0  2.358802  0
O  O458  1  0.40274494  0.47007685  0.11177812  1  -1.272506  0  -0.246856  -0.614231  0  2.358795  0
O  O459  1  0.02992265  0.90274316  0.61177892  1  -1.272389  0  -0.246833  -0.614204  0  2.358765  0
O  O460  1  0.09725576  0.97007688  0.38822150  1  -1.272474  0  -0.246826  -0.614157  0  2.358745  0
O  O461  1  0.90274357  0.02992338  0.38822087  1  -1.272425  0  -0.246797  -0.614114  0  2.35879  0
O  O462  1  0.52992294  0.59725489  0.88822091  1  -1.272488  0  -0.246849  -0.614189  0  2.358812  0
O  O463  1  0.47007747  0.40274488  0.88822086  1  -1.272465  0  -0.246818  -0.614164  0  2.358771  0
