# generated using pymatgen
data_ZnH21C27N3O5
_symmetry_space_group_name_H-M   'P 1'
_cell_length_a   16.26759305
_cell_length_b   14.81785296
_cell_length_c   21.52691380
_cell_angle_alpha   90.00010815
_cell_angle_beta   89.99993330
_cell_angle_gamma   89.99962774
_symmetry_Int_Tables_number   1
_chemical_formula_structural   ZnH21C27N3O5
_chemical_formula_sum   'Zn8 H168 C216 N24 O40'
_cell_volume   5189.07983635
_cell_formula_units_Z   8
loop_
 _symmetry_equiv_pos_site_id
 _symmetry_equiv_pos_as_xyz
  1  'x, y, z'
loop_
 _atom_site_type_symbol
 _atom_site_label
 _atom_site_symmetry_multiplicity
 _atom_site_fract_x
 _atom_site_fract_y
 _atom_site_fract_z
 _atom_site_occupancy
 _atom_site_pbe_bader_charge
 _atom_site_pbe_bader_spin_density
 _atom_site_pbe_cm5_charge
 _atom_site_pbe_ddec_charge
 _atom_site_pbe_ddec_spin_density
 _atom_site_pbe_ddec_sum_bond_order
 _atom_site_pbe_magmom
Zn  Zn0  1  0.58359771  0.23789831  0.00957140  1  1.253252  0  0.708673  0.785049  0  2.372729  0
Zn  Zn1  1  0.91640440  0.23789438  0.49041980  1  1.252776  0  0.708725  0.785249  0  2.372867  0
Zn  Zn2  1  0.41642180  0.26211312  0.50956612  1  1.253331  0  0.708633  0.785058  0  2.372529  0
Zn  Zn3  1  0.08359160  0.26210296  0.99042780  1  1.253114  0  0.7087  0.785108  0  2.372762  0
Zn  Zn4  1  0.41640017  0.76209991  0.99042149  1  1.253166  0  0.708672  0.785114  0  2.372862  0
Zn  Zn5  1  0.08359902  0.76211328  0.50958564  1  1.252924  0  0.708722  0.78509  0  2.373078  0
Zn  Zn6  1  0.58357424  0.73789117  0.49042909  1  1.253259  0  0.708731  0.785183  0  2.372623  0
Zn  Zn7  1  0.91640567  0.73789053  0.00957995  1  1.252875  0  0.708676  0.785135  0  2.372905  0
H  H8  1  0.97242132  0.19725995  0.72466375  1  0.470337  0  0.317695  0.280312  0  0.950402  0
H  H9  1  0.52758576  0.19724456  0.77532546  1  0.470387  0  0.317705  0.280452  0  0.95021  0
H  H10  1  0.02759373  0.30274389  0.22465991  1  0.470162  0  0.31765  0.280316  0  0.950308  0
H  H11  1  0.47242206  0.30276241  0.27531788  1  0.470343  0  0.317749  0.280557  0  0.950127  0
H  H12  1  0.02759009  0.80273760  0.27534028  1  0.470251  0  0.317626  0.280252  0  0.950471  0
H  H13  1  0.47241396  0.80275838  0.22467579  1  0.470347  0  0.317691  0.280404  0  0.950223  0
H  H14  1  0.97240046  0.69723476  0.77532926  1  0.470148  0  0.317669  0.280351  0  0.950218  0
H  H15  1  0.52759426  0.69724256  0.72467130  1  0.470312  0  0.317701  0.280418  0  0.950178  0
H  H16  1  0.22536942  0.11443511  0.67632333  1  0.06821  0  0.105331  0.105993  0  1.001469  0
H  H17  1  0.27464350  0.11443860  0.82367360  1  0.068433  0  0.105358  0.106019  0  1.001423  0
H  H18  1  0.77463490  0.38556494  0.17633576  1  0.068296  0  0.105324  0.105965  0  1.001386  0
H  H19  1  0.72536521  0.38555799  0.32365940  1  0.068348  0  0.105354  0.105957  0  1.001523  0
H  H20  1  0.77462969  0.88556581  0.32366909  1  0.06821  0  0.105324  0.105926  0  1.001427  0
H  H21  1  0.72534331  0.88556434  0.17633044  1  0.068593  0  0.105351  0.106007  0  1.001403  0
H  H22  1  0.22534884  0.61442653  0.82367432  1  0.068183  0  0.105339  0.105964  0  1.001545  0
H  H23  1  0.27463390  0.61444495  0.67633535  1  0.06842  0  0.105376  0.106034  0  1.001416  0
H  H24  1  0.09682728  0.14332186  0.73571021  1  0.061144  0  0.106995  0.107333  0  0.996641  0
H  H25  1  0.40318585  0.14332202  0.76428761  1  0.060773  0  0.107106  0.107431  0  0.996437  0
H  H26  1  0.90317669  0.35667937  0.23571787  1  0.061165  0  0.107079  0.107458  0  0.996534  0
H  H27  1  0.59682814  0.35667810  0.26427361  1  0.060877  0  0.107074  0.107473  0  0.996476  0
H  H28  1  0.90317306  0.85667703  0.26428314  1  0.061269  0  0.107038  0.107349  0  0.996517  0
H  H29  1  0.59680466  0.85667957  0.23572154  1  0.060605  0  0.107131  0.107498  0  0.996301  0
H  H30  1  0.09680705  0.64330265  0.76429360  1  0.060307  0  0.107145  0.107523  0  0.996247  0
H  H31  1  0.40317957  0.64331539  0.73571696  1  0.060973  0  0.107095  0.107443  0  0.99625  0
H  H32  1  0.12733513  0.42876991  0.70603553  1  0.078629  0  0.105612  0.10732  0  0.998018  0
H  H33  1  0.37267681  0.42877180  0.79394561  1  0.078842  0  0.10545  0.10713  0  0.998038  0
H  H34  1  0.87267793  0.07123579  0.20603244  1  0.078913  0  0.10559  0.107366  0  0.998019  0
H  H35  1  0.62731272  0.07123466  0.29395156  1  0.078957  0  0.105504  0.107203  0  0.998103  0
H  H36  1  0.87267320  0.57123303  0.29397315  1  0.078868  0  0.105629  0.107388  0  0.997992  0
H  H37  1  0.62730877  0.57123182  0.20605053  1  0.079381  0  0.105485  0.107213  0  0.998039  0
H  H38  1  0.12731565  0.92875095  0.79394791  1  0.078874  0  0.105536  0.107212  0  0.99803  0
H  H39  1  0.37269684  0.92876693  0.70604783  1  0.079379  0  0.105465  0.10713  0  0.998076  0
H  H40  1  0.25322118  0.39758394  0.64176589  1  0.076326  0  0.106257  0.11053  0  0.997461  0
H  H41  1  0.24679357  0.39758570  0.85821669  1  0.076655  0  0.106311  0.110584  0  0.997376  0
H  H42  1  0.74679498  0.10242053  0.14176717  1  0.076571  0  0.106278  0.110541  0  0.997359  0
H  H43  1  0.75319040  0.10241388  0.35822143  1  0.076811  0  0.106317  0.110619  0  0.997283  0
H  H44  1  0.74678653  0.60241900  0.35823954  1  0.0764  0  0.106251  0.110516  0  0.997516  0
H  H45  1  0.75319509  0.60241791  0.14177991  1  0.076946  0  0.106272  0.110515  0  0.997376  0
H  H46  1  0.25319614  0.89757566  0.85821875  1  0.076971  0  0.106312  0.11061  0  0.997251  0
H  H47  1  0.24681178  0.89759176  0.64178539  1  0.076926  0  0.106318  0.110616  0  0.997361  0
H  H48  1  0.87156697  0.10485980  0.75953859  1  0.068802  0  0.106682  0.115357  0  0.994716  0
H  H49  1  0.62843751  0.10483251  0.74044566  1  0.069415  0  0.106629  0.115327  0  0.994678  0
H  H50  1  0.12844115  0.39515378  0.25954194  1  0.069024  0  0.106646  0.115242  0  0.994782  0
H  H51  1  0.37156065  0.39516404  0.24044314  1  0.069491  0  0.106606  0.115338  0  0.99469  0
H  H52  1  0.12844136  0.89514179  0.24046220  1  0.068857  0  0.106661  0.115348  0  0.994809  0
H  H53  1  0.37155975  0.89517988  0.25955559  1  0.069279  0  0.106609  0.115403  0  0.99454  0
H  H54  1  0.87155796  0.60483431  0.74044026  1  0.069302  0  0.106612  0.115337  0  0.994747  0
H  H55  1  0.62844645  0.60483485  0.75954928  1  0.068966  0  0.106625  0.115281  0  0.994705  0
H  H56  1  0.73832783  0.08955537  0.81591199  1  0.072578  0  0.103538  0.101669  0  1.00016  0
H  H57  1  0.76167990  0.08954682  0.68406995  1  0.073509  0  0.103616  0.101769  0  1.000467  0
H  H58  1  0.26167149  0.41045803  0.31591856  1  0.073102  0  0.103529  0.10165  0  1.000382  0
H  H59  1  0.23832213  0.41045802  0.18407161  1  0.073512  0  0.10359  0.10174  0  1.000341  0
H  H60  1  0.26167681  0.91044825  0.18408415  1  0.072741  0  0.103544  0.101644  0  1.000304  0
H  H61  1  0.23831859  0.91046422  0.31593362  1  0.073581  0  0.10358  0.101726  0  1.000416  0
H  H62  1  0.73832270  0.58953007  0.68406969  1  0.07336  0  0.103586  0.101741  0  1.000373  0
H  H63  1  0.76168067  0.58953345  0.81592267  1  0.073349  0  0.103589  0.101742  0  1.000298  0
H  H64  1  0.77330793  0.35132019  0.89636280  1  0.087597  0  0.096951  0.096052  0  1.039492  0
H  H65  1  0.72668258  0.35130318  0.60361411  1  0.087754  0  0.096903  0.096115  0  1.039366  0
H  H66  1  0.22667936  0.14869727  0.39637330  1  0.087947  0  0.096921  0.096099  0  1.039552  0
H  H67  1  0.27331734  0.14868949  0.10362283  1  0.087864  0  0.096941  0.096099  0  1.039336  0
H  H68  1  0.22669240  0.64868680  0.10362870  1  0.087647  0  0.096915  0.095966  0  1.039496  0
H  H69  1  0.27331346  0.64870651  0.39638481  1  0.087702  0  0.096938  0.09613  0  1.039433  0
H  H70  1  0.77330622  0.85130837  0.60363073  1  0.087761  0  0.096968  0.09608  0  1.039482  0
H  H71  1  0.72669283  0.85129726  0.89637842  1  0.087561  0  0.096932  0.096155  0  1.03945  0
H  H72  1  0.90293083  0.37043091  0.83639709  1  0.136036  0  0.099835  0.114078  0  1.068542  0
H  H73  1  0.59705530  0.37040043  0.66357794  1  0.135619  0  0.099781  0.11398  0  1.068642  0
H  H74  1  0.09706362  0.12958671  0.33640728  1  0.135904  0  0.099849  0.114089  0  1.068599  0
H  H75  1  0.40294054  0.12959816  0.16358469  1  0.13604  0  0.09981  0.114035  0  1.068665  0
H  H76  1  0.09707319  0.62957135  0.16359905  1  0.135532  0  0.099829  0.114074  0  1.068565  0
H  H77  1  0.40293766  0.62960994  0.33641774  1  0.135348  0  0.09978  0.11401  0  1.06851  0
H  H78  1  0.90292443  0.87041016  0.66359768  1  0.13564  0  0.099966  0.114247  0  1.068522  0
H  H79  1  0.59707701  0.87040140  0.83641284  1  0.135353  0  0.099882  0.114118  0  1.068691  0
H  H80  1  0.52733106  0.08732422  0.09128322  1  0.149758  0  0.121008  0.099453  0  1.000104  0
H  H81  1  0.97267541  0.08731283  0.40870680  1  0.149505  0  0.120993  0.099366  0  1.000033  0
H  H82  1  0.47269540  0.41268117  0.59128785  1  0.149989  0  0.121092  0.099578  0  0.999888  0
H  H83  1  0.02732408  0.41268314  0.90870864  1  0.149633  0  0.120988  0.099356  0  0.999979  0
H  H84  1  0.47266867  0.91267197  0.90871477  1  0.149783  0  0.121009  0.099492  0  0.999937  0
H  H85  1  0.02731632  0.91269416  0.59129538  1  0.149678  0  0.120984  0.099278  0  1.000114  0
H  H86  1  0.52730371  0.58731908  0.40870922  1  0.149926  0  0.121077  0.099528  0  0.999838  0
H  H87  1  0.97267134  0.58730631  0.09129539  1  0.149628  0  0.120992  0.099419  0  1.000038  0
H  H88  1  0.40643811  0.98289145  0.09638963  1  0.154554  0  0.110787  0.135395  0  1.011355  0
H  H89  1  0.09356671  0.98288074  0.40360806  1  0.154311  0  0.110711  0.135363  0  1.011285  0
H  H90  1  0.59358184  0.51712661  0.59638050  1  0.154324  0  0.110654  0.135243  0  1.011483  0
H  H91  1  0.90643547  0.51712376  0.90361615  1  0.154404  0  0.1107  0.135271  0  1.011367  0
H  H92  1  0.59356039  0.01710879  0.90360558  1  0.154473  0  0.110801  0.13548  0  1.01128  0
H  H93  1  0.90642564  0.01712828  0.59638994  1  0.154019  0  0.110758  0.135393  0  1.011267  0
H  H94  1  0.40641665  0.48287229  0.40362307  1  0.154407  0  0.110693  0.135281  0  1.011448  0
H  H95  1  0.09356548  0.48287581  0.09639532  1  0.154184  0  0.110741  0.135362  0  1.011282  0
H  H96  1  0.32634504  0.09395370  0.92100840  1  0.06113  0  0.107439  0.115603  0  1.0296  0
H  H97  1  0.17364641  0.09394444  0.57899321  1  0.061181  0  0.10743  0.115547  0  1.029774  0
H  H98  1  0.67366481  0.40607815  0.42098512  1  0.060511  0  0.107393  0.115677  0  1.029325  0
H  H99  1  0.82634449  0.40605883  0.07900583  1  0.060762  0  0.107452  0.115648  0  1.029472  0
H  H100  1  0.67365469  0.90605397  0.07899007  1  0.061214  0  0.107464  0.115621  0  1.029685  0
H  H101  1  0.82634655  0.90604771  0.42100850  1  0.061158  0  0.107434  0.115608  0  1.029667  0
H  H102  1  0.32634844  0.59392075  0.57902078  1  0.060545  0  0.107454  0.115732  0  1.029351  0
H  H103  1  0.17366876  0.59395357  0.92101261  1  0.061115  0  0.107456  0.115589  0  1.029571  0
H  H104  1  0.45324407  0.18696141  0.91992516  1  0.111269  0  0.113404  0.078149  0  1.021904  0
H  H105  1  0.04675184  0.18695423  0.58006702  1  0.111552  0  0.113472  0.078258  0  1.021957  0
H  H106  1  0.54676645  0.31306705  0.41991523  1  0.11238  0  0.113434  0.078169  0  1.022093  0
H  H107  1  0.95323715  0.31304230  0.08007445  1  0.111655  0  0.113382  0.07809  0  1.021972  0
H  H108  1  0.54675750  0.81304086  0.08007284  1  0.111337  0  0.113424  0.078151  0  1.021949  0
H  H109  1  0.95324481  0.81304332  0.41993702  1  0.111622  0  0.113436  0.078277  0  1.021868  0
H  H110  1  0.45324249  0.68693657  0.58008416  1  0.11212  0  0.113408  0.078133  0  1.022152  0
H  H111  1  0.04676688  0.68695660  0.91993655  1  0.111724  0  0.113406  0.078205  0  1.02184  0
H  H112  1  0.27931839  0.93298697  0.05466270  1  0.049436  0  0.09498  0.09768  0  1.012148  0
H  H113  1  0.22067580  0.93296644  0.44534900  1  0.049662  0  0.095022  0.097695  0  1.01221  0
H  H114  1  0.72069106  0.56705030  0.55463424  1  0.050102  0  0.095093  0.097807  0  1.012235  0
H  H115  1  0.77933442  0.56704652  0.94535907  1  0.049967  0  0.0951  0.097755  0  1.012215  0
H  H116  1  0.72067519  0.06702475  0.94533948  1  0.049275  0  0.095025  0.097674  0  1.012252  0
H  H117  1  0.77932208  0.06704258  0.55464482  1  0.049772  0  0.09504  0.097769  0  1.012162  0
H  H118  1  0.27932034  0.43294252  0.44537351  1  0.05023  0  0.095058  0.09781  0  1.012166  0
H  H119  1  0.22068006  0.43297127  0.05465936  1  0.049536  0  0.095003  0.097715  0  1.012213  0
H  H120  1  0.28190488  0.92395985  0.97301547  1  0.089794  0  0.100266  0.115737  0  0.999296  0
H  H121  1  0.21810194  0.92396690  0.52699745  1  0.090016  0  0.100276  0.115755  0  0.999217  0
H  H122  1  0.71811788  0.57605469  0.47298710  1  0.089314  0  0.100187  0.115601  0  0.999246  0
H  H123  1  0.78189682  0.57604314  0.02700917  1  0.089578  0  0.100257  0.115677  0  0.999178  0
H  H124  1  0.71809915  0.07603769  0.02698996  1  0.090003  0  0.100263  0.115746  0  0.999254  0
H  H125  1  0.78188979  0.07602660  0.47299776  1  0.089915  0  0.100279  0.115748  0  0.999233  0
H  H126  1  0.28188738  0.42394488  0.52702251  1  0.089054  0  0.100124  0.115511  0  0.999235  0
H  H127  1  0.21810660  0.42395846  0.97301159  1  0.089946  0  0.100279  0.11577  0  0.999274  0
H  H128  1  0.19549947  0.07608546  0.04599752  1  0.061835  0  0.095417  0.105829  0  1.010333  0
H  H129  1  0.30449027  0.07606974  0.45397828  1  0.061328  0  0.095334  0.10567  0  1.010385  0
H  H130  1  0.80448903  0.42393304  0.54599067  1  0.062209  0  0.095387  0.105808  0  1.010245  0
H  H131  1  0.69552197  0.42393675  0.95398521  1  0.061424  0  0.0954  0.105789  0  1.010378  0
H  H132  1  0.80449411  0.92392693  0.95398190  1  0.061469  0  0.095329  0.10568  0  1.010359  0
H  H133  1  0.69550576  0.92394131  0.54603458  1  0.061054  0  0.095375  0.105801  0  1.010215  0
H  H134  1  0.19552360  0.57606180  0.45400780  1  0.061956  0  0.09537  0.105741  0  1.010453  0
H  H135  1  0.30450173  0.57606687  0.04601790  1  0.061594  0  0.095355  0.105744  0  1.010336  0
H  H136  1  0.19780074  0.06796941  0.96421464  1  0.125392  0  0.096688  0.111647  0  1.021411  0
H  H137  1  0.30219920  0.06799137  0.53576424  1  0.125805  0  0.096622  0.111545  0  1.021253  0
H  H138  1  0.80221214  0.43203378  0.46420371  1  0.125379  0  0.096764  0.1117  0  1.021105  0
H  H139  1  0.69779482  0.43202366  0.03577094  1  0.125461  0  0.096697  0.111678  0  1.021231  0
H  H140  1  0.80219652  0.93201666  0.03576756  1  0.12572  0  0.096607  0.111529  0  1.021253  0
H  H141  1  0.69779131  0.93200077  0.46424909  1  0.12613  0  0.096634  0.11163  0  1.021213  0
H  H142  1  0.19779312  0.56796646  0.53579569  1  0.125235  0  0.096762  0.111687  0  1.021182  0
H  H143  1  0.30220798  0.56798063  0.96423217  1  0.125805  0  0.096703  0.111645  0  1.021215  0
H  H144  1  0.12517686  0.94899593  0.10865223  1  0.120684  0  0.106611  0.116968  0  1.015579  0
H  H145  1  0.37484053  0.94900463  0.39134273  1  0.120914  0  0.106594  0.116827  0  1.015635  0
H  H146  1  0.87481226  0.55099928  0.60864719  1  0.119984  0  0.106596  0.116954  0  1.015631  0
H  H147  1  0.62516974  0.55100111  0.89134150  1  0.120547  0  0.106627  0.116925  0  1.015513  0
H  H148  1  0.87482594  0.05101038  0.89134299  1  0.120864  0  0.106618  0.116903  0  1.015564  0
H  H149  1  0.62514628  0.05099966  0.60866178  1  0.120303  0  0.106596  0.116779  0  1.015721  0
H  H150  1  0.12518869  0.44899759  0.39135173  1  0.119869  0  0.106596  0.116951  0  1.015683  0
H  H151  1  0.37484351  0.44900250  0.10865464  1  0.120541  0  0.106632  0.11686  0  1.015634  0
H  H152  1  0.00701102  0.84149737  0.10682669  1  0.124662  0  0.117605  0.091504  0  1.00632  0
H  H153  1  0.49300088  0.84150241  0.39317910  1  0.12488  0  0.117579  0.091454  0  1.006344  0
H  H154  1  0.99298435  0.65849378  0.60683588  1  0.124856  0  0.117599  0.091517  0  1.006458  0
H  H155  1  0.50699944  0.65848783  0.89317820  1  0.124939  0  0.117628  0.091546  0  1.006418  0
H  H156  1  0.99299485  0.15850557  0.89317456  1  0.124744  0  0.117583  0.091495  0  1.006358  0
H  H157  1  0.50698347  0.15849851  0.60682076  1  0.124843  0  0.117591  0.091402  0  1.006426  0
H  H158  1  0.00701783  0.34150376  0.39316769  1  0.124729  0  0.117575  0.091479  0  1.006331  0
H  H159  1  0.49301626  0.34151646  0.10682072  1  0.125166  0  0.117636  0.091495  0  1.006417  0
H  H160  1  0.98847480  0.85787700  0.91528722  1  0.132219  0  0.118812  0.087761  0  0.987369  0
H  H161  1  0.51150292  0.85788505  0.58472100  1  0.132412  0  0.118864  0.087839  0  0.987316  0
H  H162  1  0.01155928  0.64212760  0.41529565  1  0.132046  0  0.118748  0.087543  0  0.98772  0
H  H163  1  0.48848451  0.64212008  0.08471787  1  0.132286  0  0.118812  0.087723  0  0.987325  0
H  H164  1  0.01151693  0.14211109  0.08471449  1  0.132311  0  0.118816  0.087737  0  0.987322  0
H  H165  1  0.48849619  0.14211047  0.41527793  1  0.132442  0  0.118832  0.087839  0  0.987341  0
H  H166  1  0.98844966  0.35787467  0.58470885  1  0.132052  0  0.11876  0.087617  0  0.987603  0
H  H167  1  0.51152136  0.35787949  0.91527734  1  0.132125  0  0.118814  0.087706  0  0.987571  0
H  H168  1  0.10466232  0.96908982  0.90940625  1  0.080782  0  0.112798  0.128421  0  0.998349  0
H  H169  1  0.39531934  0.96909832  0.59059175  1  0.080456  0  0.112802  0.128433  0  0.998249  0
H  H170  1  0.89537579  0.53090933  0.40940485  1  0.080565  0  0.112839  0.128431  0  0.998456  0
H  H171  1  0.60467390  0.53091091  0.09059009  1  0.0807  0  0.112836  0.128464  0  0.998304  0
H  H172  1  0.89532879  0.03089692  0.09058850  1  0.080404  0  0.112823  0.128452  0  0.998323  0
H  H173  1  0.60467854  0.03089382  0.40941507  1  0.080541  0  0.112804  0.128346  0  0.99841  0
H  H174  1  0.10463869  0.46908687  0.59059501  1  0.08054  0  0.112833  0.128416  0  0.998401  0
H  H175  1  0.39533566  0.46909135  0.90940698  1  0.080739  0  0.112806  0.12838  0  0.998416  0
C  C176  1  0.24519304  0.25367063  0.65362498  1  0.015183  0  -0.011456  -0.020868  0  3.948067  0
C  C177  1  0.25482319  0.25367460  0.84636385  1  0.015298  0  -0.011526  -0.021003  0  3.948222  0
C  C178  1  0.75481997  0.24632990  0.15362955  1  0.015118  0  -0.011555  -0.020974  0  3.948224  0
C  C179  1  0.74517192  0.24632489  0.34635977  1  0.015121  0  -0.011492  -0.020788  0  3.948146  0
C  C180  1  0.75481344  0.74633299  0.34637256  1  0.015127  0  -0.011447  -0.020851  0  3.948114  0
C  C181  1  0.74516424  0.74633037  0.15363647  1  0.015712  0  -0.011468  -0.020687  0  3.948123  0
C  C182  1  0.24516684  0.75366022  0.84636752  1  0.015132  0  -0.011558  -0.020932  0  3.948066  0
C  C183  1  0.25483088  0.75367738  0.65364195  1  0.015138  0  -0.011478  -0.020704  0  3.948241  0
C  C184  1  0.20124498  0.18274182  0.68093806  1  -0.03414  0  -0.082333  -0.092935  0  3.993065  0
C  C185  1  0.29876986  0.18274209  0.81905645  1  -0.034113  0  -0.082274  -0.09275  0  3.993028  0
C  C186  1  0.79876768  0.31725894  0.18094623  1  -0.033995  0  -0.082233  -0.092744  0  3.992985  0
C  C187  1  0.70123420  0.31725918  0.31904624  1  -0.034149  0  -0.082166  -0.09263  0  3.99307  0
C  C188  1  0.79875966  0.81726044  0.31905901  1  -0.034209  0  -0.082345  -0.092866  0  3.993032  0
C  C189  1  0.70122003  0.81725680  0.18094573  1  -0.034653  0  -0.082109  -0.092698  0  3.993089  0
C  C190  1  0.20122774  0.68273118  0.81905828  1  -0.034119  0  -0.082158  -0.092705  0  3.992892  0
C  C191  1  0.29876430  0.68274848  0.68095083  1  -0.034341  0  -0.082204  -0.092832  0  3.99331  0
C  C192  1  0.12928033  0.19939321  0.71386825  1  0.033114  0  -0.086002  -0.111559  0  3.990015  0
C  C193  1  0.37072945  0.19939513  0.78612716  1  0.033213  0  -0.086157  -0.111848  0  3.989823  0
C  C194  1  0.87072674  0.30060716  0.21387452  1  0.032641  0  -0.086187  -0.11195  0  3.990085  0
C  C195  1  0.62927283  0.30060587  0.28611751  1  0.032895  0  -0.086186  -0.111916  0  3.990141  0
C  C196  1  0.87072124  0.80060501  0.28612696  1  0.032696  0  -0.086049  -0.111671  0  3.989746  0
C  C197  1  0.62925798  0.80060647  0.21387734  1  0.033327  0  -0.086273  -0.111995  0  3.989928  0
C  C198  1  0.12925823  0.69938026  0.78612998  1  0.033681  0  -0.086218  -0.111877  0  3.989702  0
C  C199  1  0.37073305  0.69939843  0.71387491  1  0.033376  0  -0.086133  -0.11175  0  3.989806  0
C  C200  1  0.10172226  0.28837509  0.72204775  1  -0.095363  0  -0.015353  -0.035404  0  4.002825  0
C  C201  1  0.39829249  0.28838100  0.77794428  1  -0.09615  0  -0.015348  -0.035269  0  4.003211  0
C  C202  1  0.89828618  0.21162400  0.22204525  1  -0.095579  0  -0.015286  -0.035025  0  4.002909  0
C  C203  1  0.60170719  0.21161992  0.27793948  1  -0.095592  0  -0.015306  -0.035343  0  4.003391  0
C  C204  1  0.89828361  0.71162313  0.27795443  1  -0.095294  0  -0.015289  -0.035038  0  4.002544  0
C  C205  1  0.60169802  0.71162397  0.22205743  1  -0.09622  0  -0.015295  -0.035222  0  4.003423  0
C  C206  1  0.10170125  0.78836072  0.77794578  1  -0.096452  0  -0.015366  -0.035404  0  4.003545  0
C  C207  1  0.39830175  0.78837493  0.72205713  1  -0.096234  0  -0.015366  -0.035283  0  4.003416  0
C  C208  1  0.14785127  0.35984441  0.69729661  1  -0.068235  0  -0.083223  -0.103779  0  3.989221  0
C  C209  1  0.35216548  0.35984534  0.80269392  1  -0.067995  0  -0.083008  -0.103467  0  3.989015  0
C  C210  1  0.85216597  0.14016121  0.19729742  1  -0.068519  0  -0.083225  -0.103934  0  3.989307  0
C  C211  1  0.64783337  0.14016119  0.30269252  1  -0.068797  0  -0.083141  -0.103661  0  3.989213  0
C  C212  1  0.85215583  0.64015921  0.30270975  1  -0.068565  0  -0.083328  -0.103989  0  3.989468  0
C  C213  1  0.64782625  0.64015963  0.19730872  1  -0.068763  0  -0.083217  -0.103768  0  3.989327  0
C  C214  1  0.14783252  0.85982688  0.80269640  1  -0.068133  0  -0.083245  -0.103693  0  3.98942  0
C  C215  1  0.35217004  0.85984310  0.69731105  1  -0.06887  0  -0.08314  -0.103684  0  3.989148  0
C  C216  1  0.21803268  0.34258703  0.66231686  1  -0.017493  0  -0.080777  -0.089454  0  3.970262  0
C  C217  1  0.28197683  0.34258760  0.83766859  1  -0.017781  0  -0.080821  -0.089514  0  3.969945  0
C  C218  1  0.78198106  0.15742032  0.16231870  1  -0.017404  0  -0.080711  -0.089365  0  3.969841  0
C  C219  1  0.71801324  0.15741721  0.33767493  1  -0.017961  0  -0.080772  -0.089498  0  3.969985  0
C  C220  1  0.78197135  0.65741658  0.33768625  1  -0.01736  0  -0.080748  -0.089478  0  3.970611  0
C  C221  1  0.71800752  0.65741602  0.16232616  1  -0.017787  0  -0.080658  -0.089399  0  3.969959  0
C  C222  1  0.21801251  0.84257385  0.83767279  1  -0.017484  0  -0.08071  -0.089425  0  3.969916  0
C  C223  1  0.28199447  0.84259045  0.66232353  1  -0.017813  0  -0.080771  -0.089492  0  3.969933  0
C  C224  1  0.89494318  0.23936605  0.79366822  1  0.271501  0  0.100176  0.258633  0  4.018539  0
C  C225  1  0.60505771  0.23934634  0.70631908  1  0.271178  0  0.100135  0.258522  0  4.018457  0
C  C226  1  0.10505805  0.26064580  0.29367151  1  0.271357  0  0.100245  0.258737  0  4.018557  0
C  C227  1  0.39494119  0.26065194  0.20631749  1  0.270909  0  0.100203  0.25882  0  4.018655  0
C  C228  1  0.10506454  0.76063419  0.20633256  1  0.271539  0  0.100248  0.258797  0  4.018213  0
C  C229  1  0.39493710  0.76066335  0.29368357  1  0.27111  0  0.099978  0.25832  0  4.018718  0
C  C230  1  0.89493369  0.73934702  0.70632277  1  0.271004  0  0.099945  0.258418  0  4.017994  0
C  C231  1  0.60506775  0.73934560  0.79367726  1  0.271188  0  0.099981  0.258427  0  4.018053  0
C  C232  1  0.84920339  0.15913959  0.78933531  1  -0.014089  0  -0.097156  -0.194169  0  3.987752  0
C  C233  1  0.65079340  0.15911839  0.71064699  1  -0.009418  0  -0.096766  -0.193746  0  3.987358  0
C  C234  1  0.15079563  0.34087155  0.28934177  1  -0.014334  0  -0.097065  -0.193994  0  3.987615  0
C  C235  1  0.34920833  0.34087993  0.21064664  1  -0.010017  0  -0.096836  -0.193962  0  3.987535  0
C  C236  1  0.15080125  0.84086471  0.21066268  1  -0.014043  0  -0.097149  -0.194213  0  3.987641  0
C  C237  1  0.34920264  0.84089670  0.28935519  1  -0.009651  0  -0.096584  -0.19375  0  3.987115  0
C  C238  1  0.84919795  0.65911519  0.71064740  1  -0.010137  0  -0.096707  -0.193714  0  3.987293  0
C  C239  1  0.65080369  0.65911694  0.78934717  1  -0.009662  0  -0.09676  -0.193655  0  3.987197  0
C  C240  1  0.77495905  0.15074758  0.82066146  1  -0.042577  0  -0.086037  -0.084701  0  4.034533  0
C  C241  1  0.72504241  0.15073131  0.67931761  1  -0.048287  0  -0.086281  -0.085313  0  4.034709  0
C  C242  1  0.22504246  0.34926720  0.32066883  1  -0.043214  0  -0.086093  -0.084829  0  4.034612  0
C  C243  1  0.27496051  0.34926944  0.17932050  1  -0.047509  0  -0.086168  -0.085051  0  4.034803  0
C  C244  1  0.22504621  0.84925671  0.17933375  1  -0.043128  0  -0.086049  -0.084697  0  4.034543  0
C  C245  1  0.27495546  0.84927838  0.32068132  1  -0.048707  0  -0.086238  -0.085235  0  4.034683  0
C  C246  1  0.77495542  0.65072224  0.67932220  1  -0.047762  0  -0.086234  -0.085235  0  4.035051  0
C  C247  1  0.72504659  0.65072540  0.82067610  1  -0.048676  0  -0.086188  -0.085232  0  4.034778  0
C  C248  1  0.74563130  0.22047448  0.85857209  1  -0.056433  0  -0.029186  -0.058554  0  3.996154  0
C  C249  1  0.75437274  0.22046659  0.64141244  1  -0.056281  0  -0.029105  -0.057815  0  3.99567  0
C  C250  1  0.25436678  0.27954468  0.35857956  1  -0.056481  0  -0.029065  -0.058197  0  3.996334  0
C  C251  1  0.24562807  0.27953654  0.14141731  1  -0.056195  0  -0.029175  -0.058137  0  3.996118  0
C  C252  1  0.25437457  0.77952914  0.14142219  1  -0.056094  0  -0.029273  -0.058769  0  3.996494  0
C  C253  1  0.24562329  0.77954311  0.35859066  1  -0.056074  0  -0.029052  -0.057559  0  3.995721  0
C  C254  1  0.74562433  0.72045354  0.64141751  1  -0.055886  0  -0.029041  -0.057943  0  3.995976  0
C  C255  1  0.75437842  0.72045426  0.85858208  1  -0.055876  0  -0.029081  -0.057751  0  3.995745  0
C  C256  1  0.79408251  0.29804328  0.86532016  1  -0.024378  0  -0.088404  -0.0732  0  3.993008  0
C  C257  1  0.70591019  0.29802282  0.63465962  1  -0.026001  0  -0.088488  -0.073936  0  3.993619  0
C  C258  1  0.20591088  0.20197796  0.36532947  1  -0.025289  0  -0.088342  -0.07348  0  3.993738  0
C  C259  1  0.29408732  0.20197620  0.13466425  1  -0.02625  0  -0.088445  -0.073664  0  3.993364  0
C  C260  1  0.20591721  0.70196439  0.13467412  1  -0.024293  0  -0.088281  -0.072893  0  3.99318  0
C  C261  1  0.29408277  0.70198822  0.36533978  1  -0.025736  0  -0.088456  -0.073971  0  3.99381  0
C  C262  1  0.79407594  0.79802228  0.63466945  1  -0.024358  0  -0.088499  -0.073494  0  3.993341  0
C  C263  1  0.70592101  0.79801460  0.86533560  1  -0.02513  0  -0.088496  -0.073929  0  3.993519  0
C  C264  1  0.86707290  0.30900518  0.83265149  1  0.000801  0  -0.104859  -0.195728  0  3.975078  0
C  C265  1  0.63291827  0.30897907  0.66732130  1  0.002652  0  -0.104775  -0.195227  0  3.975001  0
C  C266  1  0.13292423  0.19101038  0.33266226  1  0.001751  0  -0.105018  -0.195749  0  3.975405  0
C  C267  1  0.36708043  0.19101955  0.16732638  1  0.002334  0  -0.104879  -0.195519  0  3.975295  0
C  C268  1  0.13292990  0.69099708  0.16734372  1  0.001129  0  -0.104958  -0.195906  0  3.975273  0
C  C269  1  0.36707654  0.69102994  0.33267484  1  0.002972  0  -0.104771  -0.1952  0  3.974945  0
C  C270  1  0.86706627  0.80898582  0.66733574  1  0.001344  0  -0.104982  -0.1958  0  3.975213  0
C  C271  1  0.63293343  0.80898070  0.83266698  1  0.002679  0  -0.104881  -0.195439  0  3.975027  0
C  C272  1  0.31927427  0.23169990  0.61458525  1  1.55543  0  0.201636  0.56586  0  4.224964  0
C  C273  1  0.18074011  0.23170306  0.88540686  1  1.555417  0  0.201599  0.565863  0  4.225031  0
C  C274  1  0.68073977  0.26830029  0.11458888  1  1.555564  0  0.201551  0.56576  0  4.225549  0
C  C275  1  0.81925397  0.26829811  0.38540134  1  1.555367  0  0.201381  0.565613  0  4.225149  0
C  C276  1  0.68072791  0.76830236  0.38541414  1  1.555935  0  0.201783  0.565958  0  4.225052  0
C  C277  1  0.81924794  0.76830056  0.11459485  1  1.555837  0  0.201506  0.565768  0  4.224908  0
C  C278  1  0.31924950  0.73169591  0.88541144  1  1.555882  0  0.201642  0.565753  0  4.225063  0
C  C279  1  0.18074699  0.73171563  0.61459898  1  1.555128  0  0.201423  0.565595  0  4.225102  0
C  C280  1  0.66392857  0.21257395  0.89039656  1  1.56428  0  0.197909  0.569319  0  4.250299  0
C  C281  1  0.83608324  0.21258277  0.60959217  1  1.56467  0  0.197978  0.569287  0  4.250286  0
C  C282  1  0.33607198  0.28743738  0.39039960  1  1.564875  0  0.197984  0.569345  0  4.250839  0
C  C283  1  0.16392248  0.28742210  0.10959586  1  1.56443  0  0.197944  0.569299  0  4.250569  0
C  C284  1  0.33607791  0.78742561  0.10959865  1  1.564359  0  0.19792  0.569477  0  4.250516  0
C  C285  1  0.16391464  0.78742220  0.39041187  1  1.564786  0  0.197828  0.56895  0  4.250866  0
C  C286  1  0.66392221  0.71255814  0.60959979  1  1.564238  0  0.197967  0.569282  0  4.250438  0
C  C287  1  0.83608400  0.71256532  0.89040446  1  1.56386  0  0.197931  0.569161  0  4.250707  0
C  C288  1  0.02762322  0.31009476  0.76037627  1  1.37693  0  0.238809  0.478732  0  4.116585  0
C  C289  1  0.47238968  0.31008395  0.73961573  1  1.376377  0  0.238756  0.478477  0  4.116612  0
C  C290  1  0.97238792  0.18991276  0.26037472  1  1.377114  0  0.238732  0.478458  0  4.116451  0
C  C291  1  0.52761590  0.18992001  0.23961329  1  1.376471  0  0.238807  0.478679  0  4.116707  0
C  C292  1  0.97238695  0.68990751  0.23962730  1  1.377306  0  0.238767  0.47848  0  4.11654  0
C  C293  1  0.52759959  0.68991832  0.26038180  1  1.37554  0  0.238912  0.478778  0  4.116316  0
C  C294  1  0.02760750  0.81007331  0.73962002  1  1.376871  0  0.238863  0.478722  0  4.116538  0
C  C295  1  0.47239735  0.81008428  0.76038053  1  1.375631  0  0.238794  0.478494  0  4.116961  0
C  C296  1  0.48178511  0.08539641  0.05409790  1  0.437577  0  0.051512  0.100135  0  3.934159  0
C  C297  1  0.01821534  0.08538699  0.44589693  1  0.43857  0  0.051542  0.100334  0  3.933917  0
C  C298  1  0.51823612  0.41461406  0.55409605  1  0.437484  0  0.051415  0.100058  0  3.934276  0
C  C299  1  0.98177954  0.41460862  0.94589982  1  0.438124  0  0.051515  0.100302  0  3.934117  0
C  C300  1  0.51820908  0.91460519  0.94590382  1  0.438075  0  0.051634  0.100354  0  3.934061  0
C  C301  1  0.98177762  0.91461663  0.55410525  1  0.438283  0  0.051424  0.100354  0  3.933935  0
C  C302  1  0.48176545  0.58538551  0.44590288  1  0.437602  0  0.051472  0.100208  0  3.934133  0
C  C303  1  0.01821527  0.58538487  0.05410654  1  0.438181  0  0.051515  0.100205  0  3.933982  0
C  C304  1  0.41346127  0.02917940  0.05730913  1  -0.05978  0  -0.080291  -0.178983  0  3.908162  0
C  C305  1  0.08654375  0.02916936  0.44268903  1  -0.060143  0  -0.080196  -0.178898  0  3.908101  0
C  C306  1  0.58655977  0.47083245  0.55729772  1  -0.059836  0  -0.08016  -0.178797  0  3.908162  0
C  C307  1  0.91346177  0.47083365  0.94269992  1  -0.060167  0  -0.080154  -0.178757  0  3.908002  0
C  C308  1  0.58653599  0.97081882  0.94268840  1  -0.060082  0  -0.080401  -0.179242  0  3.908258  0
C  C309  1  0.91345229  0.97083358  0.55731222  1  -0.059829  0  -0.080192  -0.178859  0  3.908207  0
C  C310  1  0.41344118  0.52916374  0.44270678  1  -0.059913  0  -0.080291  -0.178968  0  3.90827  0
C  C311  1  0.08654594  0.52916794  0.05731387  1  -0.059946  0  -0.080279  -0.178941  0  3.908142  0
C  C312  1  0.35486458  0.03111476  0.00971105  1  0.011074  0  0.020154  0.178914  0  3.918386  0
C  C313  1  0.14513312  0.03110298  0.49028665  1  0.010637  0  0.020182  0.178902  0  3.918567  0
C  C314  1  0.64515123  0.46891558  0.50969544  1  0.009913  0  0.020329  0.178857  0  3.91859  0
C  C315  1  0.85486411  0.46890112  0.99029756  1  0.010341  0  0.020157  0.178712  0  3.918368  0
C  C316  1  0.64513392  0.96888751  0.99028323  1  0.011037  0  0.020237  0.178984  0  3.918449  0
C  C317  1  0.85486292  0.96889591  0.50971368  1  0.010198  0  0.020129  0.178793  0  3.918609  0
C  C318  1  0.35485649  0.53108534  0.49030907  1  0.005801  0  0.020414  0.179079  0  3.918277  0
C  C319  1  0.14514176  0.53110723  0.00971855  1  0.010275  0  0.020167  0.17885  0  3.91862  0
C  C320  1  0.36940247  0.08946635  0.95961423  1  0.001492  0  -0.081932  -0.175616  0  3.917822  0
C  C321  1  0.13059192  0.08945748  0.54038831  1  0.001767  0  -0.08193  -0.175493  0  3.918155  0
C  C322  1  0.63060698  0.41056043  0.45959378  1  0.001964  0  -0.081992  -0.175748  0  3.917343  0
C  C323  1  0.86940182  0.41054410  0.04039716  1  0.001991  0  -0.082001  -0.175681  0  3.91764  0
C  C324  1  0.63059602  0.91054065  0.04038655  1  0.001848  0  -0.082043  -0.175771  0  3.917998  0
C  C325  1  0.86940104  0.91053872  0.45961526  1  0.001713  0  -0.081921  -0.175582  0  3.918033  0
C  C326  1  0.36940134  0.58944184  0.54041351  1  0.006441  0  -0.082155  -0.175998  0  3.917261  0
C  C327  1  0.13060651  0.58946154  0.95961896  1  0.001927  0  -0.081942  -0.175577  0  3.917894  0
C  C328  1  0.43942466  0.14254455  0.95893010  1  0.460074  0  0.045841  0.097431  0  3.964359  0
C  C329  1  0.06057676  0.14253636  0.54106632  1  0.459309  0  0.045712  0.097343  0  3.96473  0
C  C330  1  0.56058668  0.35747548  0.45892147  1  0.459664  0  0.045695  0.097251  0  3.964447  0
C  C331  1  0.93942370  0.35746253  0.04107279  1  0.460267  0  0.045837  0.097501  0  3.964374  0
C  C332  1  0.56057691  0.85745840  0.04107068  1  0.460038  0  0.045747  0.097463  0  3.964416  0
C  C333  1  0.93941927  0.85746051  0.45893678  1  0.459346  0  0.045818  0.09739  0  3.9645  0
C  C334  1  0.43941981  0.64252409  0.54108303  1  0.459244  0  0.045859  0.097573  0  3.964178  0
C  C335  1  0.06058770  0.64253772  0.95894100  1  0.459141  0  0.045822  0.097405  0  3.964374  0
C  C336  1  0.27944006  0.97278540  0.01166487  1  -0.032303  0  -0.154901  -0.198289  0  3.902868  0
C  C337  1  0.22055955  0.97277806  0.48833841  1  -0.032828  0  -0.154964  -0.198471  0  3.902958  0
C  C338  1  0.72057065  0.52723598  0.51164390  1  -0.032523  0  -0.155005  -0.198389  0  3.903443  0
C  C339  1  0.77944388  0.52723054  0.98835041  1  -0.032794  0  -0.15505  -0.198377  0  3.903001  0
C  C340  1  0.72055720  0.02721890  0.98833545  1  -0.032743  0  -0.154943  -0.198354  0  3.902995  0
C  C341  1  0.77943464  0.02722218  0.51165866  1  -0.032683  0  -0.154944  -0.198457  0  3.903054  0
C  C342  1  0.27943830  0.47275751  0.48836292  1  -0.032261  0  -0.154926  -0.198359  0  3.902979  0
C  C343  1  0.22056691  0.47277645  0.01166525  1  -0.032364  0  -0.154935  -0.198427  0  3.903164  0
C  C344  1  0.19906897  0.02804383  0.00716993  1  -0.07151  0  -0.160399  -0.210866  0  3.9135  0
C  C345  1  0.30092864  0.02804684  0.49281476  1  -0.071532  0  -0.160212  -0.210418  0  3.913332  0
C  C346  1  0.80093776  0.47196624  0.50715965  1  -0.071646  0  -0.160384  -0.210806  0  3.913097  0
C  C347  1  0.69907644  0.47196470  0.99282173  1  -0.070205  0  -0.160322  -0.210721  0  3.913423  0
C  C348  1  0.80092460  0.97195371  0.99281552  1  -0.071588  0  -0.160204  -0.210429  0  3.913047  0
C  C349  1  0.69906555  0.97195408  0.50719346  1  -0.071391  0  -0.160276  -0.210699  0  3.913426  0
C  C350  1  0.19907119  0.52803333  0.49284067  1  -0.071508  0  -0.16033  -0.210617  0  3.913078  0
C  C351  1  0.30093804  0.52803959  0.00718324  1  -0.07172  0  -0.160304  -0.210705  0  3.913531  0
C  C352  1  0.12611744  0.96648520  0.00857750  1  -0.008702  0  0.021755  0.187742  0  3.920045  0
C  C353  1  0.37387954  0.96649142  0.49141928  1  -0.008578  0  0.021655  0.187563  0  3.920327  0
C  C354  1  0.87389344  0.53352266  0.50857665  1  -0.008348  0  0.021695  0.187713  0  3.920037  0
C  C355  1  0.62612125  0.53351721  0.99141997  1  -0.009475  0  0.021687  0.187538  0  3.920243  0
C  C356  1  0.87387859  0.03351235  0.99141678  1  -0.008019  0  0.021637  0.187533  0  3.920366  0
C  C357  1  0.62611343  0.03350882  0.50858801  1  -0.008197  0  0.021468  0.187466  0  3.920403  0
C  C358  1  0.12611304  0.46647826  0.49142367  1  -0.008034  0  0.021684  0.187707  0  3.920243  0
C  C359  1  0.37388646  0.46648506  0.00857942  1  -0.008417  0  0.021797  0.187897  0  3.920167  0
C  C360  1  0.09710119  0.93037766  0.06457860  1  -0.080575  0  -0.082636  -0.182561  0  3.939107  0
C  C361  1  0.40290891  0.93038741  0.43542242  1  -0.080608  0  -0.082616  -0.182407  0  3.939128  0
C  C362  1  0.90290707  0.56961987  0.56457860  1  -0.079599  0  -0.08255  -0.182418  0  3.939094  0
C  C363  1  0.59710004  0.56961331  0.93541797  1  -0.080569  0  -0.082591  -0.182249  0  3.938929  0
C  C364  1  0.90289976  0.06962393  0.93542033  1  -0.080861  0  -0.082624  -0.182399  0  3.939404  0
C  C365  1  0.59708344  0.06961823  0.56458255  1  -0.080062  0  -0.082531  -0.18213  0  3.939178  0
C  C366  1  0.09710249  0.43037767  0.43542265  1  -0.079812  0  -0.082611  -0.182565  0  3.939418  0
C  C367  1  0.40291874  0.43038423  0.06457724  1  -0.080087  0  -0.082749  -0.182536  0  3.939204  0
C  C368  1  0.03209319  0.86998182  0.06420135  1  0.458321  0  0.048303  0.101852  0  3.948812  0
C  C369  1  0.46790722  0.86998506  0.43580300  1  0.45815  0  0.048305  0.10201  0  3.949124  0
C  C370  1  0.96791263  0.63002112  0.56420191  1  0.457816  0  0.04829  0.101724  0  3.948996  0
C  C371  1  0.53209126  0.63001095  0.93580015  1  0.458147  0  0.048196  0.101641  0  3.949134  0
C  C372  1  0.96790346  0.13001978  0.93579850  1  0.458153  0  0.048255  0.101729  0  3.949084  0
C  C373  1  0.53208390  0.13001721  0.56419778  1  0.457985  0  0.048295  0.10199  0  3.949328  0
C  C374  1  0.03209262  0.36998182  0.43580027  1  0.458267  0  0.04834  0.101867  0  3.948859  0
C  C375  1  0.46791769  0.36998862  0.06419460  1  0.457706  0  0.048234  0.101887  0  3.949367  0
C  C376  1  0.02133452  0.87977410  0.95688697  1  0.385983  0  0.04596  0.088832  0  3.972048  0
C  C377  1  0.47865446  0.87977750  0.54311766  1  0.386817  0  0.045995  0.088983  0  3.971947  0
C  C378  1  0.97868794  0.62021938  0.45688712  1  0.384892  0  0.046084  0.089282  0  3.972196  0
C  C379  1  0.52133783  0.62022188  0.04311513  1  0.385521  0  0.046011  0.089033  0  3.971991  0
C  C380  1  0.97866274  0.12021804  0.04311382  1  0.386012  0  0.045945  0.088878  0  3.9715  0
C  C381  1  0.52134465  0.12021937  0.45688173  1  0.386642  0  0.046039  0.088975  0  3.971996  0
C  C382  1  0.02132039  0.37978019  0.54311460  1  0.385324  0  0.046021  0.089107  0  3.97204  0
C  C383  1  0.47867295  0.37977972  0.95687915  1  0.386848  0  0.046056  0.089052  0  3.972312  0
C  C384  1  0.08595474  0.94073750  0.95388100  1  0.061476  0  -0.079611  -0.177415  0  3.927249  0
C  C385  1  0.41403166  0.94074134  0.54611704  1  0.061611  0  -0.079483  -0.177284  0  3.926967  0
C  C386  1  0.91406482  0.55926000  0.45388061  1  0.061584  0  -0.079711  -0.177564  0  3.927494  0
C  C387  1  0.58596046  0.55926616  0.04611754  1  0.061838  0  -0.079686  -0.177516  0  3.927433  0
C  C388  1  0.91403822  0.05925127  0.04611514  1  0.061194  0  -0.0795  -0.177301  0  3.92696  0
C  C389  1  0.58596315  0.05924878  0.45388653  1  0.061563  0  -0.079422  -0.177202  0  3.92695  0
C  C390  1  0.08594351  0.44073822  0.54611971  1  0.061494  0  -0.079581  -0.177408  0  3.927271  0
C  C391  1  0.41404172  0.44073881  0.95388092  1  0.061455  0  -0.079625  -0.177468  0  3.927258  0
N  N392  1  0.96715779  0.24508429  0.75847387  1  -1.232699  0  -0.394728  -0.379477  0  3.575026  0
N  N393  1  0.53283957  0.24506769  0.74151295  1  -1.23271  0  -0.394889  -0.379769  0  3.574852  0
N  N394  1  0.03284732  0.25492457  0.25847444  1  -1.23267  0  -0.394758  -0.379527  0  3.574864  0
N  N395  1  0.46716221  0.25493360  0.24150667  1  -1.232424  0  -0.395016  -0.380101  0  3.57504  0
N  N396  1  0.03284870  0.75491596  0.24152784  1  -1.232948  0  -0.394693  -0.379443  0  3.574922  0
N  N397  1  0.46715155  0.75493863  0.25848969  1  -1.231808  0  -0.395074  -0.379955  0  3.575038  0
N  N398  1  0.96715118  0.74506286  0.74151752  1  -1.232402  0  -0.394934  -0.379797  0  3.574787  0
N  N399  1  0.53284735  0.74506732  0.75848483  1  -1.231749  0  -0.394899  -0.379771  0  3.574826  0
N  N400  1  0.99505490  0.84446211  0.01102952  1  -1.266009  0  -0.340275  -0.252449  0  3.620457  0
N  N401  1  0.50493354  0.84446788  0.48897843  1  -1.267176  0  -0.340394  -0.252853  0  3.621299  0
N  N402  1  0.00495769  0.65553969  0.51103337  1  -1.265211  0  -0.340324  -0.252493  0  3.620279  0
N  N403  1  0.49505633  0.65553061  0.98897252  1  -1.265778  0  -0.340233  -0.25247  0  3.62058  0
N  N404  1  0.00494114  0.15553476  0.98897173  1  -1.265822  0  -0.340252  -0.252435  0  3.620427  0
N  N405  1  0.49505881  0.15553102  0.51102050  1  -1.26734  0  -0.340353  -0.252831  0  3.621347  0
N  N406  1  0.99505064  0.34446258  0.48896881  1  -1.265623  0  -0.340343  -0.252553  0  3.620387  0
N  N407  1  0.50495016  0.34447301  0.01101990  1  -1.267382  0  -0.34031  -0.252575  0  3.621075  0
N  N408  1  0.49463677  0.14134867  0.00572187  1  -1.291404  0  -0.339713  -0.258575  0  3.619839  0
N  N409  1  0.00536280  0.14133691  0.49426776  1  -1.290991  0  -0.339726  -0.258873  0  3.61995  0
N  N410  1  0.50538234  0.35867151  0.50572109  1  -1.290522  0  -0.339657  -0.258383  0  3.619804  0
N  N411  1  0.99462867  0.35866047  0.99427392  1  -1.291477  0  -0.339695  -0.258649  0  3.620001  0
N  N412  1  0.50536418  0.85864955  0.99427520  1  -1.291652  0  -0.339652  -0.25867  0  3.619898  0
N  N413  1  0.99463324  0.85866131  0.50573441  1  -1.290838  0  -0.339718  -0.258821  0  3.619805  0
N  N414  1  0.49462415  0.64132873  0.49427412  1  -1.290437  0  -0.339713  -0.258656  0  3.619767  0
N  N415  1  0.00537044  0.64133775  0.00573522  1  -1.290784  0  -0.339693  -0.258652  0  3.619816  0
O  O416  1  0.65694832  0.26228937  0.94001105  1  -1.183299  0  -0.343989  -0.573102  0  2.36586  0
O  O417  1  0.84306858  0.26228527  0.55997667  1  -1.183812  0  -0.343917  -0.573107  0  2.366273  0
O  O418  1  0.34305490  0.23772577  0.44001160  1  -1.184186  0  -0.343962  -0.573095  0  2.365974  0
O  O419  1  0.15693878  0.23771850  0.05997836  1  -1.183736  0  -0.343882  -0.573037  0  2.366244  0
O  O420  1  0.34306001  0.73771155  0.05998462  1  -1.183479  0  -0.343994  -0.573207  0  2.366029  0
O  O421  1  0.15693360  0.73772509  0.44003154  1  -1.184005  0  -0.343865  -0.572914  0  2.366388  0
O  O422  1  0.65693376  0.76227312  0.55998733  1  -1.184045  0  -0.343989  -0.573171  0  2.365813  0
O  O423  1  0.84306402  0.76226285  0.94002382  1  -1.183479  0  -0.343865  -0.573017  0  2.366348  0
O  O424  1  0.60919388  0.16159006  0.86920274  1  -1.197403  0  -0.336072  -0.578887  0  2.13032  0
O  O425  1  0.89081527  0.16160992  0.63079675  1  -1.197223  0  -0.336162  -0.578911  0  2.130501  0
O  O426  1  0.39080544  0.33841569  0.36919719  1  -1.197135  0  -0.336176  -0.578969  0  2.13059  0
O  O427  1  0.10918861  0.33839041  0.13080051  1  -1.197282  0  -0.336142  -0.578883  0  2.130667  0
O  O428  1  0.39081076  0.83840816  0.13079479  1  -1.19745  0  -0.336  -0.578816  0  2.130535  0
O  O429  1  0.10917769  0.83838492  0.36920497  1  -1.197178  0  -0.33617  -0.578873  0  2.130716  0
O  O430  1  0.60918691  0.66158118  0.63080080  1  -1.197135  0  -0.336107  -0.578887  0  2.130551  0
O  O431  1  0.89081849  0.66159836  0.86919981  1  -1.197285  0  -0.336174  -0.578879  0  2.130655  0
O  O432  1  0.34942203  0.15411170  0.61622466  1  -1.175877  0  -0.330048  -0.567154  0  2.131658  0
O  O433  1  0.15057480  0.15411966  0.88376013  1  -1.175741  0  -0.329954  -0.567152  0  2.131416  0
O  O434  1  0.65057839  0.34587974  0.11623698  1  -1.175996  0  -0.329946  -0.567102  0  2.13171  0
O  O435  1  0.84941937  0.34588082  0.38375359  1  -1.17568  0  -0.329862  -0.567064  0  2.131463  0
O  O436  1  0.65057831  0.84588990  0.38377520  1  -1.175953  0  -0.330076  -0.567197  0  2.131504  0
O  O437  1  0.84940833  0.84588801  0.11623786  1  -1.175953  0  -0.330005  -0.567158  0  2.131331  0
O  O438  1  0.34940842  0.65411376  0.88376659  1  -1.176059  0  -0.330047  -0.567096  0  2.131554  0
O  O439  1  0.15058158  0.65412955  0.61624348  1  -1.175461  0  -0.329969  -0.567169  0  2.131315  0
O  O440  1  0.34547616  0.29712763  0.57930977  1  -1.177505  0  -0.336151  -0.559816  0  2.323688  0
O  O441  1  0.15454867  0.29713167  0.92068689  1  -1.176867  0  -0.336206  -0.559812  0  2.323674  0
O  O442  1  0.65455345  0.20287833  0.07930663  1  -1.1769  0  -0.336149  -0.559734  0  2.323947  0
O  O443  1  0.84544275  0.20287183  0.42068089  1  -1.176299  0  -0.336205  -0.559887  0  2.323835  0
O  O444  1  0.65452849  0.70287262  0.42068451  1  -1.177621  0  -0.336307  -0.559877  0  2.323781  0
O  O445  1  0.84544429  0.70287060  0.07931761  1  -1.176486  0  -0.3362  -0.55993  0  2.323794  0
O  O446  1  0.34544443  0.79712393  0.92069090  1  -1.176962  0  -0.336164  -0.559769  0  2.323934  0
O  O447  1  0.15455698  0.79714326  0.57931757  1  -1.176375  0  -0.33609  -0.559704  0  2.323964  0
O  O448  1  0.02341556  0.38042097  0.79141590  1  -1.13826  0  -0.299882  -0.481779  0  2.090081  0
O  O449  1  0.47660485  0.38041982  0.70856949  1  -1.137652  0  -0.299909  -0.481742  0  2.089528  0
O  O450  1  0.97659317  0.11958007  0.29141877  1  -1.138097  0  -0.299858  -0.481728  0  2.089857  0
O  O451  1  0.52340068  0.11958928  0.20856702  1  -1.137773  0  -0.299905  -0.481754  0  2.089721  0
O  O452  1  0.97659277  0.61957455  0.20858814  1  -1.13812  0  -0.299864  -0.481728  0  2.089915  0
O  O453  1  0.52338073  0.61958583  0.29143083  1  -1.137571  0  -0.299883  -0.481782  0  2.08963  0
O  O454  1  0.02340040  0.88040601  0.70857365  1  -1.137852  0  -0.299793  -0.481668  0  2.089777  0
O  O455  1  0.47660703  0.88040894  0.79143377  1  -1.137711  0  -0.299852  -0.481664  0  2.089848  0
