# generated using pymatgen
data_Zn2H43C47(N5O4)2
_symmetry_space_group_name_H-M   'P 1'
_cell_length_a   10.74878753
_cell_length_b   15.41247866
_cell_length_c   28.92058795
_cell_angle_alpha   82.65342337
_cell_angle_beta   88.31886161
_cell_angle_gamma   84.31660248
_symmetry_Int_Tables_number   1
_chemical_formula_structural   Zn2H43C47(N5O4)2
_chemical_formula_sum   'Zn8 H172 C188 N40 O32'
_cell_volume   4727.77778390
_cell_formula_units_Z   4
loop_
 _symmetry_equiv_pos_site_id
 _symmetry_equiv_pos_as_xyz
  1  'x, y, z'
loop_
 _atom_site_type_symbol
 _atom_site_label
 _atom_site_symmetry_multiplicity
 _atom_site_fract_x
 _atom_site_fract_y
 _atom_site_fract_z
 _atom_site_occupancy
 _atom_site_pbe_bader_charge
 _atom_site_pbe_bader_spin_density
 _atom_site_pbe_cm5_charge
 _atom_site_pbe_ddec_charge
 _atom_site_pbe_ddec_spin_density
 _atom_site_pbe_ddec_sum_bond_order
 _atom_site_pbe_magmom
Zn  Zn0  1  0.27835031  0.65135659  0.69162539  1  1.319044  0  0.679315  0.813438  0  2.346488  0
Zn  Zn1  1  0.72164608  0.34864305  0.30837263  1  1.318993  0  0.679341  0.813405  0  2.346488  0
Zn  Zn2  1  0.30402185  0.87129200  0.17914010  1  1.318872  0  0.685288  0.813014  0  2.331788  0
Zn  Zn3  1  0.69598021  0.12871423  0.82085874  1  1.318984  0  0.685304  0.813047  0  2.331733  0
Zn  Zn4  1  0.20625951  0.14550093  0.18949729  1  1.325738  0  0.684783  0.819977  0  2.366831  0
Zn  Zn5  1  0.79373984  0.85450466  0.81050164  1  1.325875  0  0.684775  0.819966  0  2.366886  0
Zn  Zn6  1  0.23286147  0.39372582  0.68448750  1  1.312396  0  0.68311  0.811613  0  2.338923  0
Zn  Zn7  1  0.76712384  0.60628048  0.31551259  1  1.312401  0  0.683096  0.811593  0  2.338877  0
H  H8  1  0.38587542  0.21259080  0.84032134  1  0.156182  0  0.110108  0.125727  0  1.045906  0
H  H9  1  0.61412700  0.78741283  0.15967874  1  0.156101  0  0.110126  0.125746  0  1.045853  0
H  H10  1  0.04147298  0.74346147  0.32009335  1  0.165008  0  0.104626  0.126238  0  1.061187  0
H  H11  1  0.95852673  0.25654150  0.67990681  1  0.164974  0  0.104582  0.12623  0  1.06121  0
H  H12  1  0.08728433  0.81284134  0.23954396  1  0.102906  0  0.115907  0.08999  0  1.017616  0
H  H13  1  0.91271894  0.18716295  0.76045640  1  0.102836  0  0.115933  0.090026  0  1.017666  0
H  H14  1  0.81706554  0.09845296  0.19472106  1  0.067845  0  0.107505  0.105246  0  0.991874  0
H  H15  1  0.18293215  0.90155136  0.80528006  1  0.067934  0  0.107488  0.105225  0  0.991886  0
H  H16  1  0.90822216  0.90282110  0.19275290  1  0.080723  0  0.100673  0.115127  0  1.027911  0
H  H17  1  0.09177287  0.09718183  0.80724490  1  0.080777  0  0.100673  0.115139  0  1.027822  0
H  H18  1  0.46303582  0.81310879  0.26682212  1  0.102606  0  0.120701  0.099156  0  1.003204  0
H  H19  1  0.53696602  0.18689221  0.73317851  1  0.102523  0  0.120692  0.099156  0  1.003202  0
H  H20  1  0.85743710  0.44744031  0.69289027  1  0.068699  0  0.105751  0.104969  0  0.995805  0
H  H21  1  0.14256042  0.55255806  0.30710956  1  0.068313  0  0.105774  0.104998  0  0.995845  0
H  H22  1  0.40486675  0.29835834  0.76236851  1  0.160535  0  0.118537  0.097007  0  1.014331  0
H  H23  1  0.59513920  0.70164655  0.23762935  1  0.160623  0  0.118579  0.097085  0  1.014367  0
H  H24  1  0.44043568  0.91176902  0.70116947  1  0.096479  0  0.101249  0.116442  0  1.000938  0
H  H25  1  0.55956882  0.08823256  0.29882727  1  0.096545  0  0.101215  0.116381  0  1.00101  0
H  H26  1  0.57553528  0.12072084  0.19231450  1  0.040477  0  0.108458  0.133425  0  0.981368  0
H  H27  1  0.42446139  0.87928415  0.80768728  1  0.040669  0  0.10845  0.133453  0  0.981461  0
H  H28  1  0.43737802  0.74230865  0.34751026  1  0.131724  0  0.111764  0.129328  0  1.033272  0
H  H29  1  0.56262304  0.25769100  0.65248840  1  0.13169  0  0.111727  0.129249  0  1.033339  0
H  H30  1  0.39587806  0.31850404  0.91578697  1  0.075471  0  0.102843  0.150684  0  1.018186  0
H  H31  1  0.60412047  0.68149365  0.08421221  1  0.075524  0  0.102856  0.1507  0  1.018089  0
H  H32  1  0.45267310  0.24520139  0.96535686  1  0.039909  0  0.090892  0.128248  0  1.044346  0
H  H33  1  0.54732355  0.75479626  0.03464062  1  0.039911  0  0.090871  0.128225  0  1.044369  0
H  H34  1  0.46858496  0.35958074  0.96175654  1  0.085676  0  0.096808  0.142564  0  1.04371  0
H  H35  1  0.53141069  0.64041762  0.03824298  1  0.085597  0  0.096756  0.142466  0  1.043744  0
H  H36  1  0.98389131  0.27974180  0.83181240  1  0.166583  0  0.106063  0.128369  0  1.06701  0
H  H37  1  0.01610894  0.72025727  0.16818977  1  0.166055  0  0.106081  0.12841  0  1.067022  0
H  H38  1  0.42115118  0.18351893  0.12179396  1  0.13585  0  0.118344  0.094214  0  1.00748  0
H  H39  1  0.57884887  0.81648138  0.87820466  1  0.135818  0  0.11832  0.09418  0  1.007533  0
H  H40  1  0.02288705  0.36288255  0.75435791  1  0.124066  0  0.115737  0.089316  0  1.007169  0
H  H41  1  0.97711415  0.63711654  0.24564563  1  0.123992  0  0.115722  0.089336  0  1.007171  0
H  H42  1  0.68276588  0.92631696  0.19769328  1  0.07666  0  0.105897  0.103067  0  1.012443  0
H  H43  1  0.31723459  0.07368733  0.80230677  1  0.076553  0  0.105901  0.103046  0  1.012444  0
H  H44  1  0.99259829  0.11706197  0.35139860  1  0.094261  0  0.109667  0.117544  0  1.026304  0
H  H45  1  0.00740406  0.88293508  0.64860162  1  0.094206  0  0.109641  0.117511  0  1.026289  0
H  H46  1  0.32437380  0.42271230  0.84153555  1  0.117078  0  0.108424  0.10804  0  1.049045  0
H  H47  1  0.67562710  0.57728869  0.15846404  1  0.117073  0  0.108441  0.108046  0  1.04906  0
H  H48  1  0.86119131  0.64713184  0.69373097  1  0.07491  0  0.106446  0.12611  0  0.992747  0
H  H49  1  0.13879343  0.35286459  0.30626951  1  0.075165  0  0.106448  0.126176  0  0.992692  0
H  H50  1  0.15971277  0.96132557  0.68262904  1  0.056306  0  0.098263  0.091719  0  1.029247  0
H  H51  1  0.84028814  0.03867546  0.31737263  1  0.056279  0  0.09825  0.091684  0  1.029262  0
H  H52  1  0.14931286  0.60267888  0.52819362  1  0.106529  0  0.106962  0.110386  0  1.035511  0
H  H53  1  0.85069125  0.39732606  0.47180668  1  0.106594  0  0.106964  0.110428  0  1.035507  0
H  H54  1  0.38053061  0.49216224  0.76246648  1  0.138523  0  0.116569  0.086854  0  1.041756  0
H  H55  1  0.61946835  0.50783942  0.23753378  1  0.138548  0  0.116567  0.086841  0  1.041765  0
H  H56  1  0.46037342  0.25297470  0.04044093  1  0.077761  0  0.101707  0.104169  0  1.042042  0
H  H57  1  0.53962365  0.74701966  0.95955610  1  0.07776  0  0.101717  0.104165  0  1.042086  0
H  H58  1  0.03904881  0.21762092  0.10511849  1  0.102734  0  0.116976  0.089602  0  1.015921  0
H  H59  1  0.96094903  0.78238204  0.89488066  1  0.102729  0  0.116963  0.089544  0  1.01588  0
H  H60  1  0.50146127  0.73997303  0.53248617  1  0.082806  0  0.103868  0.106467  0  1.031864  0
H  H61  1  0.49853651  0.26002337  0.46751415  1  0.082733  0  0.103831  0.10641  0  1.031914  0
H  H62  1  0.10392597  0.81524044  0.53281912  1  0.128068  0  0.104169  0.101112  0  1.058821  0
H  H63  1  0.89607434  0.18475793  0.46718102  1  0.128031  0  0.104166  0.101095  0  1.058816  0
H  H64  1  0.17273388  0.09138525  0.03298307  1  0.083348  0  0.106046  0.108526  0  1.045877  0
H  H65  1  0.82726895  0.90861505  0.96701551  1  0.083354  0  0.10605  0.108542  0  1.045841  0
H  H66  1  0.38495820  0.07518904  0.68490748  1  0.101431  0  0.104217  0.103904  0  0.9879  0
H  H67  1  0.61504221  0.92480869  0.31509340  1  0.10144  0  0.104234  0.103937  0  0.987856  0
H  H68  1  0.03441443  0.17878555  0.27047315  1  0.143576  0  0.123918  0.109258  0  1.001538  0
H  H69  1  0.96559064  0.82121217  0.72952802  1  0.1435  0  0.123922  0.109162  0  1.001614  0
H  H70  1  0.09672369  0.74107003  0.61549544  1  0.107489  0  0.116953  0.091892  0  1.011595  0
H  H71  1  0.90327263  0.25893030  0.38450392  1  0.107492  0  0.116991  0.091899  0  1.011665  0
H  H72  1  0.16039612  0.58194150  0.18114269  1  0.104774  0  0.103926  0.10131  0  0.999729  0
H  H73  1  0.83961225  0.41805951  0.81885889  1  0.104795  0  0.103953  0.101276  0  0.999859  0
H  H74  1  0.47636486  0.66984867  0.61477498  1  0.124797  0  0.119634  0.097258  0  0.999898  0
H  H75  1  0.52362919  0.33014773  0.38522470  1  0.124831  0  0.119607  0.097224  0  0.999918  0
H  H76  1  0.41791605  0.83633292  0.41306558  1  0.115434  0  0.100949  0.147772  0  1.02627  0
H  H77  1  0.58208341  0.16366478  0.58693393  1  0.115432  0  0.100964  0.147804  0  1.026228  0
H  H78  1  0.47141480  0.74646033  0.45534241  1  0.077358  0  0.093566  0.134919  0  1.030564  0
H  H79  1  0.52858525  0.25354000  0.54465691  1  0.077358  0  0.093532  0.134903  0  1.030591  0
H  H80  1  0.50158831  0.85540699  0.46223994  1  0.079629  0  0.097218  0.14119  0  1.048177  0
H  H81  1  0.49841296  0.14459141  0.53776192  1  0.079583  0  0.097215  0.141213  0  1.048205  0
H  H82  1  0.06028304  0.29307737  0.02337967  1  0.093938  0  0.106217  0.106175  0  1.039564  0
H  H83  1  0.93971387  0.70691834  0.97661865  1  0.093971  0  0.106192  0.106132  0  1.039602  0
H  H84  1  0.02671472  0.65207565  0.39868673  1  0.082194  0  0.105412  0.165174  0  0.971528  0
H  H85  1  0.97328990  0.34792534  0.60131316  1  0.082256  0  0.105383  0.165132  0  0.971548  0
H  H86  1  0.03315079  0.76585553  0.39837461  1  0.029096  0  0.095436  0.139881  0  1.005248  0
H  H87  1  0.96685163  0.23414809  0.60162512  1  0.029183  0  0.09543  0.139887  0  1.005281  0
H  H88  1  0.08888700  0.69061128  0.44791125  1  0.045128  0  0.098677  0.137719  0  1.024369  0
H  H89  1  0.91111643  0.30939165  0.55208748  1  0.045053  0  0.098688  0.137729  0  1.02432  0
H  H90  1  0.37699359  0.42941212  0.18346821  1  0.103425  0  0.104957  0.10546  0  0.994848  0
H  H91  1  0.62301716  0.57059221  0.81653481  1  0.102831  0  0.104925  0.105438  0  0.994791  0
H  H92  1  0.05151050  0.64646325  0.85063435  1  0.107112  0  0.107677  0.11626  0  1.034926  0
H  H93  1  0.94849208  0.35353904  0.14936478  1  0.107071  0  0.10769  0.116228  0  1.034944  0
H  H94  1  0.09169882  0.43397710  0.19797236  1  0.051431  0  0.097211  0.110109  0  1.02474  0
H  H95  1  0.90830973  0.56602264  0.80203103  1  0.051296  0  0.097252  0.110214  0  1.024678  0
H  H96  1  0.44532254  0.58409686  0.16680375  1  0.057159  0  0.098973  0.115597  0  1.016653  0
H  H97  1  0.55468452  0.41590673  0.83319523  1  0.057084  0  0.098968  0.115636  0  1.016718  0
H  H98  1  0.11706799  0.70496750  0.77151745  1  0.161838  0  0.121699  0.105423  0  1.005547  0
H  H99  1  0.88293020  0.29503283  0.22848189  1  0.161896  0  0.121717  0.105444  0  1.005525  0
H  H100  1  0.32057537  0.93273661  0.34096101  1  0.109814  0  0.107049  0.105812  0  1.052734  0
H  H101  1  0.67941934  0.06726173  0.65903714  1  0.109797  0  0.10709  0.105879  0  1.052665  0
H  H102  1  0.34791161  0.00234457  0.25947414  1  0.117635  0  0.117162  0.085368  0  1.041069  0
H  H103  1  0.65208702  0.99765249  0.74052647  1  0.117502  0  0.117146  0.085328  0  1.041107  0
H  H104  1  0.08920312  0.59703185  0.93870707  1  0.070844  0  0.09486  0.138619  0  1.022092  0
H  H105  1  0.91079804  0.40296715  0.06129233  1  0.070722  0  0.094837  0.138589  0  1.022109  0
H  H106  1  0.03560599  0.49443993  0.96238733  1  0.074522  0  0.098443  0.142735  0  1.029882  0
H  H107  1  0.96439535  0.50555778  0.03761286  1  0.074536  0  0.098461  0.142773  0  1.029849  0
H  H108  1  0.96841849  0.55535324  0.91057544  1  0.059415  0  0.100846  0.150507  0  0.983349  0
H  H109  1  0.03158630  0.44464642  0.08942386  1  0.059369  0  0.100831  0.15048  0  0.983394  0
H  H110  1  0.17348798  0.02779235  0.11652855  1  0.16373  0  0.117281  0.08795  0  1.057349  0
H  H111  1  0.82651208  0.97220801  0.88347214  1  0.16374  0  0.117318  0.088004  0  1.057342  0
H  H112  1  0.98437736  0.13989138  0.89394454  1  0.092073  0  0.105051  0.164847  0  0.976684  0
H  H113  1  0.01563049  0.86010631  0.10605556  1  0.092048  0  0.105038  0.164823  0  0.976705  0
H  H114  1  0.98454798  0.24802193  0.90714799  1  0.075621  0  0.099699  0.148224  0  0.995466  0
H  H115  1  0.01545321  0.75197714  0.09285417  1  0.075595  0  0.099696  0.148212  0  0.995502  0
H  H116  1  0.04577633  0.15731935  0.94837076  1  0.041486  0  0.09795  0.138324  0  1.018457  0
H  H117  1  0.95422763  0.84267968  0.05162964  1  0.041489  0  0.097956  0.13833  0  1.01849  0
H  H118  1  0.10465940  0.12530924  0.66642724  1  0.049628  0  0.096884  0.111597  0  1.016515  0
H  H119  1  0.89534153  0.87469181  0.33357546  1  0.049581  0  0.096883  0.111669  0  1.016459  0
H  H120  1  0.12183500  0.54852485  0.61225918  1  0.098684  0  0.117092  0.088413  0  1.028338  0
H  H121  1  0.87816520  0.45148140  0.38774039  1  0.098757  0  0.117083  0.088494  0  1.02827  0
H  H122  1  0.43112587  0.82136950  0.09120843  1  0.100567  0  0.117668  0.09219  0  1.025698  0
H  H123  1  0.56887672  0.17863281  0.90879174  1  0.100555  0  0.117695  0.092186  0  1.025727  0
H  H124  1  0.04341291  0.07818312  0.43907047  1  0.068325  0  0.097635  0.144252  0  1.010258  0
H  H125  1  0.95658841  0.92181458  0.56092937  1  0.068282  0  0.097693  0.144313  0  1.010279  0
H  H126  1  0.02610107  0.96843257  0.46478104  1  0.083932  0  0.097763  0.140314  0  1.037871  0
H  H127  1  0.97389755  0.03156448  0.53521854  1  0.083937  0  0.097777  0.140383  0  1.037841  0
H  H128  1  0.94247544  0.01509954  0.41325748  1  0.046017  0  0.100885  0.149943  0  0.981371  0
H  H129  1  0.05752504  0.98489750  0.58674207  1  0.045962  0  0.100853  0.149895  0  0.9814  0
H  H130  1  0.27802914  0.43262383  0.42563113  1  0.044219  0  0.100096  0.150962  0  0.982753  0
H  H131  1  0.72196663  0.56737393  0.57437085  1  0.044224  0  0.100117  0.151002  0  0.982785  0
H  H132  1  0.43029690  0.41880645  0.44877527  1  0.037926  0  0.091564  0.129542  0  1.036871  0
H  H133  1  0.56969970  0.58119194  0.55122561  1  0.037814  0  0.09156  0.129525  0  1.036939  0
H  H134  1  0.39141641  0.50254294  0.40133987  1  0.094142  0  0.097094  0.14193  0  1.040562  0
H  H135  1  0.60858213  0.49745477  0.59866000  1  0.094069  0  0.097153  0.142031  0  1.040452  0
H  H136  1  0.31379039  0.93249099  0.91557462  1  0.081541  0  0.096646  0.146856  0  1.009933  0
H  H137  1  0.68621237  0.06751000  0.08442530  1  0.081508  0  0.096649  0.146817  0  1.010003  0
H  H138  1  0.46284468  0.93932717  0.93895571  1  0.018128  0  0.090912  0.132439  0  1.02239  0
H  H139  1  0.53715850  0.06067051  0.06104306  1  0.018176  0  0.090887  0.132371  0  1.022515  0
H  H140  1  0.39837381  0.02360447  0.89553868  1  0.099946  0  0.100054  0.145324  0  1.029853  0
H  H141  1  0.60162446  0.97639521  0.10446104  1  0.099939  0  0.100044  0.145295  0  1.029876  0
H  H142  1  0.44409944  0.87704361  0.00628931  1  0.069533  0  0.101558  0.100985  0  1.044239  0
H  H143  1  0.55590798  0.12295736  0.99371020  1  0.069603  0  0.101548  0.10097  0  1.0443  0
H  H144  1  0.44063622  0.38983481  0.52161284  1  0.073357  0  0.102496  0.102397  0  1.043633  0
H  H145  1  0.55935393  0.61016291  0.47838680  1  0.073311  0  0.102491  0.102406  0  1.04376  0
H  H146  1  0.39927371  0.34397349  0.60628551  1  0.164759  0  0.118362  0.093606  0  1.027003  0
H  H147  1  0.60071375  0.65602362  0.39371593  1  0.164302  0  0.118389  0.093683  0  1.026903  0
H  H148  1  0.64155018  0.60051292  0.69068262  1  0.106198  0  0.112529  0.117945  0  0.969676  0
H  H149  1  0.35844444  0.39948608  0.30931582  1  0.106056  0  0.112518  0.117917  0  0.969691  0
H  H150  1  0.64839232  0.39895935  0.69470536  1  0.089665  0  0.100181  0.11596  0  1.043093  0
H  H151  1  0.35159681  0.60103901  0.30529355  1  0.089627  0  0.100173  0.115951  0  1.043097  0
H  H152  1  0.67901260  0.81868095  0.61817611  1  0.074846  0  0.112532  0.124223  0  0.994261  0
H  H153  1  0.32098112  0.18131811  0.38182477  1  0.074908  0  0.112576  0.124261  0  0.994273  0
H  H154  1  0.85680877  0.70402398  0.61579115  1  0.091955  0  0.108712  0.074682  0  1.019535  0
H  H155  1  0.14318673  0.29597574  0.38420999  1  0.091964  0  0.10874  0.074754  0  1.019484  0
H  H156  1  0.47997254  0.88432669  0.60480013  1  0.0807  0  0.098748  0.147545  0  1.006828  0
H  H157  1  0.52002378  0.11567366  0.39519957  1  0.080722  0  0.098763  0.147564  0  1.006839  0
H  H158  1  0.43209439  0.99436443  0.58024529  1  0.105154  0  0.099794  0.1455  0  1.021335  0
H  H159  1  0.56790193  0.00563590  0.41975373  1  0.105198  0  0.099797  0.145506  0  1.021369  0
H  H160  1  0.57588401  0.96878697  0.61064407  1  0.071005  0  0.098035  0.144256  0  1.017721  0
H  H161  1  0.42411495  0.03121469  0.38935585  1  0.070986  0  0.098052  0.144293  0  1.017735  0
H  H162  1  0.90338068  0.76305195  0.47307639  1  0.064538  0  0.111489  0.083346  0  1.001068  0
H  H163  1  0.09662134  0.23694776  0.52692536  1  0.064485  0  0.111513  0.083351  0  1.001063  0
H  H164  1  0.72889085  0.88279980  0.46920256  1  0.105399  0  0.110189  0.114726  0  1.016242  0
H  H165  1  0.27111108  0.11720055  0.53079846  1  0.10528  0  0.110199  0.114746  0  1.016267  0
H  H166  1  0.29572218  0.64100385  0.02712737  1  0.140671  0  0.111395  0.117621  0  1.011843  0
H  H167  1  0.70427898  0.35899518  0.97287272  1  0.140721  0  0.111372  0.117584  0  1.011867  0
H  H168  1  0.35429742  0.68615126  0.87772223  1  0.113986  0  0.112555  0.124239  0  0.997408  0
H  H169  1  0.64570171  0.31384909  0.12227813  1  0.113972  0  0.11256  0.12422  0  0.997432  0
H  H170  1  0.57340823  0.49660390  0.92096065  1  0.071406  0  0.099119  0.142979  0  1.027486  0
H  H171  1  0.42659190  0.50339577  0.07903871  1  0.071411  0  0.099113  0.142978  0  1.027485  0
H  H172  1  0.54962847  0.60877425  0.89573605  1  0.076368  0  0.101451  0.150381  0  0.997588  0
H  H173  1  0.45037177  0.39122479  0.10426474  1  0.076344  0  0.101462  0.15042  0  0.997588  0
H  H174  1  0.43709663  0.53611969  0.88787848  1  0.058728  0  0.096403  0.14085  0  1.023746  0
H  H175  1  0.56290546  0.46387933  0.11212160  1  0.05878  0  0.096417  0.140871  0  1.023697  0
H  H176  1  0.14048207  0.77311772  0.01928913  1  0.0675  0  0.11255  0.084119  0  0.998063  0
H  H177  1  0.85951434  0.22688195  0.98070993  1  0.067545  0  0.112548  0.084084  0  0.998052  0
H  H178  1  0.19202213  0.81267506  0.87608265  1  0.076868  0  0.113469  0.081502  0  1.001313  0
H  H179  1  0.80797825  0.18732260  0.12391548  1  0.075578  0  0.113447  0.081467  0  1.001365  0
C  C180  1  0.18303841  0.23921399  0.84382622  1  -0.025097  0  0.008248  0.057522  0  3.995209  0
C  C181  1  0.81696164  0.76078636  0.15617413  1  -0.025186  0  0.008259  0.057601  0  3.995298  0
C  C182  1  0.30337258  0.78405414  0.52544643  1  -0.091536  0  0.011731  0.065046  0  3.961778  0
C  C183  1  0.69662596  0.21594359  0.47455448  1  -0.09136  0  0.011732  0.065018  0  3.96171  0
C  C184  1  0.15483107  0.01853122  0.35394032  1  -0.02159  0  0.006997  0.052941  0  3.985628  0
C  C185  1  0.84516915  0.98146780  0.64605978  1  -0.022125  0  0.007037  0.053047  0  3.985688  0
C  C186  1  0.18316543  0.52800312  0.85361877  1  -0.060493  0  0.006679  0.052558  0  3.984467  0
C  C187  1  0.81683471  0.47199656  0.14638128  1  -0.06048  0  0.006756  0.052619  0  3.984357  0
C  C188  1  0.30215500  0.24463632  0.82297410  1  -0.002807  0  -0.079908  -0.164969  0  3.942231  0
C  C189  1  0.69784682  0.75536465  0.17702480  1  -0.002714  0  -0.079898  -0.164916  0  3.942284  0
C  C190  1  0.13679943  0.75830235  0.31020911  1  -0.08649  0  -0.089528  -0.18352  0  3.927923  0
C  C191  1  0.86320325  0.24169930  0.68979076  1  -0.08624  0  -0.089549  -0.183562  0  3.927902  0
C  C192  1  0.16637168  0.18856226  0.89005809  1  0.63964  0  0.147715  0.244238  0  3.919089  0
C  C193  1  0.83363194  0.81143941  0.10994281  1  0.639611  0  0.147696  0.244164  0  3.919167  0
C  C194  1  0.16114913  0.79638281  0.26504953  1  0.494296  0  0.045252  0.102207  0  3.93438  0
C  C195  1  0.83885345  0.20361949  0.73494995  1  0.494033  0  0.045211  0.102099  0  3.934582  0
C  C196  1  0.31864091  0.70570604  0.16509216  1  1.520171  0  0.179686  0.58356  0  4.268303  0
C  C197  1  0.68136550  0.29429563  0.83490904  1  1.520125  0  0.179866  0.583774  0  4.267716  0
C  C198  1  0.23592893  0.73760368  0.34154114  1  -0.105557  0  0.007166  0.055325  0  3.998551  0
C  C199  1  0.76407408  0.26239533  0.65845823  1  -0.105608  0  0.007218  0.055397  0  3.998499  0
C  C200  1  0.31224175  0.82697630  0.47696476  1  0.641464  0  0.154992  0.2759  0  3.8874  0
C  C201  1  0.68776070  0.17302011  0.52303619  1  0.641448  0  0.154963  0.275896  0  3.887336  0
C  C202  1  0.80904128  0.02823582  0.19489675  1  -0.012563  0  -0.076166  -0.034033  0  4.019732  0
C  C203  1  0.19095918  0.97176845  0.80510226  1  -0.012636  0  -0.076179  -0.034096  0  4.019721  0
C  C204  1  0.21255606  0.69470199  0.38908197  1  0.674011  0  0.146891  0.245577  0  3.92218  0
C  C205  1  0.78744383  0.30529968  0.61091862  1  0.674019  0  0.146864  0.245618  0  3.922213  0
C  C206  1  0.91397907  0.97339039  0.19159617  1  -0.093897  0  -0.091302  -0.221943  0  3.880183  0
C  C207  1  0.08602249  0.02661255  0.80840293  1  -0.094129  0  -0.091254  -0.221942  0  3.880236  0
C  C208  1  0.37132468  0.79615456  0.27993031  1  0.524494  0  0.050068  0.095329  0  3.91194  0
C  C209  1  0.62867935  0.20384377  0.72006875  1  0.524129  0  0.050067  0.095311  0  3.911823  0
C  C210  1  0.68379977  0.53264895  0.69203991  1  -0.057712  0  -0.074692  -0.03176  0  4.000669  0
C  C211  1  0.31619767  0.46735008  0.30796022  1  -0.057386  0  -0.074642  -0.031667  0  4.00056  0
C  C212  1  0.81759728  0.51556156  0.69304748  1  0.001076  0  -0.076855  -0.030109  0  4.020005  0
C  C213  1  0.18239913  0.48443813  0.30695262  1  0.001302  0  -0.07687  -0.030143  0  4.020096  0
C  C214  1  0.31372135  0.29218663  0.77922461  1  0.433094  0  0.047467  0.098377  0  3.915324  0
C  C215  1  0.68628030  0.70781564  0.22077384  1  0.433046  0  0.047363  0.098168  0  3.915411  0
C  C216  1  0.34193325  0.90350044  0.69666710  1  -0.073285  0  -0.092816  -0.21245  0  3.898276  0
C  C217  1  0.65806757  0.09650122  0.30333314  1  -0.073317  0  -0.092798  -0.212351  0  3.898413  0
C  C218  1  0.57886387  0.04937549  0.19373868  1  -0.023838  0  -0.094939  -0.246877  0  3.900548  0
C  C219  1  0.42113447  0.95063076  0.80626056  1  -0.02375  0  -0.094943  -0.24703  0  3.900637  0
C  C220  1  0.28175266  0.32315593  0.97708583  1  0.645852  0  0.150466  0.26589  0  3.90399  0
C  C221  1  0.71824503  0.67684112  0.02291376  1  0.646229  0  0.150392  0.265756  0  3.904006  0
C  C222  1  0.35581762  0.75710391  0.32548381  1  0.002882  0  -0.077341  -0.161248  0  3.936533  0
C  C223  1  0.64418453  0.24289441  0.67451424  1  0.003003  0  -0.07728  -0.161157  0  3.936518  0
C  C224  1  0.40705406  0.31065265  0.95367725  1  -0.080061  0  -0.245052  -0.465802  0  3.936255  0
C  C225  1  0.59294345  0.68934569  0.04632156  1  -0.080065  0  -0.244929  -0.465599  0  3.93612  0
C  C226  1  0.14986741  0.48820423  0.90104584  1  0.664432  0  0.147731  0.253011  0  3.908105  0
C  C227  1  0.85013308  0.51179281  0.09895371  1  0.664847  0  0.147725  0.253067  0  3.907974  0
C  C228  1  0.07995241  0.28235063  0.81867669  1  -0.113134  0  -0.089127  -0.182969  0  3.929792  0
C  C229  1  0.92004808  0.71765370  0.18132543  1  -0.112712  0  -0.089147  -0.183057  0  3.929788  0
C  C230  1  0.30840467  0.81189572  0.70048834  1  1.496257  0  0.174653  0.579428  0  4.260539  0
C  C231  1  0.69159900  0.18810524  0.29951018  1  1.496031  0  0.174505  0.579189  0  4.261101  0
C  C232  1  0.13791075  0.97757762  0.40248358  1  0.634158  0  0.148157  0.255988  0  3.909704  0
C  C233  1  0.86209423  0.02242076  0.59751754  1  0.634066  0  0.148175  0.255933  0  3.909618  0
C  C234  1  0.34439624  0.20844013  0.09846453  1  0.535668  0  0.048896  0.10004  0  3.945889  0
C  C235  1  0.65560380  0.79156018  0.90153409  1  0.535742  0  0.048959  0.100136  0  3.94586  0
C  C236  1  0.10024898  0.32839319  0.77494897  1  0.455588  0  0.042997  0.095121  0  3.943565  0
C  C237  1  0.89975263  0.67160985  0.22505427  1  0.455585  0  0.043106  0.095142  0  3.943343  0
C  C238  1  0.68750218  0.99712333  0.19653333  1  0.002462  0  -0.073657  -0.021253  0  4.020072  0
C  C239  1  0.31249818  0.00288157  0.80346460  1  0.002557  0  -0.073664  -0.021109  0  4.019823  0
C  C240  1  0.26244011  0.27957738  0.02480167  1  0.052291  0  0.012109  0.067513  0  3.972172  0
C  C241  1  0.73755827  0.72042166  0.97519879  1  0.052094  0  0.012114  0.067632  0  3.971947  0
C  C242  1  0.07412410  0.08907885  0.33323993  1  -0.048134  0  -0.080201  -0.164754  0  3.930111  0
C  C243  1  0.92587545  0.91091819  0.66675997  1  -0.047978  0  -0.080188  -0.164788  0  3.929948  0
C  C244  1  0.27777078  0.48604316  0.82741511  1  -0.06627  0  -0.083484  -0.168444  0  3.977073  0
C  C245  1  0.72223097  0.51395851  0.17258547  1  -0.066211  0  -0.08349  -0.168421  0  3.97715  0
C  C246  1  0.89661654  0.57842248  0.69301688  1  -0.07051  0  -0.095899  -0.241996  0  3.91427  0
C  C247  1  0.10337785  0.42157853  0.30698349  1  -0.070819  0  -0.095916  -0.242094  0  3.914248  0
C  C248  1  0.04085990  0.00295685  0.18545003  1  1.571478  0  0.204405  0.623332  0  4.215268  0
C  C249  1  0.95914463  0.99704477  0.81454913  1  1.571418  0  0.204331  0.623248  0  4.215456  0
C  C250  1  0.21034000  0.30921863  0.19869686  1  1.503169  0  0.175266  0.580088  0  4.262931  0
C  C251  1  0.78966641  0.69078305  0.80130469  1  1.503253  0  0.17522  0.579941  0  4.26309  0
C  C252  1  0.60896709  0.46726975  0.69194849  1  -0.087663  0  -0.09116  -0.225407  0  3.890306  0
C  C253  1  0.39102738  0.53273059  0.30805124  1  -0.087809  0  -0.091107  -0.225343  0  3.890117  0
C  C254  1  0.25722795  0.97358441  0.68627071  1  -0.015284  0  -0.085957  -0.048387  0  4.040561  0
C  C255  1  0.74277296  0.02641660  0.31372992  1  -0.015278  0  -0.085925  -0.048339  0  4.040539  0
C  C256  1  0.31032174  0.99075504  0.01216710  1  0.004086  0  0.010405  0.068727  0  3.979418  0
C  C257  1  0.68968203  0.00924526  0.98783147  1  0.004211  0  0.010437  0.068724  0  3.97941  0
C  C258  1  0.20750629  0.54544271  0.54411282  1  0.00131  0  -0.080412  -0.162307  0  3.946809  0
C  C259  1  0.79248640  0.45455699  0.45588698  1  0.000913  0  -0.080374  -0.162262  0  3.94663  0
C  C260  1  0.30921005  0.52478478  0.78335515  1  0.491789  0  0.043774  0.091547  0  3.945244  0
C  C261  1  0.69079144  0.47521885  0.21664528  1  0.491615  0  0.043708  0.091477  0  3.945234  0
C  C262  1  0.03435128  0.55941907  0.69015271  1  1.568109  0  0.205134  0.621114  0  4.22478  0
C  C263  1  0.96564201  0.44058328  0.30984827  1  1.567898  0  0.205045  0.621059  0  4.224826  0
C  C264  1  0.29823595  0.50112907  0.51746498  1  -0.019998  0  0.010914  0.070914  0  3.978083  0
C  C265  1  0.70175861  0.49887063  0.48253549  1  -0.01971  0  0.010945  0.070972  0  3.978002  0
C  C266  1  0.31586823  0.53207688  0.46744089  1  0.642104  0  0.14094  0.234321  0  3.938366  0
C  C267  1  0.68413015  0.46792218  0.53256027  1  0.641732  0  0.140891  0.234306  0  3.938483  0
C  C268  1  0.36483446  0.24706199  0.05311579  1  -0.147666  0  -0.087932  -0.173716  0  3.948514  0
C  C269  1  0.63516483  0.75293701  0.94688328  1  -0.147693  0  -0.087941  -0.173814  0  3.948463  0
C  C270  1  0.13041068  0.22882515  0.08945827  1  0.543691  0  0.048328  0.089619  0  3.935795  0
C  C271  1  0.86958742  0.77117583  0.91054102  1  0.543715  0  0.048335  0.089772  0  3.935682  0
C  C272  1  0.23917445  0.22478024  0.66786181  1  1.56488  0  0.181395  0.589181  0  4.261226  0
C  C273  1  0.76083046  0.77521881  0.33213995  1  1.56482  0  0.181442  0.589282  0  4.261024  0
C  C274  1  0.40923663  0.74195623  0.54916466  1  0.016596  0  -0.086035  -0.172306  0  3.951064  0
C  C275  1  0.59076099  0.25804150  0.45083626  1  0.016473  0  -0.086025  -0.172289  0  3.951054  0
C  C276  1  0.18860713  0.78440382  0.54996387  1  -0.021258  0  -0.078448  -0.157224  0  3.948605  0
C  C277  1  0.81139223  0.21559451  0.45003456  1  -0.021117  0  -0.078393  -0.157144  0  3.948574  0
C  C278  1  0.47121690  0.48208109  0.68863950  1  1.566864  0  0.205465  0.614909  0  4.221741  0
C  C279  1  0.52877860  0.51791862  0.31136130  1  1.566868  0  0.205493  0.614911  0  4.221843  0
C  C280  1  0.23224706  0.03171823  0.04445778  1  0.012435  0  -0.082193  -0.162443  0  3.942196  0
C  C281  1  0.76775307  0.96828144  0.95554158  1  0.012408  0  -0.082157  -0.162366  0  3.942127  0
C  C282  1  0.28774261  0.06299218  0.68033271  1  -0.071893  0  -0.082166  -0.032125  0  4.03712  0
C  C283  1  0.71225839  0.93700817  0.31966798  1  -0.071836  0  -0.082208  -0.032222  0  4.037038  0
C  C284  1  0.09686734  0.12484502  0.28737465  1  0.473959  0  0.056071  0.107368  0  3.894615  0
C  C285  1  0.90312968  0.87515006  0.71262543  1  0.473862  0  0.05603  0.10746  0  3.894544  0
C  C286  1  0.18411723  0.74361021  0.59551360  1  0.500994  0  0.048417  0.094194  0  3.934977  0
C  C287  1  0.81588120  0.25638814  0.40448519  1  0.500954  0  0.048376  0.094169  0  3.935082  0
C  C288  1  0.45889494  0.01253139  0.18870538  1  1.5503  0  0.204051  0.617276  0  4.228273  0
C  C289  1  0.54110638  0.98747354  0.81129427  1  1.549826  0  0.204093  0.617417  0  4.228114  0
C  C290  1  0.25740510  0.55354716  0.17842470  1  -0.080404  0  -0.082716  -0.039227  0  4.034368  0
C  C291  1  0.74260224  0.44645450  0.82157615  1  -0.08022  0  -0.082667  -0.039137  0  4.034211  0
C  C292  1  0.39672810  0.70310546  0.59501253  1  0.452035  0  0.04816  0.093461  0  3.936562  0
C  C293  1  0.60327052  0.29689159  0.40498739  1  0.452003  0  0.048277  0.093574  0  3.936613  0
C  C294  1  0.43255160  0.81538823  0.45019999  1  -0.131904  0  -0.245279  -0.465508  0  3.929552  0
C  C295  1  0.56745218  0.18461210  0.54979962  1  -0.131784  0  -0.24524  -0.465554  0  3.929568  0
C  C296  1  0.14247865  0.26984415  0.04414114  1  -0.095762  0  -0.076847  -0.157813  0  3.945382  0
C  C297  1  0.85751962  0.73015552  0.95585824  1  -0.095705  0  -0.076843  -0.15783  0  3.945135  0
C  C298  1  0.08297994  0.70143469  0.40974744  1  -0.042967  0  -0.238196  -0.456902  0  3.934663  0
C  C299  1  0.91702060  0.29856893  0.59025197  1  -0.043053  0  -0.238179  -0.456915  0  3.934693  0
C  C300  1  0.28085466  0.45950123  0.18556143  1  -0.097348  0  -0.083086  -0.04216  0  4.036001  0
C  C301  1  0.71915266  0.54050039  0.81443770  1  -0.096602  0  -0.083061  -0.042152  0  4.035789  0
C  C302  1  0.31475976  0.02893020  0.96281650  1  0.639032  0  0.140621  0.234036  0  3.936203  0
C  C303  1  0.68524401  0.97107013  0.03718311  1  0.638997  0  0.140687  0.234034  0  3.93612  0
C  C304  1  0.12608574  0.60916098  0.83329589  1  -0.105918  0  -0.081657  -0.164254  0  3.940952  0
C  C305  1  0.87391431  0.39083936  0.16670411  1  -0.105914  0  -0.081661  -0.164248  0  3.940966  0
C  C306  1  0.18855582  0.40619248  0.19480187  1  0.02821  0  -0.095297  -0.218731  0  3.91361  0
C  C307  1  0.81145047  0.59380977  0.80519583  1  0.028148  0  -0.095344  -0.218836  0  3.913652  0
C  C308  1  0.34693807  0.60912568  0.16897533  1  -0.04517  0  -0.098915  -0.225235  0  3.900958  0
C  C309  1  0.65306826  0.39087665  0.83102618  1  -0.045274  0  -0.098961  -0.225304  0  3.900919  0
C  C310  1  0.16244258  0.64327242  0.78850889  1  0.524448  0  0.053213  0.105433  0  3.896306  0
C  C311  1  0.83755739  0.35672857  0.21149106  1  0.524441  0  0.053182  0.105383  0  3.896309  0
C  C312  1  0.25624097  0.98786791  0.32664482  1  0.004882  0  -0.082826  -0.166124  0  3.972102  0
C  C313  1  0.74375823  0.01213175  0.67335421  1  0.005427  0  -0.082816  -0.166156  0  3.972065  0
C  C314  1  0.27197276  0.02692230  0.28136990  1  0.453623  0  0.045391  0.099008  0  3.939287  0
C  C315  1  0.72802484  0.97307539  0.71862895  1  0.453817  0  0.045421  0.099074  0  3.939279  0
C  C316  1  0.05531974  0.53617209  0.93001187  1  -0.10622  0  -0.237778  -0.451791  0  3.93451  0
C  C317  1  0.94468160  0.46382562  0.06998831  1  -0.106046  0  -0.237769  -0.45182  0  3.934514  0
C  C318  1  0.23124424  0.99601387  0.09087913  1  0.41164  0  0.045155  0.100622  0  3.926583  0
C  C319  1  0.76875572  0.00398711  0.90912013  1  0.411611  0  0.045134  0.100522  0  3.926594  0
C  C320  1  0.03822671  0.18316615  0.91133029  1  -0.080172  0  -0.237065  -0.455877  0  3.92481  0
C  C321  1  0.96177715  0.81683353  0.08867006  1  -0.08016  0  -0.237001  -0.455769  0  3.924838  0
C  C322  1  0.20349565  0.13359457  0.67037117  1  -0.071642  0  -0.100934  -0.23511  0  3.901921  0
C  C323  1  0.79650529  0.86640649  0.32963223  1  -0.071419  0  -0.100906  -0.235134  0  3.901772  0
C  C324  1  0.19109262  0.51489516  0.59090432  1  0.468788  0  0.048219  0.101483  0  3.936087  0
C  C325  1  0.80890234  0.48510846  0.40909481  1  0.469329  0  0.048233  0.101325  0  3.936039  0
C  C326  1  0.37546636  0.88093647  0.07645353  1  0.489037  0  0.047522  0.093288  0  3.929896  0
C  C327  1  0.62453987  0.11906649  0.92354620  1  0.489038  0  0.047481  0.093243  0  3.930076  0
C  C328  1  0.03118502  0.01126079  0.43173411  1  -0.084184  0  -0.238018  -0.456668  0  3.93832  0
C  C329  1  0.96881817  0.98873690  0.56826536  1  -0.08366  0  -0.238039  -0.456675  0  3.938225  0
C  C330  1  0.35693424  0.46812209  0.43394855  1  -0.052261  0  -0.238976  -0.447314  0  3.928963  0
C  C331  1  0.64306312  0.53187762  0.56605257  1  -0.051702  0  -0.239016  -0.447385  0  3.928945  0
C  C332  1  0.37661027  0.97811426  0.92635199  1  -0.086769  0  -0.242367  -0.453348  0  3.936428  0
C  C333  1  0.62339275  0.02188476  0.07364807  1  -0.086753  0  -0.242382  -0.453263  0  3.93657  0
C  C334  1  0.38196047  0.91269473  0.02926638  1  -0.042681  0  -0.086829  -0.170129  0  3.952726  0
C  C335  1  0.61804601  0.08730624  0.97073314  1  -0.042689  0  -0.086885  -0.17015  0  3.952931  0
C  C336  1  0.36800737  0.42681413  0.54009334  1  -0.041204  0  -0.085025  -0.165327  0  3.937327  0
C  C337  1  0.63198796  0.57318690  0.45990771  1  -0.041563  0  -0.085066  -0.16542  0  3.937563  0
C  C338  1  0.34661160  0.40100111  0.58728922  1  0.44984  0  0.049083  0.1  0  3.919783  0
C  C339  1  0.65338356  0.59900124  0.41271207  1  0.450298  0  0.049051  0.099896  0  3.919685  0
C  C340  1  0.68729466  0.86125105  0.54333761  1  -0.040878  0  0.00441  0.049165  0  3.974645  0
C  C341  1  0.31270515  0.13875127  0.45666294  1  -0.041128  0  0.004408  0.049134  0  3.974663  0
C  C342  1  0.57963961  0.92933310  0.54222816  1  0.636607  0  0.153079  0.2684  0  3.891956  0
C  C343  1  0.42035748  0.07066857  0.45777213  1  0.636889  0  0.153126  0.268468  0  3.891883  0
C  C344  1  0.72572293  0.80947795  0.58496045  1  -0.051591  0  -0.083979  -0.168788  0  3.934597  0
C  C345  1  0.27427222  0.19052439  0.41504051  1  -0.052117  0  -0.084041  -0.168759  0  3.93444  0
C  C346  1  0.82562179  0.74450367  0.58364647  1  0.480434  0  0.037412  0.078877  0  4.01491  0
C  C347  1  0.17437514  0.25549934  0.41635510  1  0.481168  0  0.037372  0.078732  0  4.014843  0
C  C348  1  0.51236401  0.94547523  0.58680084  1  -0.124725  0  -0.240599  -0.463797  0  3.937487  0
C  C349  1  0.48763410  0.05452577  0.41319914  1  -0.124712  0  -0.240633  -0.463869  0  3.937616  0
C  C350  1  0.85156651  0.77727753  0.50473730  1  0.482013  0  0.036721  0.080212  0  4.008792  0
C  C351  1  0.14843440  0.22272349  0.49526368  1  0.482241  0  0.036713  0.080265  0  4.008684  0
C  C352  1  0.75413279  0.84409026  0.50235584  1  -0.018985  0  -0.081028  -0.161305  0  3.947627  0
C  C353  1  0.24586559  0.15590880  0.49764566  1  -0.019091  0  -0.08104  -0.161349  0  3.947641  0
C  C354  1  0.27626799  0.67810233  0.99306718  1  -0.111977  0  -0.079707  -0.161087  0  3.9458  0
C  C355  1  0.72372944  0.32189669  0.00693261  1  -0.111993  0  -0.079746  -0.161161  0  3.945922  0
C  C356  1  0.33996297  0.65200649  0.95312399  1  -0.010597  0  0.003228  0.04615  0  3.981326  0
C  C357  1  0.66003335  0.34799383  0.04687503  1  -0.010899  0  0.003307  0.046203  0  3.981285  0
C  C358  1  0.43575571  0.57564559  0.95636989  1  0.624296  0  0.153702  0.270394  0  3.889362  0
C  C359  1  0.56424155  0.42435476  0.04363015  1  0.624522  0  0.153648  0.270339  0  3.889443  0
C  C360  1  0.30937901  0.70222756  0.91021277  1  -0.065376  0  -0.084126  -0.172842  0  3.94246  0
C  C361  1  0.69062029  0.29777147  0.08978734  1  -0.065297  0  -0.084113  -0.172755  0  3.942468  0
C  C362  1  0.50331828  0.55244970  0.91299712  1  -0.08006  0  -0.240517  -0.465505  0  3.937402  0
C  C363  1  0.49668194  0.44754932  0.08700263  1  -0.080074  0  -0.240508  -0.465547  0  3.937453  0
C  C364  1  0.18916458  0.75155243  0.98844026  1  0.505191  0  0.038047  0.079462  0  4.007583  0
C  C365  1  0.81083278  0.24844727  0.01156051  1  0.505176  0  0.038074  0.079549  0  4.007737  0
C  C366  1  0.21873174  0.77387061  0.90925537  1  0.489069  0  0.040948  0.079976  0  4.010711  0
C  C367  1  0.78126856  0.22612774  0.09074408  1  0.490375  0  0.040912  0.079869  0  4.010869  0
N  N368  1  0.19434941  0.09477065  0.26170652  1  -1.231152  0  -0.312472  -0.216243  0  3.504562  0
N  N369  1  0.80565166  0.90522904  0.73829387  1  -1.231159  0  -0.312487  -0.216274  0  3.504601  0
N  N370  1  0.25248259  0.60210804  0.76366438  1  -1.230756  0  -0.313739  -0.218347  0  3.50387  0
N  N371  1  0.74751814  0.39789427  0.23633581  1  -1.230706  0  -0.313706  -0.21827  0  3.503724  0
N  N372  1  0.28622872  0.70333042  0.61788266  1  -1.218343  0  -0.313477  -0.213178  0  3.503198  0
N  N373  1  0.71376710  0.29666663  0.38211695  1  -1.21835  0  -0.313583  -0.213263  0  3.503323  0
N  N374  1  0.27588192  0.81575935  0.24995872  1  -1.249602  0  -0.320162  -0.225412  0  3.523818  0
N  N375  1  0.72412177  0.18424164  0.75004118  1  -1.249113  0  -0.320108  -0.225316  0  3.523784  0
N  N376  1  0.21464149  0.33374286  0.75527468  1  -1.24468  0  -0.322671  -0.230926  0  3.525512  0
N  N377  1  0.78535780  0.66626343  0.24472627  1  -1.244466  0  -0.322753  -0.230926  0  3.525251  0
N  N378  1  0.25902595  0.44393239  0.61241391  1  -1.230733  0  -0.315333  -0.222322  0  3.517336  0
N  N379  1  0.74097072  0.55607257  0.38758648  1  -1.230851  0  -0.315319  -0.222206  0  3.517261  0
N  N380  1  0.25989557  0.10820513  0.95345907  1  -0.741232  0  -0.186119  -0.172824  0  3.393087  0
N  N381  1  0.74010991  0.89179654  0.04654215  1  -0.741286  0  -0.186152  -0.172738  0  3.393048  0
N  N382  1  0.26733469  0.14931115  0.90992601  1  -0.747999  0  -0.182226  -0.160107  0  3.384298  0
N  N383  1  0.73267062  0.85069183  0.09007511  1  -0.747949  0  -0.182281  -0.160198  0  3.38439  0
N  N384  1  0.22933734  0.19879488  0.11641008  1  -1.217943  0  -0.313049  -0.214183  0  3.509346  0
N  N385  1  0.77066244  0.80120741  0.88358875  1  -1.218217  0  -0.313091  -0.214294  0  3.509369  0
N  N386  1  0.30163088  0.92159872  0.10704683  1  -1.226502  0  -0.317419  -0.219016  0  3.514285  0
N  N387  1  0.69837365  0.07840291  0.89295233  1  -1.226519  0  -0.317404  -0.218939  0  3.514322  0
N  N388  1  0.28912025  0.61570360  0.45534621  1  -0.749935  0  -0.188525  -0.178376  0  3.41384  0
N  N389  1  0.71088083  0.38429609  0.54465452  1  -0.749939  0  -0.188593  -0.178524  0  3.414081  0
N  N390  1  0.21128561  0.87459916  0.46116541  1  -0.763339  0  -0.205352  -0.208165  0  3.284846  0
N  N391  1  0.78871624  0.12539461  0.53883506  1  -0.76338  0  -0.205386  -0.20812  0  3.284944  0
N  N392  1  0.30718067  0.65030396  0.41083881  1  -0.752735  0  -0.188093  -0.172286  0  3.373164  0
N  N393  1  0.69281939  0.34969638  0.58916154  1  -0.752759  0  -0.188039  -0.172235  0  3.373246  0
N  N394  1  0.18638308  0.37291898  0.95825491  1  -0.751451  0  -0.201336  -0.202205  0  3.293037  0
N  N395  1  0.81361198  0.62707676  0.04174481  1  -0.751743  0  -0.201371  -0.202403  0  3.29329  0
N  N396  1  0.22277283  0.91380699  0.41629371  1  -0.756395  0  -0.200153  -0.193295  0  3.33598  0
N  N397  1  0.77722783  0.08618874  0.58370629  1  -0.756809  0  -0.200198  -0.193409  0  3.336006  0
N  N398  1  0.21050269  0.41225198  0.91447923  1  -0.749398  0  -0.194745  -0.18013  0  3.35559  0
N  N399  1  0.78949161  0.58774243  0.08551990  1  -0.749705  0  -0.194703  -0.17995  0  3.355721  0
N  N400  1  0.55076064  0.96908452  0.50071968  1  -0.781522  0  -0.207227  -0.210596  0  3.318656  0
N  N401  1  0.44923256  0.03091848  0.49928090  1  -0.75722  0  -0.207336  -0.210757  0  3.318692  0
N  N402  1  0.88830924  0.72716996  0.54452598  1  -1.183164  0  -0.328182  -0.276766  0  3.309237  0
N  N403  1  0.11169007  0.27282910  0.45547551  1  -1.183169  0  -0.328186  -0.276774  0  3.309287  0
N  N404  1  0.45497515  0.53508922  0.99844373  1  -0.736649  0  -0.207566  -0.211205  0  3.313598  0
N  N405  1  0.54502490  0.46491113  0.00155662  1  -0.784132  0  -0.207516  -0.211083  0  3.313538  0
N  N406  1  0.15909788  0.79952482  0.94736133  1  -1.19075  0  -0.326827  -0.273445  0  3.305647  0
N  N407  1  0.84090142  0.20047420  0.05263843  1  -1.190822  0  -0.326793  -0.273357  0  3.305773  0
O  O408  1  0.31937095  0.27005668  0.19869880  1  -1.171706  0  -0.339374  -0.563797  0  2.100383  0
O  O409  1  0.68063612  0.72994694  0.80130156  1  -1.171614  0  -0.339308  -0.563709  0  2.100507  0
O  O410  1  0.19412708  0.79590439  0.70157900  1  -1.179252  0  -0.332859  -0.573717  0  2.157201  0
O  O411  1  0.80587659  0.20409656  0.29841883  1  -1.179162  0  -0.332757  -0.573624  0  2.157507  0
O  O412  1  0.41243557  0.75109370  0.16707813  1  -1.158795  0  -0.327662  -0.559288  0  2.233325  0
O  O413  1  0.58756583  0.24891059  0.83292191  1  -1.158655  0  -0.327761  -0.559381  0  2.233112  0
O  O414  1  0.41334323  0.41321874  0.69785187  1  -1.173686  0  -0.311404  -0.549722  0  2.374698  0
O  O415  1  0.58665124  0.58678162  0.30214820  1  -1.173394  0  -0.311451  -0.549764  0  2.37489  0
O  O416  1  0.36443381  0.06578254  0.17635028  1  -1.203558  0  -0.325324  -0.583647  0  2.430803  0
O  O417  1  0.63556488  0.93422107  0.82364880  1  -1.20347  0  -0.325283  -0.583614  0  2.43075  0
O  O418  1  0.05045578  0.08562413  0.17613253  1  -1.179674  0  -0.326007  -0.561447  0  2.302049  0
O  O419  1  0.94954689  0.91437751  0.82386700  1  -1.179538  0  -0.326009  -0.561433  0  2.302051  0
O  O420  1  0.14762007  0.28654572  0.66652251  1  -1.172981  0  -0.333419  -0.571142  0  2.26327  0
O  O421  1  0.85238531  0.71345658  0.33347728  1  -1.173141  0  -0.333404  -0.571144  0  2.263307  0
O  O422  1  0.42152327  0.55993475  0.67717123  1  -1.199768  0  -0.322636  -0.569211  0  2.387905  0
O  O423  1  0.57847239  0.44006362  0.32282863  1  -1.199758  0  -0.322672  -0.5692  0  2.387879  0
O  O424  1  0.20699850  0.74099531  0.16197478  1  -1.184543  0  -0.33013  -0.575549  0  2.182301  0
O  O425  1  0.79300806  0.25900499  0.83802445  1  -1.184609  0  -0.330174  -0.57563  0  2.181996  0
O  O426  1  0.35241137  0.23905473  0.66875633  1  -1.177038  0  -0.328231  -0.565558  0  2.148088  0
O  O427  1  0.64758887  0.76094433  0.33124515  1  -1.176942  0  -0.328261  -0.565629  0  2.14791  0
O  O428  1  0.07957499  0.47923284  0.69560504  1  -1.192587  0  -0.322478  -0.567798  0  2.373935  0
O  O429  1  0.92041913  0.52077014  0.30439449  1  -1.19271  0  -0.322466  -0.567867  0  2.373857  0
O  O430  1  0.11094157  0.26765391  0.19967908  1  -1.166911  0  -0.332216  -0.569659  0  2.232882  0
O  O431  1  0.88906597  0.73234648  0.80032359  1  -1.167096  0  -0.332291  -0.569663  0  2.23277  0
O  O432  1  0.09564031  0.62644196  0.68081813  1  -1.182359  0  -0.317238  -0.563064  0  2.360033  0
O  O433  1  0.90435790  0.37355842  0.31918328  1  -1.182174  0  -0.317194  -0.562984  0  2.360065  0
O  O434  1  0.13085838  0.94281789  0.18902592  1  -1.20149  0  -0.320194  -0.576238  0  2.394044  0
O  O435  1  0.86914622  0.05718305  0.81097191  1  -1.201436  0  -0.320172  -0.576177  0  2.394056  0
O  O436  1  0.39881756  0.75070186  0.70052161  1  -1.141243  0  -0.342331  -0.560537  0  2.157399  0
O  O437  1  0.60118619  0.24929843  0.29947627  1  -1.141126  0  -0.342288  -0.560422  0  2.15752  0
O  O438  1  0.45775003  0.92886990  0.19549094  1  -1.184336  0  -0.318471  -0.547843  0  2.321278  0
O  O439  1  0.54225129  0.07113505  0.80450974  1  -1.184226  0  -0.318486  -0.547929  0  2.321378  0
