# generated using pymatgen
data_CoH38C38N3O5
_symmetry_space_group_name_H-M   'P 1'
_cell_length_a   14.92547132
_cell_length_b   14.92380438
_cell_length_c   18.15089083
_cell_angle_alpha   107.63730329
_cell_angle_beta   113.29542556
_cell_angle_gamma   98.64197305
_symmetry_Int_Tables_number   1
_chemical_formula_structural   CoH38C38N3O5
_chemical_formula_sum   'Co4 H152 C152 N12 O20'
_cell_volume   3366.18749716
_cell_formula_units_Z   4
loop_
 _symmetry_equiv_pos_site_id
 _symmetry_equiv_pos_as_xyz
  1  'x, y, z'
loop_
 _atom_site_type_symbol
 _atom_site_label
 _atom_site_symmetry_multiplicity
 _atom_site_fract_x
 _atom_site_fract_y
 _atom_site_fract_z
 _atom_site_occupancy
 _atom_site_pbe_bader_charge
 _atom_site_pbe_bader_spin_density
 _atom_site_pbe_cm5_charge
 _atom_site_pbe_ddec_charge
 _atom_site_pbe_ddec_spin_density
 _atom_site_pbe_ddec_sum_bond_order
 _atom_site_pbe_magmom
Co  Co0  1  0.61394388  0.91942198  0.65884328  1  1.277136  2.604023  0.666532  0.914784  2.816656  2.456394  2.577
Co  Co1  1  0.76064876  0.95520542  0.84113349  1  1.274964  2.603975  0.666275  0.914186  2.815918  2.45804  2.577
Co  Co2  1  0.38605351  0.08057424  0.34115537  1  1.277212  2.604012  0.666543  0.914797  2.816645  2.456426  2.577
Co  Co3  1  0.23935183  0.04479250  0.15886840  1  1.274937  2.603981  0.666315  0.914252  2.815935  2.458183  2.577
H  H4  1  0.74449868  0.22288777  0.03978552  1  0.078369  0.000566  0.099996  0.09539  0.000295  1.034904  0.0
H  H5  1  0.68261332  0.70434286  0.46010189  1  0.080394  0.000564  0.100048  0.09594  0.000295  1.035097  0.0
H  H6  1  0.25549835  0.77711141  0.96021124  1  0.078273  0.000566  0.099938  0.095337  0.000295  1.034961  0.0
H  H7  1  0.31738150  0.29564696  0.53989271  1  0.080645  0.000564  0.100059  0.095988  0.000295  1.035025  0.0
H  H8  1  0.68390655  0.36870285  0.08122760  1  0.095534  7.7e-05  0.09921  0.103985  4e-05  1.046282  0.0
H  H9  1  0.78701820  0.60244074  0.41853558  1  0.054341  8e-05  0.098834  0.103471  4e-05  1.047595  0.0
H  H10  1  0.31609051  0.63129592  0.91877069  1  0.095519  7.7e-05  0.099193  0.103988  4e-05  1.046284  0.0
H  H11  1  0.21297986  0.39755175  0.58146155  1  0.054331  8e-05  0.098829  0.10347  4e-05  1.047619  0.0
H  H12  1  0.45698483  0.27213627  0.81308328  1  0.055796  6.2e-05  0.098004  0.098218  3.8e-05  1.031294  0.0
H  H13  1  0.95913019  0.64398007  0.68671342  1  0.073761  6.1e-05  0.0982  0.098926  3.8e-05  1.03189  0.0
H  H14  1  0.54301845  0.72787057  0.18691455  1  0.055919  6.2e-05  0.097999  0.098162  3.8e-05  1.031365  0.0
H  H15  1  0.04088842  0.35604398  0.31329237  1  0.074285  6.1e-05  0.09814  0.098914  3.8e-05  1.032  0.0
H  H16  1  0.52130608  0.12922237  0.77158697  1  0.062627  0.000317  0.103422  0.107604  6.1e-05  1.023697  0.0
H  H17  1  0.85755527  0.74949694  0.72831445  1  0.100491  0.000309  0.10325  0.10759  6.1e-05  1.023195  0.0
H  H18  1  0.47869278  0.87078234  0.22840861  1  0.062603  0.000317  0.103402  0.107538  6.1e-05  1.023689  0.0
H  H19  1  0.14245071  0.25051563  0.27168531  1  0.100381  0.000309  0.103232  0.107566  6.1e-05  1.023183  0.0
H  H20  1  0.76054852  0.55538002  0.06067704  1  0.057778  7e-06  0.091975  0.130418  8e-06  1.014427  0.0
H  H21  1  0.99486526  0.69994884  0.43939741  1  0.059785  7e-06  0.092071  0.130765  8e-06  1.015278  0.0
H  H22  1  0.23944779  0.44462410  0.93933166  1  0.057706  7e-06  0.092009  0.130439  8e-06  1.014343  0.0
H  H23  1  0.00513827  0.30004810  0.56059850  1  0.059832  7e-06  0.092079  0.130702  8e-06  1.015265  0.0
H  H24  1  0.70538648  0.57509081  0.96356635  1  0.023327  -1.1e-05  0.087435  0.120942  -8e-06  1.016725  0.0
H  H25  1  0.11166500  0.74182334  0.53647911  1  0.002028  -1.1e-05  0.087488  0.121551  -8e-06  1.015854  0.0
H  H26  1  0.29461762  0.42491925  0.03644125  1  0.023212  -1.1e-05  0.087467  0.121004  -8e-06  1.016703  0.0
H  H27  1  0.88834179  0.25817766  0.46351709  1  0.001621  -1.1e-05  0.087481  0.121525  -8e-06  1.016006  0.0
H  H28  1  0.70055504  0.45352049  0.95849852  1  0.043494  -1.9e-05  0.084254  0.113267  -2.2e-05  1.047337  0.0
H  H29  1  0.99519920  0.74211194  0.54159091  1  0.010521  -2e-05  0.084321  0.113603  -2.2e-05  1.046714  0.0
H  H30  1  0.29945038  0.54648476  0.04150673  1  0.043588  -1.9e-05  0.084215  0.113214  -2.2e-05  1.047291  0.0
H  H31  1  0.00480752  0.25789389  0.45840818  1  0.010262  -2e-05  0.084316  0.113631  -2.2e-05  1.046661  0.0
H  H32  1  0.41253887  0.24911113  0.95215597  1  0.047528  -2.3e-05  0.085948  0.120901  -2.7e-05  1.0257  0.0
H  H33  1  0.79653867  0.46036494  0.54733192  1  0.056934  -2.3e-05  0.086559  0.121838  -2.7e-05  1.025038  0.0
H  H34  1  0.58746099  0.75089132  0.04784439  1  0.047598  -2.3e-05  0.08593  0.12085  -2.7e-05  1.025712  0.0
H  H35  1  0.20347491  0.53964509  0.45267785  1  0.057031  -2.3e-05  0.086595  0.121897  -2.7e-05  1.02497  0.0
H  H36  1  0.30189205  0.27657144  0.89247208  1  0.026346  5e-06  0.090687  0.128684  6e-06  1.022948  0.0
H  H37  1  0.88351300  0.40941749  0.60719846  1  0.031244  5e-06  0.090898  0.128984  6e-06  1.02241  0.0
H  H38  1  0.69810932  0.72343150  0.10752833  1  0.026431  5e-06  0.090694  0.128683  6e-06  1.022916  0.0
H  H39  1  0.11649733  0.59058806  0.39280505  1  0.030988  5e-06  0.090883  0.128955  6e-06  1.022307  0.0
H  H40  1  0.34447627  0.30441291  0.00378659  1  0.045191  -5e-06  0.089183  0.12503  -4e-06  1.032618  0.0
H  H41  1  0.80025450  0.34063763  0.49584971  1  0.048229  -5e-06  0.089485  0.125477  -4e-06  1.032575  0.0
H  H42  1  0.65552122  0.69558845  0.99621212  1  0.045189  -5e-06  0.08917  0.125036  -4e-06  1.032657  0.0
H  H43  1  0.19975328  0.65937231  0.50415715  1  0.048003  -5e-06  0.089453  0.125402  -4e-06  1.032635  0.0
H  H44  1  0.78654706  0.14844601  0.62998158  1  0.106912  0.000326  0.103752  0.108183  0.000122  1.018867  0.0
H  H45  1  0.01811187  0.15653428  0.86969526  1  0.107394  0.000326  0.103743  0.107956  0.000122  1.017878  0.0
H  H46  1  0.21344743  0.85155894  0.37001629  1  0.107023  0.000326  0.103777  0.108161  0.000122  1.018919  0.0
H  H47  1  0.98188632  0.84345756  0.13029976  1  0.107127  0.000326  0.103766  0.10799  0.000122  1.017831  0.0
H  H48  1  0.91325318  0.27567911  0.63002049  1  0.075308  0.000154  0.10039  0.103027  8e-05  1.031007  0.0
H  H49  1  0.14528060  0.28321201  0.86961911  1  0.087264  0.000152  0.100597  0.102539  8e-05  1.033121  0.0
H  H50  1  0.08674476  0.72432663  0.36998238  1  0.07527  0.000154  0.100403  0.103018  8e-05  1.030999  0.0
H  H51  1  0.85471695  0.71677553  0.13037305  1  0.087369  0.000152  0.100607  0.102497  8e-05  1.033125  0.0
H  H52  1  0.19809723  0.20706551  0.64670332  1  0.054371  -1e-05  0.086267  0.121158  -6e-06  1.027053  0.0
H  H53  1  0.06022462  0.55135034  0.85317192  1  0.041689  -1e-05  0.086193  0.121213  -6e-06  1.027503  0.0
H  H54  1  0.80189754  0.79293411  0.35329190  1  0.054552  -1e-05  0.086198  0.121025  -6e-06  1.027107  0.0
H  H55  1  0.93978142  0.44865201  0.14682876  1  0.041486  -1e-05  0.086174  0.121231  -6e-06  1.027452  0.0
H  H56  1  0.13891608  0.18662019  0.70995121  1  0.07395  -3.1e-05  0.088352  0.126058  -3.8e-05  1.031869  0.0
H  H57  1  0.97651031  0.42894668  0.78990075  1  0.060317  -3.1e-05  0.088206  0.12598  -3.8e-05  1.032294  0.0
H  H58  1  0.86107669  0.81337497  0.29003827  1  0.074196  -3.1e-05  0.088357  0.126047  -3.8e-05  1.031942  0.0
H  H59  1  0.02349138  0.57105592  0.21010223  1  0.060397  -3.1e-05  0.088169  0.125973  -3.8e-05  1.032271  0.0
H  H60  1  0.27428537  0.23285142  0.75816431  1  0.029782  1e-06  0.087022  0.119308  3e-06  1.024495  0.0
H  H61  1  0.97452681  0.51619129  0.74172904  1  0.026932  1e-06  0.087158  0.119901  3e-06  1.02445  0.0
H  H62  1  0.72570607  0.76713818  0.24182611  1  0.029606  1e-06  0.086981  0.119255  3e-06  1.02453  0.0
H  H63  1  0.02547675  0.48381063  0.25827210  1  0.026732  1e-06  0.08717  0.119923  3e-06  1.024411  0.0
H  H64  1  0.42374313  0.40298417  0.78936304  1  0.055878  -1e-06  0.090256  0.12577  4e-06  1.01965  0.0
H  H65  1  0.11369806  0.63457447  0.71071682  1  0.0435  -1e-06  0.090022  0.1254  4e-06  1.01929  0.0
H  H66  1  0.57625604  0.59701660  0.21063514  1  0.05583  -1e-06  0.09024  0.125773  4e-06  1.019703  0.0
H  H67  1  0.88630044  0.36541882  0.28927700  1  0.043707  -1e-06  0.090065  0.125453  4e-06  1.01923  0.0
H  H68  1  0.38993866  0.43854031  0.70002999  1  0.041033  -3.3e-05  0.087839  0.119529  -4.4e-05  1.035846  0.0
H  H69  1  0.23848683  0.69001814  0.80013598  1  0.04471  -3.3e-05  0.087977  0.118892  -4.4e-05  1.036768  0.0
H  H70  1  0.61005799  0.56145685  0.29996715  1  0.041128  -3.3e-05  0.08783  0.119524  -4.4e-05  1.035848  0.0
H  H71  1  0.76151202  0.30997938  0.19985966  1  0.044712  -3.3e-05  0.08795  0.118889  -4.4e-05  1.0368  0.0
H  H72  1  0.33929409  0.31370919  0.68211314  1  0.033698  -3e-06  0.088412  0.122315  -8e-06  1.022332  0.0
H  H73  1  0.13147302  0.65722972  0.81790202  1  0.032059  -3e-06  0.08856  0.122435  -8e-06  1.022461  0.0
H  H74  1  0.66070641  0.68628857  0.31788642  1  0.033772  -3e-06  0.088417  0.122331  -8e-06  1.022325  0.0
H  H75  1  0.86852207  0.34276776  0.18209203  1  0.032016  -3e-06  0.088571  0.122545  -8e-06  1.022386  0.0
H  H76  1  0.45891661  0.60141437  0.87175396  1  0.094343  0.00015  0.098969  0.103279  7.9e-05  1.034983  0.0
H  H77  1  0.22985746  0.58757505  0.62861873  1  0.083774  0.000152  0.099232  0.103571  7.9e-05  1.036869  0.0
H  H78  1  0.54107501  0.39858315  0.12824704  1  0.094463  0.00015  0.098896  0.103216  7.9e-05  1.03488  0.0
H  H79  1  0.77014351  0.41241729  0.37137687  1  0.083491  0.000152  0.099221  0.103575  7.9e-05  1.036768  0.0
H  H80  1  0.58657434  0.73173549  0.87264786  1  0.106382  0.000345  0.101828  0.104888  0.000123  1.032031  0.0
H  H81  1  0.35932591  0.71444400  0.62787967  1  0.11603  0.000349  0.101608  0.104074  0.000124  1.031567  0.0
H  H82  1  0.41342084  0.26826436  0.12735824  1  0.106439  0.000345  0.101834  0.104858  0.000123  1.032088  0.0
H  H83  1  0.64067431  0.28555549  0.37212257  1  0.115993  0.000349  0.10162  0.104092  0.000124  1.031604  0.0
H  H84  1  0.37522763  0.88992528  0.59826443  1  0.176811  0.000592  0.138373  0.109381  1.3e-05  1.016296  0.001
H  H85  1  0.79178460  0.77726721  0.90216786  1  0.177017  0.000596  0.138479  0.109982  1.5e-05  1.016689  0.001
H  H86  1  0.62476688  0.11007028  0.40173131  1  0.176884  0.000592  0.13831  0.109288  1.3e-05  1.016221  0.001
H  H87  1  0.20822107  0.22273713  0.09783914  1  0.177037  0.000596  0.138506  0.110063  1.5e-05  1.016592  0.001
H  H88  1  0.41339197  0.15095648  0.54962157  1  0.168102  0.000816  0.123242  0.136404  0.000265  1.04301  0.0
H  H89  1  0.10123435  0.86374493  0.95032175  1  0.166622  0.000824  0.12337  0.136765  0.000266  1.043012  0.0
H  H90  1  0.58660456  0.84904134  0.45037769  1  0.168124  0.000816  0.123228  0.136389  0.000266  1.042993  0.0
H  H91  1  0.89877029  0.13625489  0.04967902  1  0.166723  0.000824  0.123335  0.136676  0.000266  1.043071  0.0
H  H92  1  0.59552118  0.10415152  0.60014746  1  0.121578  0.000767  0.125221  0.125196  0.000157  0.99385  0.001
H  H93  1  0.00390644  0.99535415  0.89971657  1  0.117503  0.000769  0.124948  0.125077  0.000157  0.994145  0.001
H  H94  1  0.40447484  0.89584673  0.39985053  1  0.121887  0.000767  0.125213  0.125153  0.000157  0.993856  0.001
H  H95  1  0.99609689  0.00464288  0.10028065  1  0.117521  0.000769  0.124957  0.125047  0.000157  0.994132  0.001
H  H96  1  0.24281884  0.09014509  0.46396720  1  0.11014  4.3e-05  0.109376  0.123149  -0.00012  1.027237  0.0
H  H97  1  0.12603789  0.77899959  0.03625247  1  0.133844  4.1e-05  0.109123  0.122464  -0.000121  1.028377  0.0
H  H98  1  0.75717282  0.90985341  0.53603308  1  0.11011  4.3e-05  0.109363  0.123128  -0.00012  1.027255  0.0
H  H99  1  0.87396941  0.22101038  0.96375465  1  0.133826  4.1e-05  0.10913  0.122425  -0.000121  1.028367  0.0
H  H100  1  0.06629357  0.08349385  0.43109246  1  0.029541  1.5e-05  0.100437  0.094482  -2e-06  1.041443  0.0
H  H101  1  0.15233759  0.63526405  0.06901904  1  0.036581  1.5e-05  0.100156  0.094325  -2e-06  1.040587  0.0
H  H102  1  0.93369790  0.91650114  0.56890915  1  0.029439  1.4e-05  0.100423  0.09451  -2e-06  1.04149  0.0
H  H103  1  0.84767210  0.36474660  0.93099125  1  0.036875  1.5e-05  0.100242  0.09439  -2e-06  1.040563  0.0
H  H104  1  0.07497883  0.92462277  0.59575746  1  0.068191  0.0  0.101066  0.092908  3e-06  1.051177  0.0
H  H105  1  0.82896260  0.47911056  0.90406757  1  0.058976  0.0  0.101103  0.093617  3e-06  1.051126  0.0
H  H106  1  0.92501564  0.07536462  0.40423906  1  0.0684  0.0  0.101111  0.092926  3e-06  1.051161  0.0
H  H107  1  0.17104955  0.52089375  0.09594079  1  0.058764  0.0  0.101134  0.093591  3e-06  1.051166  0.0
H  H108  1  0.25357517  0.93786867  0.63317472  1  0.05158  -6e-06  0.105552  0.105155  -2.8e-05  1.021232  0.0
H  H109  1  0.80474434  0.62039358  0.86674387  1  0.055498  -6e-06  0.105976  0.105596  -2.9e-05  1.020549  0.0
H  H110  1  0.74642005  0.06211917  0.36682106  1  0.051685  -6e-06  0.10552  0.105172  -2.8e-05  1.02122  0.0
H  H111  1  0.19526144  0.37960871  0.13326327  1  0.05534  -6e-06  0.105968  0.105567  -2.9e-05  1.020529  0.0
H  H112  1  0.32180953  0.07059308  0.01671093  1  0.086678  -5.2e-05  0.113298  0.03935  -0.000149  1.013329  0.0
H  H113  1  0.55388953  0.30512418  0.48350362  1  0.095663  -5.4e-05  0.113144  0.038101  -0.000151  1.014194  0.0
H  H114  1  0.67817104  0.92942097  0.98328839  1  0.086444  -5.2e-05  0.113276  0.039306  -0.000149  1.013507  0.0
H  H115  1  0.44612126  0.69486558  0.51649451  1  0.095406  -5.4e-05  0.113138  0.038106  -0.000151  1.014042  0.0
H  H116  1  0.25682298  0.86785692  0.83450074  1  0.038197  1e-06  0.102368  0.076955  1e-06  0.9851  0.0
H  H117  1  0.53355864  0.42271301  0.66569938  1  0.029809  1e-06  0.102307  0.076552  0.0  0.984893  0.0
H  H118  1  0.74317826  0.13215109  0.16551369  1  0.037991  1e-06  0.102429  0.077006  1e-06  0.985093  0.0
H  H119  1  0.46644159  0.57728207  0.33429095  1  0.030072  1e-06  0.102319  0.07645  0.0  0.985045  0.0
H  H120  1  0.34448998  0.94161278  0.94509008  1  0.075408  0.000117  0.107591  0.07961  4.8e-05  0.994713  0.0
H  H121  1  0.49676567  0.39961645  0.55506391  1  0.069417  0.000117  0.107455  0.079389  4.8e-05  0.994089  0.0
H  H122  1  0.65550992  0.05840903  0.05492286  1  0.075478  0.000116  0.107651  0.079708  4.8e-05  0.99458  0.0
H  H123  1  0.50324827  0.60038620  0.44492834  1  0.069155  0.000117  0.107465  0.079316  4.8e-05  0.994165  0.0
H  H124  1  0.43206504  0.91400405  0.84962822  1  0.04925  -5.1e-05  0.091427  0.130654  -7.3e-05  1.001655  0.0
H  H125  1  0.56471676  0.58266457  0.65036577  1  0.057298  -5e-05  0.09184  0.131247  -7.3e-05  0.999908  0.0
H  H126  1  0.56793403  0.08599918  0.15038330  1  0.048777  -5.1e-05  0.091437  0.130662  -7.3e-05  1.00174  0.0
H  H127  1  0.43529432  0.41733424  0.34963707  1  0.05719  -5e-05  0.09177  0.131121  -7.3e-05  1.00004  0.0
H  H128  1  0.44826076  0.04218607  0.90038019  1  0.038818  -1.3e-05  0.087388  0.120759  -2.4e-05  1.012434  0.0
H  H129  1  0.64200668  0.54791048  0.59952627  1  0.030541  -1.3e-05  0.087348  0.121336  -2.4e-05  1.012888  0.0
H  H130  1  0.55174107  0.95782126  0.09962437  1  0.03898  -1.3e-05  0.087377  0.120737  -2.4e-05  1.012578  0.0
H  H131  1  0.35801107  0.45209580  0.40048254  1  0.030584  -1.3e-05  0.087363  0.12127  -2.4e-05  1.013038  0.0
H  H132  1  0.35870074  0.97320469  0.78857717  1  0.008453  -1.5e-05  0.084632  0.111354  -2.8e-05  1.025729  0.0
H  H133  1  0.68495749  0.57033591  0.71139387  1  0.026708  -1.5e-05  0.084646  0.111259  -2.8e-05  1.025178  0.0
H  H134  1  0.64129931  0.02679448  0.21142790  1  0.008335  -1.5e-05  0.084641  0.111364  -2.8e-05  1.025652  0.0
H  H135  1  0.31504983  0.42966106  0.28861114  1  0.026829  -1.5e-05  0.08463  0.111221  -2.8e-05  1.025182  0.0
H  H136  1  0.20998878  0.02176776  0.76084199  1  0.055545  -6e-06  0.097779  0.066392  -1e-06  0.999947  0.0
H  H137  1  0.76081630  0.44903989  0.73944524  1  0.056197  -6e-06  0.097876  0.066463  -1e-06  1.000474  0.0
H  H138  1  0.79000675  0.97822872  0.23915252  1  0.055006  -6e-06  0.097759  0.066427  -1e-06  0.999923  0.0
H  H139  1  0.23919078  0.55095938  0.26055577  1  0.056083  -6e-06  0.097882  0.066484  -1e-06  1.000548  0.0
H  H140  1  0.14487790  0.07195291  0.81818299  1  0.092424  -2.3e-05  0.11015  0.089595  -3.2e-05  1.009179  0.0
H  H141  1  0.75373637  0.32663445  0.68205834  1  0.090264  -2.3e-05  0.110382  0.089745  -3.3e-05  1.009135  0.0
H  H142  1  0.85511176  0.92804430  0.18180555  1  0.092415  -2.3e-05  0.110212  0.089571  -3.2e-05  1.009237  0.0
H  H143  1  0.24627010  0.67336192  0.31794507  1  0.09041  -2.3e-05  0.110387  0.089749  -3.3e-05  1.008937  0.0
H  H144  1  0.02072443  0.92031729  0.69422420  1  0.023198  -2e-06  0.088277  0.119525  -1.1e-05  1.024805  0.0
H  H145  1  0.72586336  0.32628511  0.80593144  1  0.026876  -2e-06  0.088273  0.119342  -1.1e-05  1.025129  0.0
H  H146  1  0.97927141  0.07967166  0.30577294  1  0.023214  -2e-06  0.088294  0.119528  -1.1e-05  1.024753  0.0
H  H147  1  0.27413630  0.67371743  0.19407022  1  0.026486  -2e-06  0.088294  0.119387  -1.1e-05  1.025086  0.0
H  H148  1  0.05204262  0.89518381  0.78864109  1  0.046013  1e-06  0.088667  0.119851  -9e-06  1.038761  0.0
H  H149  1  0.60645910  0.26315724  0.71145236  1  0.057258  1e-06  0.088737  0.120466  -9e-06  1.038804  0.0
H  H150  1  0.94796016  0.10481308  0.21136154  1  0.046042  1e-06  0.088674  0.119853  -9e-06  1.038686  0.0
H  H151  1  0.39354309  0.73684313  0.28854815  1  0.057234  1e-06  0.088725  0.120471  -9e-06  1.038799  0.0
H  H152  1  0.10509196  0.84915673  0.71825789  1  0.023653  2e-06  0.083739  0.111239  3e-06  1.017613  0.0
H  H153  1  0.63063207  0.38653541  0.78180174  1  0.021531  2e-06  0.083871  0.111609  3e-06  1.017064  0.0
H  H154  1  0.89491255  0.15084016  0.28174502  1  0.023677  2e-06  0.083749  0.111246  3e-06  1.017621  0.0
H  H155  1  0.36936740  0.61346682  0.21819524  1  0.021502  2e-06  0.083877  0.111638  3e-06  1.017106  0.0
C  C156  1  0.67404661  0.08351681  0.87584003  1  1.534317  -0.003407  0.198788  0.563403  -0.004757  4.193945  -0.003
C  C157  1  0.70734196  0.79790458  0.62406562  1  1.540076  -0.003403  0.198744  0.563818  -0.004757  4.193226  -0.003
C  C158  1  0.32595159  0.91648402  0.12415866  1  1.534161  -0.003408  0.198851  0.563511  -0.004758  4.193826  -0.003
C  C159  1  0.29264806  0.20209008  0.37593079  1  1.539745  -0.003403  0.198827  0.564016  -0.004757  4.193141  -0.003
C  C160  1  0.63605069  0.16754418  0.90328396  1  -0.024646  0.00437  -0.023009  -0.04326  0.002281  4.006456  0.003
C  C161  1  0.76395133  0.73248216  0.59660665  1  -0.042785  0.00438  -0.024078  -0.04535  0.00228  4.007936  0.003
C  C162  1  0.36394618  0.83245606  0.09671338  1  -0.024324  0.004371  -0.023022  -0.043357  0.002281  4.006307  0.003
C  C163  1  0.23604668  0.26751876  0.40339333  1  -0.042588  0.004381  -0.024091  -0.045444  0.00228  4.008069  0.003
C  C164  1  0.68158048  0.23448005  0.99067977  1  -0.046546  -0.000872  -0.088499  -0.100085  -0.001152  4.00395  0.0
C  C165  1  0.74342390  0.69058973  0.50919085  1  -0.031303  -0.00088  -0.087978  -0.10003  -0.001151  4.004656  0.0
C  C166  1  0.31841414  0.76551705  0.00931606  1  -0.046637  -0.000872  -0.088419  -0.09997  -0.001152  4.003834  0.0
C  C167  1  0.25657236  0.30940761  0.49080890  1  -0.031532  -0.00088  -0.087989  -0.100038  -0.001151  4.004814  0.0
C  C168  1  0.64735374  0.31524333  0.01364384  1  -0.095995  0.000804  -0.091987  -0.133841  0.000298  3.955663  0.001
C  C169  1  0.80127280  0.63351122  0.48616472  1  -0.053971  0.000799  -0.091768  -0.133581  0.000298  3.955042  0.001
C  C170  1  0.35264843  0.68475744  0.98635515  1  -0.095864  0.000804  -0.091962  -0.133874  0.000298  3.955724  0.001
C  C171  1  0.19872545  0.36648699  0.51383328  1  -0.054168  0.000799  -0.091677  -0.133567  0.000298  3.955173  0.001
C  C172  1  0.56624961  0.32983185  0.95014320  1  -0.005532  -0.00252  0.000761  0.098137  -0.002694  3.999763  -0.002
C  C173  1  0.87952113  0.61604234  0.54964992  1  -0.021683  -0.002519  0.000855  0.0991  -0.002693  3.998465  -0.002
C  C174  1  0.43374972  0.67016965  0.04985813  1  -0.00555  -0.002521  0.000721  0.098156  -0.002695  3.999989  -0.002
C  C175  1  0.12048467  0.38396452  0.45034897  1  -0.022484  -0.002519  0.00081  0.099076  -0.002694  3.998499  -0.002
C  C176  1  0.51997652  0.26139387  0.86289543  1  -0.047504  0.001086  -0.09049  -0.140612  0.000452  3.978164  0.001
C  C177  1  0.89844400  0.65706744  0.63694262  1  -0.044741  0.001084  -0.090818  -0.142099  0.000451  3.97873  0.001
C  C178  1  0.48002369  0.73861101  0.13710302  1  -0.047669  0.001086  -0.090423  -0.14053  0.000452  3.978234  0.001
C  C179  1  0.10156458  0.34294352  0.36305681  1  -0.045211  0.001084  -0.090799  -0.142074  0.000452  3.978686  0.001
C  C180  1  0.55492048  0.18151845  0.83940945  1  -0.019489  -0.000988  -0.083375  -0.08165  -0.001328  3.973243  -0.001
C  C181  1  0.84194401  0.71533503  0.66046375  1  -0.076421  -0.000976  -0.083003  -0.080778  -0.001326  3.971711  -0.001
C  C182  1  0.44508070  0.81848638  0.16058848  1  -0.019585  -0.000988  -0.083415  -0.081575  -0.001328  3.973189  -0.001
C  C183  1  0.15806260  0.28467285  0.33953521  1  -0.07547  -0.000976  -0.082923  -0.080698  -0.001326  3.971516  -0.001
C  C184  1  0.53152787  0.41744676  0.97530315  1  -0.052311  -1.2e-05  -0.020006  -0.074053  -6.4e-05  3.986504  0.0
C  C185  1  0.94204772  0.55621355  0.52452132  1  -0.053501  -1.1e-05  -0.01948  -0.073328  -6.3e-05  3.986933  0.0
C  C186  1  0.46846870  0.58255563  0.02469536  1  -0.052394  -1.2e-05  -0.020074  -0.074173  -6.4e-05  3.986602  0.0
C  C187  1  0.05796175  0.44379000  0.47548283  1  -0.053624  -1.1e-05  -0.019565  -0.073484  -6.3e-05  3.987012  0.0
C  C188  1  0.59468101  0.51180121  0.99767425  1  0.004354  -0.0001  -0.015084  0.063907  -0.000108  3.942309  0.0
C  C189  1  0.01423246  0.59704037  0.50237208  1  -0.014666  -9.9e-05  -0.015466  0.063709  -0.000106  3.945054  0.0
C  C190  1  0.40531676  0.48820242  0.00232771  1  0.004401  -0.0001  -0.015022  0.063995  -0.000108  3.942121  0.0
C  C191  1  0.98577247  0.40296311  0.49762969  1  -0.014261  -9.9e-05  -0.015447  0.063781  -0.000106  3.94509  0.0
C  C192  1  0.43710618  0.40476648  0.97737147  1  -0.025294  -0.000106  -0.015934  0.059434  -0.000115  3.956442  0.0
C  C193  1  0.92718001  0.45968347  0.52241089  1  -0.015887  -0.000104  -0.01599  0.059168  -0.000114  3.95819  0.0
C  C194  1  0.56288953  0.59523391  0.02262768  1  -0.025274  -0.000106  -0.01583  0.059586  -0.000115  3.956517  0.0
C  C195  1  0.07282495  0.54031960  0.47759240  1  -0.015835  -0.000105  -0.015978  0.059273  -0.000114  3.958042  0.0
C  C196  1  0.69496085  0.52421016  0.99448243  1  -0.091533  -2.3e-05  -0.243461  -0.398549  -3.3e-05  3.972085  0.0
C  C197  1  0.02988615  0.70052569  0.50558626  1  -0.030617  -2.3e-05  -0.243544  -0.399933  -3.4e-05  3.972873  0.0
C  C198  1  0.30504360  0.47579514  0.00552333  1  -0.091476  -2.3e-05  -0.243524  -0.398637  -3.3e-05  3.97212  0.0
C  C199  1  0.97012177  0.29947958  0.49441255  1  -0.029974  -2.3e-05  -0.243531  -0.399868  -3.4e-05  3.973039  0.0
C  C200  1  0.37157903  0.30403521  0.95565741  1  -0.061349  -1.8e-05  -0.244585  -0.408321  -2.9e-05  3.975987  0.0
C  C201  1  0.84797379  0.41588180  0.54396698  1  -0.072245  -1.9e-05  -0.245524  -0.410051  -3e-05  3.976954  0.0
C  C202  1  0.62841995  0.69596565  0.04434206  1  -0.061462  -1.8e-05  -0.244561  -0.408282  -2.9e-05  3.975924  0.0
C  C203  1  0.15203393  0.58412398  0.45603911  1  -0.071684  -1.9e-05  -0.245478  -0.410003  -3e-05  3.97679  0.0
C  C204  1  0.81765748  0.06769815  0.74981732  1  1.52448  -0.006808  0.21628  0.585867  -0.008716  4.15823  -0.004
C  C205  1  0.18233633  0.93230154  0.25017840  1  1.524501  -0.00681  0.21631  0.585933  -0.008716  4.158373  -0.004
C  C206  1  0.89402471  0.14415144  0.74982351  1  -0.060757  0.01105  -0.025234  -0.05112  0.005741  3.998429  0.009
C  C207  1  0.10597251  0.85584764  0.25017196  1  -0.060401  0.01105  -0.025283  -0.051233  0.005741  3.998665  0.009
C  C208  1  0.86527091  0.17808341  0.68239407  1  0.017998  -0.002414  -0.084833  -0.083923  -0.002785  3.984348  -0.001
C  C209  1  0.99535493  0.18283414  0.81726657  1  -0.081563  -0.002383  -0.084638  -0.084234  -0.002782  3.982465  -0.001
C  C210  1  0.13472672  0.82191729  0.31760253  1  0.017788  -0.002414  -0.08485  -0.083857  -0.002785  3.984395  -0.001
C  C211  1  0.00464355  0.81716136  0.18272946  1  -0.081405  -0.002383  -0.084751  -0.084384  -0.002782  3.982456  -0.001
C  C212  1  0.93684378  0.24974629  0.68269878  1  -0.078531  0.001586  -0.092068  -0.142475  0.000676  3.972715  0.001
C  C213  1  0.06668891  0.25412952  0.81695537  1  -0.039631  0.001585  -0.091857  -0.140728  0.000676  3.975165  0.001
C  C214  1  0.06315409  0.75025889  0.31730328  1  -0.078473  0.001586  -0.092038  -0.142406  0.000676  3.972746  0.001
C  C215  1  0.93331016  0.74586390  0.18304053  1  -0.040229  0.001585  -0.091759  -0.140534  0.000676  3.974877  0.001
C  C216  1  0.03865847  0.28880686  0.74980575  1  -0.029204  -0.004236  -0.003081  0.091601  -0.004515  4.002698  -0.003
C  C217  1  0.96134156  0.71118871  0.25019185  1  -0.028698  -0.004236  -0.003088  0.091536  -0.004515  4.002815  -0.003
C  C218  1  0.11528982  0.36540761  0.74984751  1  -0.043652  -9.1e-05  -0.013355  -0.06114  -0.000179  3.965001  0.0
C  C219  1  0.88470964  0.63458964  0.25015174  1  -0.043373  -9.1e-05  -0.01336  -0.061145  -0.000179  3.965131  0.0
C  C220  1  0.19614126  0.34100515  0.73473237  1  -0.039334  -0.000199  -0.014643  0.062698  -0.000211  3.932492  0.0
C  C221  1  0.10609233  0.46143170  0.76510791  1  0.008259  -0.000196  -0.014666  0.062056  -0.000211  3.933645  0.0
C  C222  1  0.80385590  0.65898977  0.26526232  1  -0.039809  -0.000199  -0.014665  0.062697  -0.000211  3.932682  0.0
C  C223  1  0.89390645  0.53856566  0.23489290  1  0.008641  -0.000195  -0.014685  0.062053  -0.000211  3.933739  0.0
C  C224  1  0.27039795  0.41452289  0.73775122  1  -0.015185  -0.000215  -0.015896  0.059534  -0.000228  3.945656  0.0
C  C225  1  0.17670153  0.53274429  0.76226625  1  -0.029445  -0.000216  -0.015128  0.060597  -0.000227  3.945839  0.0
C  C226  1  0.72960336  0.58547589  0.26224841  1  -0.01499  -0.000215  -0.015857  0.059577  -0.000228  3.9456  0.0
C  C227  1  0.82329563  0.46725063  0.23772844  1  -0.02973  -0.000217  -0.015137  0.060574  -0.000228  3.945991  0.0
C  C228  1  0.25930340  0.50937521  0.75007470  1  -0.010655  -2.3e-05  -0.016583  -0.067208  -0.000131  3.977434  0.0
C  C229  1  0.74069577  0.49062197  0.24992351  1  -0.010687  -2.3e-05  -0.016634  -0.067304  -0.000131  3.97742  0.0
C  C230  1  0.20193264  0.23672641  0.71166241  1  -0.112079  -4.8e-05  -0.245405  -0.405647  -6.5e-05  3.975586  0.0
C  C231  1  0.02489216  0.49027147  0.78818867  1  -0.081382  -4.8e-05  -0.245494  -0.406392  -6.5e-05  3.97798  0.0
C  C232  1  0.79806200  0.76326848  0.28833122  1  -0.112373  -4.8e-05  -0.245303  -0.405437  -6.5e-05  3.975676  0.0
C  C233  1  0.97510820  0.50973055  0.21181296  1  -0.080986  -4.8e-05  -0.245463  -0.40643  -6.5e-05  3.977874  0.0
C  C234  1  0.36007385  0.39103696  0.72616490  1  -0.103361  -3.6e-05  -0.24293  -0.410086  -5.7e-05  3.980534  0.0
C  C235  1  0.16483830  0.63402835  0.77391506  1  -0.090428  -3.6e-05  -0.243182  -0.409239  -5.6e-05  3.98033  0.0
C  C236  1  0.63992385  0.60896071  0.27383255  1  -0.103533  -3.6e-05  -0.242919  -0.410092  -5.7e-05  3.980532  0.0
C  C237  1  0.83515952  0.36596866  0.22608028  1  -0.090623  -3.6e-05  -0.243196  -0.409402  -5.6e-05  3.980424  0.0
C  C238  1  0.33587175  0.58596169  0.75016092  1  0.0043  -0.004294  -0.003601  0.088135  -0.004576  3.997707  -0.003
C  C239  1  0.66412536  0.41403225  0.24983448  1  0.004371  -0.004296  -0.003537  0.08825  -0.004578  3.997461  -0.003
C  C240  1  0.43694848  0.62669167  0.81857269  1  -0.112668  0.001547  -0.092736  -0.131662  0.000654  3.959724  0.001
C  C241  1  0.30826426  0.61877558  0.68183195  1  -0.061061  0.001551  -0.092922  -0.132818  0.000653  3.965301  0.001
C  C242  1  0.56304567  0.37330366  0.18142717  1  -0.113226  0.001547  -0.092716  -0.131731  0.000654  3.959428  0.001
C  C243  1  0.69173379  0.38122272  0.31816735  1  -0.063374  0.001551  -0.09291  -0.13277  0.000653  3.965206  0.001
C  C244  1  0.50838063  0.69888609  0.81911751  1  -0.062415  -0.002423  -0.089343  -0.099689  -0.002844  3.986519  -0.001
C  C245  1  0.37992368  0.68973819  0.68139044  1  -0.098899  -0.002417  -0.089308  -0.097634  -0.002837  3.98329  -0.001
C  C246  1  0.49161431  0.30111467  0.18088683  1  -0.062162  -0.002424  -0.089319  -0.099647  -0.002845  3.986419  -0.001
C  C247  1  0.62008007  0.31025865  0.31861168  1  -0.09609  -0.002418  -0.089315  -0.097691  -0.002838  3.983292  -0.001
C  C248  1  0.48046187  0.73063320  0.75026834  1  0.00878  0.011081  -0.024744  -0.051886  0.005739  4.017944  0.009
C  C249  1  0.51953747  0.26936650  0.24973675  1  0.008825  0.011081  -0.024757  -0.051851  0.005739  4.017924  0.009
C  C250  1  0.55704698  0.80718993  0.75020212  1  1.529106  -0.007171  0.214788  0.579948  -0.009127  4.164506  -0.005
C  C251  1  0.44295115  0.19281074  0.24980172  1  1.529033  -0.007174  0.21481  0.580026  -0.00913  4.164661  -0.005
C  C252  1  0.41218870  0.95654640  0.59610778  1  0.954812  -0.004011  0.150332  0.114446  -0.004882  3.888156  -0.002
C  C253  1  0.86047477  0.81626739  0.90412026  1  0.963048  -0.004045  0.149864  0.113312  -0.004876  3.889311  -0.002
C  C254  1  0.58780617  0.04344979  0.40388980  1  0.954887  -0.004013  0.150337  0.114436  -0.004884  3.887953  -0.002
C  C255  1  0.13952946  0.18373842  0.09588526  1  0.963055  -0.004045  0.149833  0.11319  -0.004875  3.889489  -0.002
C  C256  1  0.43397474  0.09291421  0.57048105  1  0.194806  0.003648  -0.002219  -0.114475  0.001737  3.890169  0.003
C  C257  1  0.02237702  0.86353159  0.92952511  1  0.24258  0.003597  -0.002766  -0.117154  0.001735  3.891479  0.003
C  C258  1  0.56601901  0.90708310  0.42951763  1  0.194846  0.003648  -0.002134  -0.114407  0.001737  3.89002  0.003
C  C259  1  0.97762684  0.13646818  0.07047486  1  0.243241  0.003596  -0.002731  -0.117096  0.001734  3.891556  0.003
C  C260  1  0.52276066  0.06792157  0.59392546  1  0.480288  0.0004  0.006973  -0.010973  -0.000234  3.985717  0.001
C  C261  1  0.97394997  0.92888577  0.90605657  1  0.427173  0.000461  0.008014  -0.008305  -0.000237  3.984937  0.001
C  C262  1  0.47723377  0.93207562  0.40607167  1  0.479782  0.0004  0.00694  -0.011007  -0.000234  3.985782  0.001
C  C263  1  0.02605422  0.07111505  0.09394373  1  0.426602  0.00046  0.007983  -0.008257  -0.000237  3.984909  0.001
C  C264  1  0.26063480  0.01562275  0.55154806  1  0.275935  0.000338  0.099773  0.176299  9.3e-05  4.017636  0.0
C  C265  1  0.96403083  0.70916475  0.94854990  1  0.330715  0.000337  0.099421  0.173198  9.2e-05  4.021494  0.0
C  C266  1  0.73935602  0.98437153  0.44845066  1  0.275853  0.000338  0.099819  0.176336  9.3e-05  4.017735  0.0
C  C267  1  0.03597733  0.29084002  0.05145664  1  0.2784  0.000343  0.099451  0.173187  9.2e-05  4.021522  0.0
C  C268  1  0.20639221  0.05604467  0.49446845  1  -0.015398  0.000143  -0.088539  -0.161882  -1.8e-05  3.974324  0.0
C  C269  1  0.06150495  0.71200473  0.00564762  1  -0.11732  0.00015  -0.087832  -0.160219  -1.9e-05  3.97656  0.0
C  C270  1  0.79360034  0.94395182  0.50553275  1  -0.015067  0.000143  -0.088567  -0.16193  -1.8e-05  3.974077  0.0
C  C271  1  0.93850438  0.28800169  0.99436085  1  -0.065192  0.000145  -0.087844  -0.160132  -1.9e-05  3.976421  0.0
C  C272  1  0.10525927  0.05026615  0.47520039  1  -0.010867  -0.000119  -0.083437  -0.106898  -0.000179  3.967554  0.0
C  C273  1  0.07501832  0.63011781  0.02488225  1  0.033584  -0.000118  -0.083818  -0.107304  -0.000179  3.968504  0.0
C  C274  1  0.89473425  0.94972669  0.52480033  1  -0.01104  -0.000119  -0.083558  -0.107102  -0.000179  3.967468  0.0
C  C275  1  0.92499170  0.36989029  0.97512839  1  0.033966  -0.000118  -0.083907  -0.107455  -0.000179  3.968471  0.0
C  C276  1  0.05382893  0.00301432  0.51023030  1  -0.020803  -0.000374  -0.007259  0.058656  -0.000402  3.983291  0.0
C  C277  1  0.99278248  0.54360545  0.98975173  1  -0.030327  -0.000375  -0.006873  0.059406  -0.000401  3.985347  0.0
C  C278  1  0.94616388  0.99697904  0.48977045  1  0.006865  -0.000372  -0.007191  0.058763  -0.000402  3.983356  0.0
C  C279  1  0.00722855  0.45639997  0.01025773  1  0.006325  -0.000371  -0.006949  0.059508  -0.000401  3.985168  0.0
C  C280  1  0.11018614  0.96198632  0.56650770  1  -0.053485  7.1e-05  -0.083556  -0.102419  2.1e-05  3.973599  0.0
C  C281  1  0.89551156  0.54364834  0.93340611  1  -0.01533  7.3e-05  -0.08394  -0.104878  2e-05  3.974501  0.0
C  C282  1  0.88980755  0.03800324  0.43349023  1  -0.053796  7.1e-05  -0.083604  -0.102442  2.1e-05  3.973863  0.0
C  C283  1  0.10449898  0.45635711  0.06660360  1  -0.01587  7.3e-05  -0.083965  -0.104865  2e-05  3.974372  0.0
C  C284  1  0.21181566  0.96860449  0.58769445  1  0.047306  -0.000189  -0.092753  -0.173927  -0.000228  4.005921  0.0
C  C285  1  0.88091411  0.62412412  0.91225398  1  -0.01664  -0.000189  -0.092716  -0.171829  -0.000226  4.003349  0.0
C  C286  1  0.78817885  0.03138747  0.41230131  1  0.04723  -0.000189  -0.092726  -0.173958  -0.000228  4.005925  0.0
C  C287  1  0.11909337  0.37588077  0.08775412  1  -0.015916  -0.000189  -0.092698  -0.171783  -0.000226  4.003397  0.0
C  C288  1  0.26358402  0.07724155  0.95910967  1  1.3798  -6.5e-05  0.167732  0.310235  -8.6e-05  4.141284  0.0
C  C289  1  0.61810890  0.30442009  0.54109644  1  1.344682  -6.7e-05  0.168179  0.311436  -8.6e-05  4.141423  0.0
C  C290  1  0.73639625  0.92276705  0.04088491  1  1.37988  -6.5e-05  0.167732  0.310186  -8.6e-05  4.14106  0.0
C  C291  1  0.38190383  0.69557854  0.45890433  1  1.344356  -6.7e-05  0.168245  0.3114  -8.6e-05  4.141145  0.0
C  C292  1  0.30950950  0.94286365  0.87967293  1  0.311808  7.5e-05  -0.058983  -0.013018  4.9e-05  3.943832  0.0
C  C293  1  0.56340798  0.43005105  0.62048723  1  0.317322  7.5e-05  -0.058566  -0.011859  4.9e-05  3.941367  0.0
C  C294  1  0.69049088  0.05714555  0.12033613  1  0.311601  7.5e-05  -0.059139  -0.013249  4.9e-05  3.944083  0.0
C  C295  1  0.43660004  0.56994678  0.37950801  1  0.317273  7.5e-05  -0.058552  -0.011645  5e-05  3.941655  0.0
C  C296  1  0.39174965  0.96978624  0.85318680  1  -0.068454  -1.2e-05  -0.244986  -0.377896  -6.5e-05  3.94425  0.0
C  C297  1  0.61688513  0.53871898  0.64681469  1  -0.076414  -1.3e-05  -0.245437  -0.379262  -6.5e-05  3.942603  0.0
C  C298  1  0.60825023  0.03021980  0.14682102  1  -0.067884  -1.2e-05  -0.245001  -0.377906  -6.5e-05  3.944402  0.0
C  C299  1  0.38312624  0.46127989  0.35318919  1  -0.076453  -1.3e-05  -0.245343  -0.379038  -6.5e-05  3.942685  0.0
C  C300  1  0.17253355  0.00883370  0.79980959  1  0.269349  -1.7e-05  -0.06423  -0.01016  -1.9e-05  3.910802  0.0
C  C301  1  0.70895402  0.37263050  0.70039803  1  0.277386  -1.7e-05  -0.064431  -0.010147  -1.9e-05  3.910774  0.0
C  C302  1  0.82746193  0.99116539  0.20018560  1  0.269784  -1.7e-05  -0.064263  -0.010138  -1.9e-05  3.91092  0.0
C  C303  1  0.29105254  0.62736782  0.29960395  1  0.277434  -1.7e-05  -0.064384  -0.010179  -1.9e-05  3.910645  0.0
C  C304  1  0.08335602  0.91264733  0.74744581  1  -0.070241  -5e-06  -0.245093  -0.382047  -1.9e-05  3.950995  0.0
C  C305  1  0.66503486  0.33568929  0.75266058  1  -0.089717  -6e-06  -0.245675  -0.383501  -2e-05  3.95167  0.0
C  C306  1  0.91664355  0.08734786  0.25255357  1  -0.070232  -5e-06  -0.245105  -0.382061  -2e-05  3.950921  0.0
C  C307  1  0.33496578  0.66431099  0.24733835  1  -0.089363  -6e-06  -0.245707  -0.383582  -2e-05  3.951686  0.0
N  N308  1  0.50784901  0.98271059  0.60915332  1  -1.188528  0.058584  -0.358632  -0.308748  0.031858  3.651009  0.045
N  N309  1  0.87357373  0.89882994  0.89096095  1  -1.191264  0.058636  -0.359004  -0.310602  0.031844  3.654364  0.045
N  N310  1  0.49214535  0.01728604  0.39084299  1  -1.188602  0.058582  -0.358588  -0.308673  0.031858  3.650876  0.045
N  N311  1  0.12643022  0.10117179  0.10903760  1  -1.191405  0.058638  -0.359003  -0.310598  0.031845  3.654449  0.045
N  N312  1  0.36386360  0.02164733  0.57218372  1  -1.27535  0.002047  -0.225601  0.006483  0.000734  3.790183  0.002
N  N313  1  0.94945850  0.79181847  0.92798763  1  -1.263211  0.002045  -0.225507  0.009129  0.000733  3.78995  0.002
N  N314  1  0.63613310  0.97834721  0.42781274  1  -1.27527  0.002047  -0.225594  0.006615  0.000734  3.79015  0.002
N  N315  1  0.05054694  0.20818457  0.07201542  1  -1.263248  0.002045  -0.225506  0.009123  0.000733  3.790066  0.002
N  N316  1  0.24925609  0.01133531  0.88190128  1  -1.21063  -2.6e-05  -0.28709  -0.088482  -3e-05  3.637672  0.0
N  N317  1  0.62948139  0.36737016  0.61829049  1  -1.183712  -2.6e-05  -0.287234  -0.088225  -3e-05  3.635447  0.0
N  N318  1  0.75073990  0.98867233  0.11809884  1  -1.210647  -2.6e-05  -0.287006  -0.08829  -3e-05  3.638036  0.0
N  N319  1  0.37052753  0.63262746  0.38170940  1  -1.183191  -2.6e-05  -0.287401  -0.088217  -3e-05  3.635643  0.0
O  O320  1  0.63550497  0.03011556  0.79503279  1  -1.169126  0.076151  -0.299485  -0.566596  0.039769  2.370045  0.065
O  O321  1  0.73478506  0.84021339  0.70488811  1  -1.162757  0.076069  -0.299343  -0.566478  0.039746  2.368867  0.065
O  O322  1  0.36448629  0.96987772  0.20496639  1  -1.169013  0.076158  -0.299525  -0.566617  0.039772  2.370074  0.065
O  O323  1  0.26520886  0.15978065  0.29510778  1  -1.162797  0.076075  -0.299422  -0.56657  0.039751  2.368785  0.065
O  O324  1  0.74662801  0.06695207  0.93332377  1  -1.155383  0.084822  -0.319485  -0.57029  0.043848  2.290017  0.072
O  O325  1  0.63330619  0.81300650  0.56657888  1  -1.158816  0.084724  -0.319593  -0.570662  0.043777  2.288748  0.072
O  O326  1  0.25337500  0.93305291  0.06667678  1  -1.155453  0.084822  -0.319488  -0.570333  0.043849  2.290081  0.072
O  O327  1  0.36668093  0.18698432  0.43341311  1  -1.158586  0.084724  -0.319616  -0.570747  0.043778  2.28887  0.072
O  O328  1  0.72935408  0.02800382  0.68275449  1  -1.155621  0.087393  -0.308831  -0.544657  0.045586  2.408468  0.072
O  O329  1  0.84512357  0.04638740  0.81686716  1  -1.152643  0.087802  -0.308001  -0.54274  0.045607  2.406491  0.073
O  O330  1  0.27063727  0.97199142  0.31724326  1  -1.155827  0.08739  -0.308835  -0.544686  0.045583  2.40864  0.072
O  O331  1  0.15487047  0.95360957  0.18312659  1  -1.152698  0.087806  -0.308007  -0.542736  0.045609  2.406445  0.073
O  O332  1  0.64544083  0.84619164  0.81718828  1  -1.151616  0.086805  -0.306787  -0.542076  0.04543  2.412945  0.071
O  O333  1  0.52898020  0.82851710  0.68314893  1  -1.152261  0.087254  -0.30695  -0.541587  0.045492  2.409753  0.072
O  O334  1  0.35455834  0.15380594  0.18281590  1  -1.15154  0.086803  -0.30675  -0.542089  0.045431  2.413047  0.071
O  O335  1  0.47101711  0.17148255  0.31685484  1  -1.152488  0.08726  -0.306968  -0.541592  0.045493  2.409808  0.072
O  O336  1  0.21729176  0.13911741  0.96680555  1  -1.155942  0.000129  -0.313936  -0.467637  3.4e-05  2.20568  0.0
O  O337  1  0.67206219  0.25018056  0.53336586  1  -1.15693  0.000129  -0.314288  -0.467802  3.4e-05  2.203767  0.0
O  O338  1  0.78267512  0.86087747  0.03318001  1  -1.155539  0.000129  -0.313979  -0.46768  3.4e-05  2.205128  0.0
O  O339  1  0.32795070  0.74981520  0.46663809  1  -1.156849  0.000129  -0.314294  -0.467806  3.4e-05  2.203826  0.0
