# generated using pymatgen
data_Zn2H13C24N2O9
_symmetry_space_group_name_H-M   'P 1'
_cell_length_a   13.76304869
_cell_length_b   18.90025225
_cell_length_c   19.64126292
_cell_angle_alpha   89.99994406
_cell_angle_beta   89.99977989
_cell_angle_gamma   89.99953064
_symmetry_Int_Tables_number   1
_chemical_formula_structural   Zn2H13C24N2O9
_chemical_formula_sum   'Zn16 H104 C192 N16 O72'
_cell_volume   5109.18532034
_cell_formula_units_Z   8
loop_
 _symmetry_equiv_pos_site_id
 _symmetry_equiv_pos_as_xyz
  1  'x, y, z'
loop_
 _atom_site_type_symbol
 _atom_site_label
 _atom_site_symmetry_multiplicity
 _atom_site_fract_x
 _atom_site_fract_y
 _atom_site_fract_z
 _atom_site_occupancy
 _atom_site_pbe_bader_charge
 _atom_site_pbe_bader_spin_density
 _atom_site_pbe_cm5_charge
 _atom_site_pbe_ddec_charge
 _atom_site_pbe_ddec_spin_density
 _atom_site_pbe_ddec_sum_bond_order
 _atom_site_pbe_magmom
Zn  Zn0  1  0.36681417  0.06002292  0.10814019  1  1.295276  0  0.658011  0.931213  0  2.362978  0
Zn  Zn1  1  0.63318331  0.43997658  0.60813755  1  1.295389  0  0.657959  0.931113  0  2.363047  0
Zn  Zn2  1  0.86681611  0.93997726  0.39186375  1  1.295338  0  0.657956  0.931167  0  2.363061  0
Zn  Zn3  1  0.13318943  0.56002235  0.89186126  1  1.295354  0  0.657969  0.931162  0  2.363013  0
Zn  Zn4  1  0.63319642  0.93997399  0.89186246  1  1.295598  0  0.65794  0.931162  0  2.362968  0
Zn  Zn5  1  0.36680548  0.56002403  0.39186306  1  1.295572  0  0.657952  0.931193  0  2.362892  0
Zn  Zn6  1  0.13319085  0.06001912  0.60813686  1  1.295788  0  0.658006  0.931233  0  2.362889  0
Zn  Zn7  1  0.86681317  0.43997879  0.10813681  1  1.295361  0  0.657963  0.93116  0  2.363002  0
Zn  Zn8  1  0.40504171  0.95012739  0.98809333  1  1.328853  0  0.666779  0.87174  0  2.356063  0
Zn  Zn9  1  0.59495966  0.54987158  0.48809181  1  1.328843  0  0.666785  0.871751  0  2.356031  0
Zn  Zn10  1  0.90503760  0.04987097  0.51190781  1  1.328913  0  0.666784  0.87173  0  2.356078  0
Zn  Zn11  1  0.09496404  0.45012439  0.01190522  1  1.328926  0  0.666694  0.871451  0  2.356397  0
Zn  Zn12  1  0.59496380  0.04986951  0.01190881  1  1.328997  0  0.666707  0.871508  0  2.356194  0
Zn  Zn13  1  0.40503276  0.45012691  0.51190728  1  1.328977  0  0.666648  0.871408  0  2.356378  0
Zn  Zn14  1  0.09496572  0.95012752  0.48809077  1  1.328959  0  0.666723  0.871567  0  2.356179  0
Zn  Zn15  1  0.90504074  0.54987251  0.98809183  1  1.328833  0  0.666768  0.871701  0  2.356027  0
H  H16  1  0.41714299  0.67833562  0.21508663  1  0.122535  0  0.10641  0.114822  0  0.993884  0
H  H17  1  0.58284173  0.82166628  0.71508933  1  0.122578  0  0.106393  0.114812  0  0.99384  0
H  H18  1  0.91715030  0.32166425  0.28491310  1  0.122578  0  0.106391  0.114808  0  0.993877  0
H  H19  1  0.08285709  0.17833770  0.78491064  1  0.122589  0  0.106424  0.114807  0  0.993922  0
H  H20  1  0.58285016  0.32166393  0.78491144  1  0.122633  0  0.106388  0.114772  0  0.993812  0
H  H21  1  0.41715287  0.17833538  0.28491893  1  0.122519  0  0.106369  0.114786  0  0.993813  0
H  H22  1  0.08284358  0.67833371  0.71508853  1  0.122592  0  0.106363  0.11474  0  0.993829  0
H  H23  1  0.91715422  0.82166608  0.21508641  1  0.122572  0  0.106348  0.114709  0  0.993853  0
H  H24  1  0.43170271  0.77244389  0.12595839  1  0.068353  0  0.105762  0.104579  0  1.015167  0
H  H25  1  0.56828759  0.72755387  0.62595968  1  0.068605  0  0.105735  0.104535  0  1.015292  0
H  H26  1  0.93170840  0.22755483  0.37404487  1  0.068273  0  0.105777  0.104629  0  1.015064  0
H  H27  1  0.06830068  0.27244226  0.87403931  1  0.068446  0  0.10577  0.104597  0  1.015113  0
H  H28  1  0.56828826  0.22755248  0.87404070  1  0.068628  0  0.105754  0.104581  0  1.015225  0
H  H29  1  0.43170629  0.27244779  0.37404552  1  0.06827  0  0.105744  0.104557  0  1.015168  0
H  H30  1  0.06828983  0.77244736  0.62596185  1  0.068453  0  0.105747  0.104547  0  1.015233  0
H  H31  1  0.93171064  0.72755464  0.12595673  1  0.068314  0  0.105762  0.104578  0  1.015196  0
H  H32  1  0.39211350  0.93217196  0.27882990  1  0.125191  0  0.102682  0.109809  0  1.007268  0
H  H33  1  0.60789266  0.56782565  0.77882869  1  0.125085  0  0.102666  0.109781  0  1.007209  0
H  H34  1  0.89211021  0.06782965  0.22116939  1  0.125198  0  0.102705  0.10984  0  1.007237  0
H  H35  1  0.10788518  0.43217501  0.72117019  1  0.125127  0  0.102696  0.109825  0  1.007215  0
H  H36  1  0.60788910  0.06782389  0.72116867  1  0.125062  0  0.102664  0.109797  0  1.007194  0
H  H37  1  0.39210630  0.43217178  0.22117192  1  0.125218  0  0.102699  0.109865  0  1.007195  0
H  H38  1  0.10788294  0.93217519  0.77883225  1  0.125229  0  0.102686  0.10982  0  1.007185  0
H  H39  1  0.89210870  0.56782877  0.27883144  1  0.125207  0  0.102689  0.109833  0  1.007225  0
H  H40  1  0.38248729  0.83658274  0.36925032  1  0.062422  0  0.102349  0.109084  0  1.014873  0
H  H41  1  0.61751329  0.66341213  0.86925052  1  0.062409  0  0.102345  0.109098  0  1.014759  0
H  H42  1  0.88248633  0.16341628  0.13074849  1  0.062422  0  0.102341  0.109088  0  1.014794  0
H  H43  1  0.11750957  0.33658477  0.63074834  1  0.062384  0  0.102339  0.109068  0  1.01479  0
H  H44  1  0.61751749  0.16341258  0.63074622  1  0.062492  0  0.102356  0.109142  0  1.014802  0
H  H45  1  0.38248495  0.33658266  0.13075111  1  0.062468  0  0.102321  0.109006  0  1.014899  0
H  H46  1  0.11750609  0.83658591  0.86925110  1  0.062374  0  0.102361  0.109095  0  1.014808  0
H  H47  1  0.88248795  0.66341742  0.36925228  1  0.062384  0  0.102326  0.10901  0  1.014928  0
H  H48  1  0.04851621  0.06387302  0.10554302  1  0.067245  0  0.102486  0.101454  0  1.020245  0
H  H49  1  0.95147328  0.43612859  0.60553445  1  0.067589  0  0.10246  0.101321  0  1.02045  0
H  H50  1  0.54852327  0.93612693  0.39445770  1  0.067249  0  0.102484  0.101391  0  1.020296  0
H  H51  1  0.45148298  0.56387425  0.89445894  1  0.065972  0  0.102505  0.101465  0  1.020193  0
H  H52  1  0.95149365  0.93611859  0.89446778  1  0.066347  0  0.102542  0.101437  0  1.020271  0
H  H53  1  0.04851115  0.56387625  0.39445446  1  0.06583  0  0.10256  0.101495  0  1.020137  0
H  H54  1  0.45148441  0.06387949  0.60553324  1  0.066164  0  0.102555  0.101454  0  1.020281  0
H  H55  1  0.54852180  0.43613005  0.10554168  1  0.067395  0  0.102491  0.101391  0  1.020257  0
H  H56  1  0.12709042  0.94091515  0.93057653  1  0.089829  0  0.10331  0.10882  0  1.013383  0
H  H57  1  0.87290691  0.55908124  0.43056000  1  0.089601  0  0.10326  0.108617  0  1.01343  0
H  H58  1  0.62708517  0.05908593  0.56942841  1  0.089816  0  0.10333  0.10885  0  1.013346  0
H  H59  1  0.37291979  0.44092154  0.06943119  1  0.089883  0  0.103294  0.108818  0  1.013292  0
H  H60  1  0.87291872  0.05907646  0.06943478  1  0.089855  0  0.103312  0.10879  0  1.013345  0
H  H61  1  0.12707098  0.44092148  0.56942788  1  0.090054  0  0.10335  0.10887  0  1.013223  0
H  H62  1  0.37292324  0.94092314  0.43056508  1  0.090104  0  0.103313  0.108803  0  1.013349  0
H  H63  1  0.62708571  0.55908489  0.93056687  1  0.089741  0  0.103311  0.108805  0  1.013332  0
H  H64  1  0.39828878  0.78924012  0.02815616  1  0.095121  0  0.12422  0.092798  0  1.016386  0
H  H65  1  0.60171006  0.71075828  0.52815636  1  0.095141  0  0.124225  0.092834  0  1.016348  0
H  H66  1  0.89828395  0.21075934  0.47184413  1  0.095143  0  0.124218  0.092812  0  1.016415  0
H  H67  1  0.10171369  0.28923448  0.97184508  1  0.095184  0  0.12422  0.092834  0  1.016327  0
H  H68  1  0.60171382  0.21075837  0.97184394  1  0.095141  0  0.124241  0.092802  0  1.01637  0
H  H69  1  0.39828309  0.28923862  0.47184629  1  0.095203  0  0.124241  0.09289  0  1.016333  0
H  H70  1  0.10171357  0.78923968  0.52815292  1  0.095232  0  0.124214  0.092852  0  1.016326  0
H  H71  1  0.89828890  0.71075819  0.02815401  1  0.095205  0  0.124235  0.092845  0  1.016411  0
H  H72  1  0.37568283  0.67178464  0.96841910  1  0.104384  0  0.116669  0.122318  0  0.99233  0
H  H73  1  0.62431865  0.82821223  0.46841979  1  0.104437  0  0.116683  0.122336  0  0.992332  0
H  H74  1  0.87567766  0.32821389  0.53157958  1  0.1044  0  0.116669  0.122284  0  0.992384  0
H  H75  1  0.12431370  0.17178409  0.03158581  1  0.104415  0  0.116689  0.122354  0  0.992429  0
H  H76  1  0.62431396  0.32821438  0.03157948  1  0.104367  0  0.116668  0.122301  0  0.992333  0
H  H77  1  0.37567668  0.17178572  0.53158337  1  0.104448  0  0.116639  0.12223  0  0.9924  0
H  H78  1  0.12431985  0.67178777  0.46841544  1  0.104515  0  0.116622  0.122247  0  0.992462  0
H  H79  1  0.87568018  0.82821334  0.96841582  1  0.104473  0  0.116639  0.122265  0  0.992473  0
H  H80  1  0.34958503  0.67266361  0.84189570  1  0.122879  0  0.119312  0.116594  0  0.987601  0
H  H81  1  0.65041497  0.82733710  0.34189531  1  0.122867  0  0.119328  0.116653  0  0.987596  0
H  H82  1  0.84958789  0.32733984  0.65810406  1  0.122935  0  0.119328  0.116643  0  0.987546  0
H  H83  1  0.15041294  0.17266171  0.15810666  1  0.122832  0  0.11932  0.116651  0  0.987571  0
H  H84  1  0.65041393  0.32733911  0.15810338  1  0.122838  0  0.119329  0.116628  0  0.987581  0
H  H85  1  0.34958254  0.17266297  0.65810581  1  0.122801  0  0.119314  0.116615  0  0.987656  0
H  H86  1  0.15041398  0.67266394  0.34189452  1  0.122818  0  0.119318  0.116662  0  0.987605  0
H  H87  1  0.84958457  0.82733466  0.84189344  1  0.122808  0  0.119333  0.116672  0  0.987597  0
H  H88  1  0.32213112  0.99987263  0.68840597  1  0.174423  0  0.115745  0.118876  0  1.020876  0
H  H89  1  0.67787264  0.50012930  0.18840478  1  0.174367  0  0.11576  0.118893  0  1.020944  0
H  H90  1  0.82213609  0.00012939  0.81159743  1  0.174337  0  0.115741  0.1189  0  1.020868  0
H  H91  1  0.17786244  0.49987412  0.31159152  1  0.174509  0  0.115748  0.11891  0  1.02076  0
H  H92  1  0.67786639  0.00012638  0.31159312  1  0.174444  0  0.115745  0.11892  0  1.020826  0
H  H93  1  0.32213214  0.49987342  0.81159329  1  0.174399  0  0.115772  0.118918  0  1.020919  0
H  H94  1  0.17787014  0.99987650  0.18840573  1  0.174373  0  0.115723  0.11885  0  1.020908  0
H  H95  1  0.82213144  0.50012384  0.68840604  1  0.174434  0  0.115722  0.118839  0  1.020855  0
H  H96  1  0.33126181  0.10623423  0.76763803  1  0.101106  0  0.114893  0.128097  0  1.013299  0
H  H97  1  0.66873841  0.39376880  0.26763600  1  0.101165  0  0.114903  0.128063  0  1.013283  0
H  H98  1  0.83126371  0.89376933  0.73236331  1  0.101162  0  0.11492  0.128128  0  1.013232  0
H  H99  1  0.16873327  0.60623202  0.23235778  1  0.101241  0  0.114914  0.128134  0  1.013247  0
H  H100  1  0.66873352  0.89376691  0.23236360  1  0.101141  0  0.114902  0.128075  0  1.013295  0
H  H101  1  0.33126055  0.60623022  0.73236156  1  0.101227  0  0.114899  0.128131  0  1.013295  0
H  H102  1  0.16873962  0.10623074  0.26763934  1  0.101169  0  0.114913  0.128123  0  1.013312  0
H  H103  1  0.83126206  0.39376276  0.76764182  1  0.101055  0  0.114851  0.12806  0  1.013331  0
H  H104  1  0.36829990  0.08535602  0.88957007  1  0.107622  0  0.127225  0.095298  0  0.97167  0
H  H105  1  0.63169311  0.41464476  0.38956761  1  0.107682  0  0.127225  0.095271  0  0.971704  0
H  H106  1  0.86830005  0.91464626  0.61043067  1  0.107746  0  0.127193  0.09528  0  0.971654  0
H  H107  1  0.13170123  0.58535629  0.11042678  1  0.107622  0  0.127212  0.095316  0  0.971661  0
H  H108  1  0.63169979  0.91464352  0.11043105  1  0.107659  0  0.127191  0.095249  0  0.971714  0
H  H109  1  0.36829713  0.58535585  0.61043097  1  0.107725  0  0.127238  0.09531  0  0.97167  0
H  H110  1  0.13170327  0.08535541  0.38957250  1  0.107641  0  0.127206  0.095289  0  0.971685  0
H  H111  1  0.86830136  0.41464590  0.88957384  1  0.107871  0  0.127196  0.095295  0  0.971653  0
H  H112  1  0.57612961  0.90406399  0.00418898  1  0.592488  0  0.303264  0.389699  0  0.91061  0
H  H113  1  0.42386645  0.59593866  0.50418670  1  0.592246  0  0.30327  0.389717  0  0.910542  0
H  H114  1  0.07612657  0.09593580  0.49581370  1  0.592366  0  0.303266  0.389721  0  0.910589  0
H  H115  1  0.92387094  0.40406223  0.99581388  1  0.59232  0  0.30327  0.389726  0  0.910558  0
H  H116  1  0.42387299  0.09593556  0.99581469  1  0.59232  0  0.303322  0.389804  0  0.910484  0
H  H117  1  0.57612379  0.40406511  0.49581289  1  0.592382  0  0.30328  0.389721  0  0.910543  0
H  H118  1  0.92387603  0.90406163  0.50418794  1  0.592347  0  0.303287  0.389743  0  0.910549  0
H  H119  1  0.07613239  0.59593309  0.00418571  1  0.592541  0  0.303292  0.389718  0  0.910599  0
C  C120  1  0.39934542  0.75253570  0.29689959  1  -0.086298  0  -0.02008  -0.027738  0  3.976279  0
C  C121  1  0.60065483  0.74746400  0.79690281  1  -0.0863  0  -0.020103  -0.027905  0  3.976434  0
C  C122  1  0.89934457  0.24746481  0.20309867  1  -0.086197  0  -0.0201  -0.027768  0  3.97634  0
C  C123  1  0.10065093  0.25253670  0.70309558  1  -0.086582  0  -0.020104  -0.027948  0  3.976569  0
C  C124  1  0.60065500  0.24746173  0.70309644  1  -0.086484  0  -0.020073  -0.027782  0  3.976353  0
C  C125  1  0.39934558  0.25253554  0.20310137  1  -0.086312  0  -0.020101  -0.027776  0  3.976334  0
C  C126  1  0.10064640  0.75253527  0.79690398  1  -0.086574  0  -0.020086  -0.027923  0  3.976397  0
C  C127  1  0.89935022  0.74746443  0.29690300  1  -0.086149  0  -0.02009  -0.027868  0  3.976552  0
C  C128  1  0.41316024  0.73414070  0.22850377  1  -0.007621  0  -0.084434  -0.088331  0  3.959846  0
C  C129  1  0.58683531  0.76585854  0.72850447  1  -0.007582  0  -0.084365  -0.088217  0  3.959652  0
C  C130  1  0.91316316  0.26585761  0.27149597  1  -0.007531  0  -0.084366  -0.088258  0  3.959581  0
C  C131  1  0.08683777  0.23414065  0.77149294  1  -0.007748  0  -0.084416  -0.088186  0  3.959799  0
C  C132  1  0.58684018  0.26585567  0.77149531  1  -0.007598  0  -0.084377  -0.088165  0  3.95951  0
C  C133  1  0.41316293  0.23414312  0.27149767  1  -0.007459  0  -0.084331  -0.088246  0  3.959539  0
C  C134  1  0.08683144  0.73414247  0.72850617  1  -0.00771  0  -0.084322  -0.088092  0  3.959531  0
C  C135  1  0.91316701  0.76585836  0.22850564  1  -0.007695  0  -0.084341  -0.08811  0  3.959403  0
C  C136  1  0.42013891  0.78645218  0.17905478  1  -0.099883  0  -0.07733  -0.073917  0  3.956582  0
C  C137  1  0.57985545  0.71354606  0.67905656  1  -0.100054  0  -0.077248  -0.073796  0  3.95654  0
C  C138  1  0.92014288  0.21354503  0.32094698  1  -0.099788  0  -0.0773  -0.073872  0  3.956411  0
C  C139  1  0.07986214  0.28645318  0.82094239  1  -0.099725  0  -0.077343  -0.073949  0  3.956379  0
C  C140  1  0.57986151  0.21354155  0.82094431  1  -0.100034  0  -0.077301  -0.073898  0  3.956607  0
C  C141  1  0.42013697  0.28645560  0.32094812  1  -0.099894  0  -0.077277  -0.073826  0  3.956511  0
C  C142  1  0.07985536  0.78645558  0.67905771  1  -0.099799  0  -0.077302  -0.073846  0  3.956474  0
C  C143  1  0.92014482  0.71354531  0.17905466  1  -0.099801  0  -0.077308  -0.073867  0  3.956329  0
C  C144  1  0.41143109  0.85767929  0.19715645  1  0.108131  0  -0.018958  -0.037777  0  3.977443  0
C  C145  1  0.58856536  0.64231841  0.69715573  1  0.108098  0  -0.019057  -0.037967  0  3.977567  0
C  C146  1  0.91143160  0.14231903  0.30284738  1  0.108026  0  -0.019004  -0.038011  0  3.97761  0
C  C147  1  0.08857279  0.35768184  0.80284372  1  0.108081  0  -0.018961  -0.037858  0  3.977362  0
C  C148  1  0.58856933  0.14231603  0.80284468  1  0.108042  0  -0.01901  -0.037934  0  3.9776  0
C  C149  1  0.41142053  0.35768008  0.30284743  1  0.108071  0  -0.018887  -0.037751  0  3.977517  0
C  C150  1  0.08856374  0.85768263  0.69715629  1  0.108044  0  -0.019  -0.037954  0  3.977553  0
C  C151  1  0.91143126  0.64231929  0.19715486  1  0.108044  0  -0.019004  -0.037936  0  3.977541  0
C  C152  1  0.39825057  0.87627904  0.26585978  1  -0.164116  0  -0.090367  -0.108553  0  3.9897  0
C  C153  1  0.60174767  0.62372069  0.76585904  1  -0.164053  0  -0.09035  -0.108485  0  3.989617  0
C  C154  1  0.89825167  0.12372200  0.23414204  1  -0.164032  0  -0.090344  -0.108448  0  3.989548  0
C  C155  1  0.10174583  0.37628000  0.73414037  1  -0.164139  0  -0.090408  -0.108656  0  3.989762  0
C  C156  1  0.60174766  0.12371892  0.73413931  1  -0.164122  0  -0.09043  -0.108579  0  3.989608  0
C  C157  1  0.39824548  0.37627832  0.23414361  1  -0.164147  0  -0.090515  -0.108798  0  3.989794  0
C  C158  1  0.10173930  0.87628019  0.76586061  1  -0.164049  0  -0.090347  -0.108522  0  3.989608  0
C  C159  1  0.89825313  0.62372166  0.26585872  1  -0.164057  0  -0.090374  -0.108559  0  3.989591  0
C  C160  1  0.39271562  0.82391359  0.31553788  1  0.01485  0  -0.092123  -0.116047  0  4.000083  0
C  C161  1  0.60728453  0.67608556  0.81553759  1  0.014849  0  -0.092123  -0.116027  0  3.999998  0
C  C162  1  0.89271568  0.17608695  0.18446192  1  0.014868  0  -0.092128  -0.116107  0  3.999957  0
C  C163  1  0.10727992  0.32391457  0.68446130  1  0.015205  0  -0.092075  -0.11588  0  4.000005  0
C  C164  1  0.60728189  0.17608331  0.68445917  1  0.015033  0  -0.092086  -0.11607  0  3.999961  0
C  C165  1  0.39271589  0.32391346  0.18446303  1  0.01488  0  -0.092064  -0.115888  0  3.999968  0
C  C166  1  0.10727311  0.82391577  0.81553971  1  0.015083  0  -0.09215  -0.115979  0  3.999942  0
C  C167  1  0.89271904  0.67608656  0.31553983  1  0.014821  0  -0.09209  -0.115938  0  4.000158  0
C  C168  1  0.38925044  0.69576715  0.34972922  1  1.55345  0  0.187153  0.548693  0  4.265276  0
C  C169  1  0.61075024  0.80422827  0.84973186  1  1.553106  0  0.187106  0.548739  0  4.265303  0
C  C170  1  0.88924780  0.30423289  0.15027059  1  1.553323  0  0.187092  0.548547  0  4.265523  0
C  C171  1  0.11075235  0.19576920  0.65026650  1  1.553486  0  0.187082  0.548569  0  4.265474  0
C  C172  1  0.61075288  0.30423028  0.65026884  1  1.553659  0  0.187074  0.548511  0  4.265541  0
C  C173  1  0.38924945  0.19576916  0.15027181  1  1.55356  0  0.187073  0.548445  0  4.265614  0
C  C174  1  0.11074753  0.69577036  0.84973207  1  1.553901  0  0.187037  0.548589  0  4.265532  0
C  C175  1  0.88925315  0.80423140  0.34973157  1  1.554008  0  0.187099  0.548552  0  4.265544  0
C  C176  1  0.41167578  0.91402830  0.14377849  1  1.532527  0  0.215061  0.586281  0  4.20278  0
C  C177  1  0.58832460  0.58597051  0.64378138  1  1.532401  0  0.21507  0.586335  0  4.202672  0
C  C178  1  0.91166863  0.08597161  0.35622177  1  1.532444  0  0.215145  0.586478  0  4.202428  0
C  C179  1  0.08833982  0.41402656  0.85622366  1  1.532493  0  0.215083  0.58635  0  4.202159  0
C  C180  1  0.58833045  0.08596808  0.85622111  1  1.532476  0  0.215203  0.586371  0  4.202467  0
C  C181  1  0.41165620  0.41402904  0.35622127  1  1.532509  0  0.215089  0.586325  0  4.202529  0
C  C182  1  0.08832961  0.91402794  0.64378037  1  1.532357  0  0.215066  0.586315  0  4.202705  0
C  C183  1  0.91167440  0.58597139  0.14378052  1  1.532437  0  0.215099  0.586398  0  4.202747  0
C  C184  1  0.20226246  0.00555221  0.03875742  1  1.5514  0  0.218587  0.594378  0  4.181673  0
C  C185  1  0.79773322  0.49444788  0.53874870  1  1.552004  0  0.218474  0.594169  0  4.182168  0
C  C186  1  0.70226268  0.99444577  0.46124543  1  1.552104  0  0.218728  0.594721  0  4.181503  0
C  C187  1  0.29774611  0.50555271  0.96124714  1  1.552011  0  0.218668  0.594838  0  4.181596  0
C  C188  1  0.79774740  0.99444151  0.96125185  1  1.552837  0  0.218628  0.594682  0  4.181957  0
C  C189  1  0.20225048  0.50555802  0.46124683  1  1.552  0  0.218803  0.595041  0  4.181379  0
C  C190  1  0.29774718  0.00555801  0.53874856  1  1.55248  0  0.218728  0.594862  0  4.181771  0
C  C191  1  0.70225867  0.49445054  0.03875348  1  1.551442  0  0.218435  0.594099  0  4.182184  0
C  C192  1  0.09733592  0.00260548  0.01963252  1  0.018456  0  -0.013765  -0.027117  0  3.970565  0
C  C193  1  0.90266059  0.49739674  0.51962046  1  0.018182  0  -0.013764  -0.027033  0  3.9704  0
C  C194  1  0.59733455  0.99739682  0.48036858  1  0.018327  0  -0.013834  -0.027254  0  3.970517  0
C  C195  1  0.40266832  0.50260798  0.98037255  1  0.018271  0  -0.013727  -0.027237  0  3.970436  0
C  C196  1  0.90267249  0.99738560  0.98037879  1  0.018086  0  -0.013669  -0.027044  0  3.970531  0
C  C197  1  0.09732311  0.50261233  0.48036947  1  0.01854  0  -0.013656  -0.027196  0  3.970521  0
C  C198  1  0.40267313  0.00261331  0.51962084  1  0.018104  0  -0.013637  -0.027047  0  3.970528  0
C  C199  1  0.59733646  0.49739898  0.01962857  1  0.017793  0  -0.013726  -0.026876  0  3.970534  0
C  C200  1  0.02657514  0.03622798  0.05937648  1  -0.111384  0  -0.08372  -0.097591  0  3.987527  0
C  C201  1  0.97341752  0.46377104  0.55936579  1  -0.112034  0  -0.083881  -0.097644  0  3.987919  0
C  C202  1  0.52657727  0.96377369  0.44062277  1  -0.110957  0  -0.083741  -0.097498  0  3.987605  0
C  C203  1  0.47342872  0.53623115  0.94062805  1  -0.110462  0  -0.083777  -0.097525  0  3.987353  0
C  C204  1  0.97343400  0.96376152  0.94063687  1  -0.111351  0  -0.083914  -0.097726  0  3.987758  0
C  C205  1  0.02656255  0.53623433  0.44062108  1  -0.110927  0  -0.083852  -0.097698  0  3.987371  0
C  C206  1  0.47343187  0.03623749  0.55936664  1  -0.1107  0  -0.083928  -0.09771  0  3.987869  0
C  C207  1  0.52657751  0.46377581  0.05937256  1  -0.111357  0  -0.083807  -0.097607  0  3.987643  0
C  C208  1  0.07029028  0.96642554  0.96032315  1  0.025756  0  -0.082106  -0.089045  0  3.964858  0
C  C209  1  0.92970689  0.53357452  0.46030854  1  0.026589  0  -0.081982  -0.088745  0  3.96456  0
C  C210  1  0.57028766  0.03357587  0.53967990  1  0.025434  0  -0.082073  -0.089039  0  3.964877  0
C  C211  1  0.42971892  0.46643110  0.03968251  1  0.026209  0  -0.082065  -0.089017  0  3.964506  0
C  C212  1  0.92971668  0.03356766  0.03968764  1  0.026501  0  -0.082061  -0.088944  0  3.964489  0
C  C213  1  0.07027464  0.46642979  0.53967731  1  0.025964  0  -0.082085  -0.088973  0  3.964582  0
C  C214  1  0.42971930  0.96643267  0.46031155  1  0.025769  0  -0.08208  -0.089009  0  3.964576  0
C  C215  1  0.57028731  0.53357533  0.96031658  1  0.025866  0  -0.082104  -0.089189  0  3.964585  0
C  C216  1  0.38667174  0.78576192  0.97345894  1  0.531071  0  0.081174  0.148912  0  3.858522  0
C  C217  1  0.61332826  0.71423707  0.47345823  1  0.531118  0  0.081192  0.14887  0  3.858456  0
C  C218  1  0.88666498  0.21423760  0.52654022  1  0.530857  0  0.081167  0.148872  0  3.858562  0
C  C219  1  0.11333585  0.28575933  0.02654231  1  0.530561  0  0.081313  0.149099  0  3.858585  0
C  C220  1  0.61333013  0.21423815  0.02654168  1  0.531001  0  0.081225  0.148966  0  3.858436  0
C  C221  1  0.38666417  0.28576036  0.52654238  1  0.530481  0  0.08119  0.148881  0  3.858558  0
C  C222  1  0.11333108  0.78576353  0.47345581  1  0.530434  0  0.081227  0.148923  0  3.85855  0
C  C223  1  0.88666965  0.71423705  0.97345678  1  0.530517  0  0.081255  0.14896  0  3.858481  0
C  C224  1  0.37444889  0.72123215  0.94005278  1  0.100366  0  -0.059398  -0.093518  0  3.904841  0
C  C225  1  0.62555202  0.77876687  0.44005148  1  0.100367  0  -0.059478  -0.09358  0  3.904832  0
C  C226  1  0.87444485  0.27876692  0.55994692  1  0.100761  0  -0.059428  -0.093491  0  3.904939  0
C  C227  1  0.12555580  0.22122945  0.05995005  1  0.100802  0  -0.059462  -0.09364  0  3.90491  0
C  C228  1  0.62555153  0.27876898  0.05994783  1  0.100469  0  -0.059451  -0.093566  0  3.904819  0
C  C229  1  0.37444622  0.22123161  0.55995168  1  0.100977  0  -0.059431  -0.09344  0  3.904858  0
C  C230  1  0.12554903  0.72123474  0.44004860  1  0.100827  0  -0.059448  -0.093482  0  3.904767  0
C  C231  1  0.87444970  0.77876798  0.94004853  1  0.100791  0  -0.059409  -0.093437  0  3.904803  0
C  C232  1  0.36016518  0.72164862  0.87016065  1  -0.100276  0  -0.037794  -0.004719  0  3.88004  0
C  C233  1  0.63983394  0.77835312  0.37015982  1  -0.100319  0  -0.037732  -0.004716  0  3.879833  0
C  C234  1  0.86016948  0.27835423  0.62983908  1  -0.100826  0  -0.037706  -0.00461  0  3.879859  0
C  C235  1  0.13983369  0.22164735  0.12984218  1  -0.100397  0  -0.037771  -0.004746  0  3.879863  0
C  C236  1  0.63983451  0.27835357  0.12983945  1  -0.100324  0  -0.037716  -0.004636  0  3.879759  0
C  C237  1  0.36016575  0.22164484  0.62984283  1  -0.100501  0  -0.037739  -0.004746  0  3.879951  0
C  C238  1  0.13983530  0.72164902  0.37015644  1  -0.100334  0  -0.037694  -0.004794  0  3.879693  0
C  C239  1  0.86016527  0.77835114  0.87015793  1  -0.100307  0  -0.037797  -0.004839  0  3.880051  0
C  C240  1  0.35819442  0.78639911  0.83540472  1  0.072804  0  -0.00705  -0.085588  0  3.965945  0
C  C241  1  0.64179908  0.71360108  0.33540343  1  0.07262  0  -0.007056  -0.085596  0  3.965625  0
C  C242  1  0.85820434  0.21360482  0.66459757  1  0.072556  0  -0.007073  -0.08574  0  3.965858  0
C  C243  1  0.14180009  0.28639778  0.16459755  1  0.072617  0  -0.00703  -0.085611  0  3.965693  0
C  C244  1  0.64180309  0.21360150  0.16459488  1  0.072511  0  -0.007085  -0.085681  0  3.9657  0
C  C245  1  0.35819771  0.28639529  0.66459872  1  0.072549  0  -0.007027  -0.08552  0  3.965693  0
C  C246  1  0.14180552  0.78639949  0.33540049  1  0.072563  0  -0.007078  -0.085524  0  3.965645  0
C  C247  1  0.85819815  0.71360070  0.83540357  1  0.072547  0  -0.007076  -0.085589  0  3.965916  0
C  C248  1  0.34311438  0.78864414  0.76078428  1  0.962274  0  0.16546  0.290339  0  3.959392  0
C  C249  1  0.65687953  0.71135878  0.26078092  1  0.962755  0  0.165388  0.290186  0  3.959457  0
C  C250  1  0.84312972  0.21135988  0.73921856  1  0.962978  0  0.165476  0.290213  0  3.959631  0
C  C251  1  0.15687938  0.28864211  0.23921900  1  0.962714  0  0.16542  0.290305  0  3.959449  0
C  C252  1  0.65688168  0.21135753  0.23921736  1  0.962711  0  0.165459  0.290293  0  3.959383  0
C  C253  1  0.34311870  0.28864235  0.73922021  1  0.962453  0  0.165432  0.290226  0  3.959438  0
C  C254  1  0.15688087  0.78864125  0.26077849  1  0.962924  0  0.165488  0.29013  0  3.959877  0
C  C255  1  0.84311886  0.71135479  0.76078059  1  0.962679  0  0.165363  0.290045  0  3.959882  0
C  C256  1  0.34339452  0.86251618  0.72572642  1  0.9335  0  0.165882  0.288956  0  3.949005  0
C  C257  1  0.65660104  0.63748518  0.22572363  1  0.933162  0  0.165971  0.289129  0  3.948865  0
C  C258  1  0.84340614  0.13748783  0.77427540  1  0.933122  0  0.165946  0.28907  0  3.949025  0
C  C259  1  0.15659913  0.36251677  0.27427527  1  0.933171  0  0.165916  0.288956  0  3.948791  0
C  C260  1  0.65659790  0.13748495  0.27427522  1  0.933134  0  0.165896  0.288936  0  3.949049  0
C  C261  1  0.34340083  0.36251384  0.77427393  1  0.933031  0  0.16591  0.289042  0  3.948952  0
C  C262  1  0.15659863  0.86251436  0.22572012  1  0.933615  0  0.165923  0.28916  0  3.949125  0
C  C263  1  0.84340637  0.63748066  0.72572331  1  0.93353  0  0.165968  0.289221  0  3.949064  0
C  C264  1  0.34791194  0.92602112  0.77021283  1  -0.086133  0  -0.004253  -0.073421  0  3.945999  0
C  C265  1  0.65208265  0.57398179  0.27021011  1  -0.086212  0  -0.004158  -0.073264  0  3.945635  0
C  C266  1  0.84792088  0.07398181  0.72979051  1  -0.086196  0  -0.004197  -0.073343  0  3.945808  0
C  C267  1  0.15208173  0.42601808  0.22978727  1  -0.08653  0  -0.004234  -0.07327  0  3.945821  0
C  C268  1  0.65208049  0.07398054  0.22978880  1  -0.086268  0  -0.00417  -0.073183  0  3.945795  0
C  C269  1  0.34792067  0.42601670  0.72979101  1  -0.086254  0  -0.004154  -0.073275  0  3.945812  0
C  C270  1  0.15208389  0.92602144  0.27021062  1  -0.086283  0  -0.004193  -0.073464  0  3.945716  0
C  C271  1  0.84792159  0.57397776  0.77021232  1  -0.086328  0  -0.004308  -0.073648  0  3.946086  0
C  C272  1  0.33639456  0.99396735  0.74274157  1  0.017361  0  -0.040314  -0.007571  0  3.858853  0
C  C273  1  0.66360309  0.50603558  0.24273990  1  0.017472  0  -0.040212  -0.007507  0  3.85899  0
C  C274  1  0.83640049  0.00603618  0.75726231  1  0.01744  0  -0.040188  -0.007445  0  3.85885  0
C  C275  1  0.16359834  0.49396474  0.25725644  1  0.017839  0  -0.040234  -0.007546  0  3.858797  0
C  C276  1  0.66360150  0.00603484  0.25725803  1  0.017509  0  -0.04027  -0.007675  0  3.858843  0
C  C277  1  0.33639806  0.49396343  0.75726021  1  0.017412  0  -0.040217  -0.007493  0  3.858894  0
C  C278  1  0.16360792  0.99396813  0.24274085  1  0.017518  0  -0.040314  -0.007565  0  3.858982  0
C  C279  1  0.83639554  0.50603110  0.74274265  1  0.017569  0  -0.040296  -0.007502  0  3.858808  0
C  C280  1  0.34172559  0.05227882  0.78580337  1  0.036878  0  -0.066753  -0.110941  0  3.907463  0
C  C281  1  0.65827163  0.44772366  0.28580183  1  0.036866  0  -0.066821  -0.110999  0  3.907697  0
C  C282  1  0.84172771  0.94772521  0.71419845  1  0.036865  0  -0.066857  -0.111116  0  3.907718  0
C  C283  1  0.15827155  0.55227564  0.21419351  1  0.035629  0  -0.066845  -0.111145  0  3.907788  0
C  C284  1  0.65827483  0.94772231  0.21419623  1  0.03679  0  -0.066775  -0.110949  0  3.907578  0
C  C285  1  0.34172516  0.55227377  0.71419777  1  0.036719  0  -0.066855  -0.111116  0  3.907691  0
C  C286  1  0.15827925  0.05227699  0.28580369  1  0.036774  0  -0.066827  -0.111043  0  3.907643  0
C  C287  1  0.84172378  0.44771967  0.78580405  1  0.036903  0  -0.066643  -0.110871  0  3.907389  0
C  C288  1  0.36145510  0.04078311  0.85465381  1  0.489889  0  0.07083  0.131024  0  3.906131  0
C  C289  1  0.63854100  0.45921823  0.35465231  1  0.489913  0  0.070861  0.131183  0  3.9063  0
C  C290  1  0.86145675  0.95922133  0.64534796  1  0.489801  0  0.070934  0.13117  0  3.906236  0
C  C291  1  0.13854435  0.54078065  0.14534206  1  0.490548  0  0.070825  0.131079  0  3.906263  0
C  C292  1  0.63854677  0.95921855  0.14534579  1  0.490003  0  0.07082  0.131069  0  3.906248  0
C  C293  1  0.36145433  0.54078025  0.64534576  1  0.4899  0  0.070835  0.131049  0  3.906201  0
C  C294  1  0.13854876  0.04078140  0.35465469  1  0.489999  0  0.070896  0.131086  0  3.906249  0
C  C295  1  0.86145389  0.45921784  0.85465499  1  0.489571  0  0.070865  0.131088  0  3.906049  0
C  C296  1  0.36455199  0.91922747  0.84058761  1  0.522004  0  0.136825  0.155596  0  3.966186  0
C  C297  1  0.63544221  0.58077377  0.34058595  1  0.52195  0  0.136756  0.155432  0  3.966301  0
C  C298  1  0.86455326  0.08077589  0.65941415  1  0.522555  0  0.136751  0.155483  0  3.966232  0
C  C299  1  0.13544757  0.41922566  0.15941097  1  0.522248  0  0.136844  0.155538  0  3.96623  0
C  C300  1  0.63544480  0.08077313  0.15941351  1  0.52196  0  0.136764  0.155471  0  3.96623  0
C  C301  1  0.36455312  0.41922525  0.65941364  1  0.522035  0  0.136832  0.15561  0  3.966175  0
C  C302  1  0.13545007  0.91922683  0.34058545  1  0.522146  0  0.136799  0.155553  0  3.966174  0
C  C303  1  0.86455576  0.58077441  0.84058761  1  0.522012  0  0.136851  0.155656  0  3.966385  0
C  C304  1  0.37029593  0.84908393  0.87315224  1  0.472725  0  0.136945  0.154603  0  3.966406  0
C  C305  1  0.62969881  0.65091622  0.37314952  1  0.47263  0  0.136891  0.154664  0  3.966419  0
C  C306  1  0.87029587  0.15091887  0.62684900  1  0.47266  0  0.136893  0.154595  0  3.966381  0
C  C307  1  0.12970223  0.34908219  0.12684946  1  0.472698  0  0.136801  0.154479  0  3.966455  0
C  C308  1  0.62970376  0.15091615  0.12684837  1  0.472814  0  0.136938  0.154586  0  3.966441  0
C  C309  1  0.37029289  0.34908015  0.62685008  1  0.472562  0  0.136892  0.154542  0  3.966262  0
C  C310  1  0.12970818  0.84908438  0.37314856  1  0.472372  0  0.136891  0.1546  0  3.966088  0
C  C311  1  0.87029673  0.65091630  0.87314912  1  0.472603  0  0.136933  0.154631  0  3.966368  0
N  N312  1  0.38426431  0.84804207  0.94088514  1  -1.214242  0  -0.302778  -0.242267  0  3.472715  0
N  N313  1  0.61573514  0.65195748  0.44088449  1  -1.214232  0  -0.302747  -0.242274  0  3.47265  0
N  N314  1  0.88425734  0.15195800  0.55911453  1  -1.214035  0  -0.302764  -0.242245  0  3.472618  0
N  N315  1  0.11574040  0.34803942  0.05911452  1  -1.214151  0  -0.302818  -0.242325  0  3.472957  0
N  N316  1  0.61573828  0.15195695  0.05911446  1  -1.214237  0  -0.302811  -0.242227  0  3.472659  0
N  N317  1  0.38425874  0.34804100  0.55911358  1  -1.21415  0  -0.302804  -0.242308  0  3.472716  0
N  N318  1  0.11574017  0.84804260  0.44088201  1  -1.213985  0  -0.302788  -0.242341  0  3.472546  0
N  N319  1  0.88426147  0.65195695  0.94088406  1  -1.214011  0  -0.302814  -0.242376  0  3.472605  0
N  N320  1  0.37333885  0.97613143  0.88145358  1  -1.230699  0  -0.305319  -0.261544  0  3.486115  0
N  N321  1  0.62665730  0.52387030  0.38145149  1  -1.23076  0  -0.305407  -0.261711  0  3.486474  0
N  N322  1  0.87333735  0.02387241  0.61854714  1  -1.231122  0  -0.305386  -0.26163  0  3.486268  0
N  N323  1  0.12666515  0.47612813  0.11854342  1  -1.230618  0  -0.305267  -0.261439  0  3.486108  0
N  N324  1  0.62666229  0.02386971  0.11854652  1  -1.23083  0  -0.305311  -0.261483  0  3.486176  0
N  N325  1  0.37333731  0.47612819  0.61854454  1  -1.230553  0  -0.305378  -0.261561  0  3.48622  0
N  N326  1  0.12666597  0.97612978  0.38145195  1  -1.23092  0  -0.305317  -0.261443  0  3.486208  0
N  N327  1  0.87333745  0.52387142  0.88145261  1  -1.230802  0  -0.305364  -0.261606  0  3.486243  0
O  O328  1  0.39249579  0.63186271  0.32467689  1  -1.165214  0  -0.347128  -0.578773  0  2.323108  0
O  O329  1  0.60751084  0.86813220  0.82468253  1  -1.16539  0  -0.347057  -0.578753  0  2.323361  0
O  O330  1  0.89249156  0.36813519  0.17532139  1  -1.16516  0  -0.347079  -0.578696  0  2.32323  0
O  O331  1  0.10751571  0.13186688  0.67531941  1  -1.165611  0  -0.347043  -0.57861  0  2.323082  0
O  O332  1  0.60750898  0.36813260  0.67531863  1  -1.165455  0  -0.347048  -0.578606  0  2.323257  0
O  O333  1  0.39248449  0.13186629  0.17532419  1  -1.165224  0  -0.347133  -0.578686  0  2.323102  0
O  O334  1  0.10750595  0.63186647  0.82468127  1  -1.165463  0  -0.34703  -0.578673  0  2.323224  0
O  O335  1  0.89249052  0.86813426  0.32468070  1  -1.165506  0  -0.347092  -0.57871  0  2.323231  0
O  O336  1  0.37801721  0.71025584  0.41121866  1  -1.162072  0  -0.337686  -0.556966  0  2.080746  0
O  O337  1  0.62197877  0.78974109  0.91122433  1  -1.161597  0  -0.337713  -0.556991  0  2.080416  0
O  O338  1  0.87801725  0.28974955  0.08878016  1  -1.162119  0  -0.337685  -0.556887  0  2.080822  0
O  O339  1  0.12197743  0.21025631  0.58877655  1  -1.162136  0  -0.337736  -0.556989  0  2.080798  0
O  O340  1  0.62198684  0.28974476  0.58877788  1  -1.16205  0  -0.337682  -0.556925  0  2.080742  0
O  O341  1  0.37802383  0.21025210  0.08878086  1  -1.162057  0  -0.337656  -0.556827  0  2.0809  0
O  O342  1  0.12198317  0.71025476  0.91122249  1  -1.162277  0  -0.337699  -0.556953  0  2.080731  0
O  O343  1  0.87802662  0.78974800  0.41122305  1  -1.162382  0  -0.337693  -0.556871  0  2.080767  0
O  O344  1  0.43121023  0.89719939  0.08264391  1  -1.181082  0  -0.314317  -0.564321  0  2.332427  0
O  O345  1  0.56879048  0.60279895  0.58264633  1  -1.180943  0  -0.314275  -0.564297  0  2.332207  0
O  O346  1  0.93119747  0.10280145  0.41735579  1  -1.180989  0  -0.314412  -0.56435  0  2.33228  0
O  O347  1  0.06881791  0.39719454  0.91735876  1  -1.181099  0  -0.314342  -0.564188  0  2.332147  0
O  O348  1  0.56880326  0.10279751  0.91735569  1  -1.18098  0  -0.314431  -0.56427  0  2.332249  0
O  O349  1  0.43118378  0.39719743  0.41735530  1  -1.181007  0  -0.314371  -0.564216  0  2.332262  0
O  O350  1  0.06879859  0.89720074  0.58264635  1  -1.180929  0  -0.314355  -0.564259  0  2.33231  0
O  O351  1  0.93120939  0.60280183  0.08264796  1  -1.180982  0  -0.314341  -0.564347  0  2.332298  0
O  O352  1  0.39167108  0.97622857  0.16504749  1  -1.168999  0  -0.319384  -0.547938  0  2.365064  0
O  O353  1  0.60832918  0.52377286  0.66504835  1  -1.169056  0  -0.319392  -0.547886  0  2.365059  0
O  O354  1  0.89166911  0.02377198  0.33495283  1  -1.16904  0  -0.319421  -0.548026  0  2.364895  0
O  O355  1  0.10833001  0.47622780  0.83495562  1  -1.168938  0  -0.319374  -0.547966  0  2.364943  0
O  O356  1  0.60833006  0.02376886  0.83495415  1  -1.169088  0  -0.319389  -0.547933  0  2.364941  0
O  O357  1  0.39166761  0.47622987  0.33495176  1  -1.169132  0  -0.319363  -0.547966  0  2.365021  0
O  O358  1  0.10833567  0.97622704  0.66504779  1  -1.169055  0  -0.319384  -0.547946  0  2.365105  0
O  O359  1  0.89166822  0.52377174  0.16504703  1  -1.169051  0  -0.319372  -0.547918  0  2.365117  0
O  O360  1  0.25893283  0.96353504  0.00831131  1  -1.191065  0  -0.31287  -0.55288  0  2.376544  0
O  O361  1  0.74106394  0.53646761  0.50830774  1  -1.191353  0  -0.312916  -0.552844  0  2.376794  0
O  O362  1  0.75892984  0.03646207  0.49169139  1  -1.191782  0  -0.313016  -0.553085  0  2.376575  0
O  O363  1  0.24107858  0.46353702  0.99169487  1  -1.191838  0  -0.312947  -0.553093  0  2.376447  0
O  O364  1  0.74107703  0.03646239  0.99169388  1  -1.191743  0  -0.312992  -0.553109  0  2.376547  0
O  O365  1  0.25891759  0.46353987  0.49169288  1  -1.191577  0  -0.313056  -0.553217  0  2.37627  0
O  O366  1  0.24107856  0.96353906  0.50830566  1  -1.191723  0  -0.313015  -0.553166  0  2.376487  0
O  O367  1  0.75893055  0.53646359  0.00830677  1  -1.191266  0  -0.312838  -0.552753  0  2.376648  0
O  O368  1  0.22656338  0.05152452  0.08399631  1  -1.167577  0  -0.31951  -0.564005  0  2.331666  0
O  O369  1  0.77343278  0.44847129  0.58398464  1  -1.167963  0  -0.319356  -0.56388  0  2.331906  0
O  O370  1  0.72656582  0.94847173  0.41600699  1  -1.167572  0  -0.319476  -0.564093  0  2.331703  0
O  O371  1  0.27344177  0.55151938  0.91600464  1  -1.16768  0  -0.319449  -0.564135  0  2.331808  0
O  O372  1  0.77344430  0.94847609  0.91600889  1  -1.168598  0  -0.319389  -0.564055  0  2.331979  0
O  O373  1  0.22655383  0.55152719  0.41600427  1  -1.167879  0  -0.319451  -0.56417  0  2.331674  0
O  O374  1  0.27344405  0.05152676  0.58399159  1  -1.168209  0  -0.319462  -0.564159  0  2.331838  0
O  O375  1  0.72656083  0.44847963  0.08399343  1  -1.167348  0  -0.319378  -0.563882  0  2.331847  0
O  O376  1  0.33081445  0.73531474  0.72632472  1  -1.044828  0  -0.223442  -0.33989  0  2.13722  0
O  O377  1  0.66918474  0.76468715  0.22632484  1  -1.044979  0  -0.223391  -0.339776  0  2.137426  0
O  O378  1  0.83083845  0.26468776  0.77368019  1  -1.045193  0  -0.223489  -0.339751  0  2.13753  0
O  O379  1  0.16918064  0.23531367  0.27367504  1  -1.044954  0  -0.223453  -0.339855  0  2.137479  0
O  O380  1  0.66918234  0.26468639  0.27367335  1  -1.044904  0  -0.223476  -0.339836  0  2.137348  0
O  O381  1  0.33081858  0.23531028  0.77367781  1  -1.044559  0  -0.22344  -0.339811  0  2.13725  0
O  O382  1  0.16917505  0.73531813  0.22631941  1  -1.045018  0  -0.22348  -0.33979  0  2.137906  0
O  O383  1  0.83081978  0.76467900  0.72632150  1  -1.044795  0  -0.223425  -0.339752  0  2.137829  0
O  O384  1  0.34080586  0.86647649  0.66355832  1  -1.007451  0  -0.223071  -0.317841  0  2.081141  0
O  O385  1  0.65919804  0.63352388  0.16355553  1  -1.007239  0  -0.223167  -0.318003  0  2.08118  0
O  O386  1  0.84080410  0.13352860  0.83644249  1  -1.007155  0  -0.223136  -0.317957  0  2.081211  0
O  O387  1  0.15919502  0.36647753  0.33644387  1  -1.007206  0  -0.223114  -0.317916  0  2.081007  0
O  O388  1  0.65919674  0.13352412  0.33644230  1  -1.007147  0  -0.223102  -0.317886  0  2.081203  0
O  O389  1  0.34080601  0.36647619  0.83644407  1  -1.007136  0  -0.223153  -0.317975  0  2.080973  0
O  O390  1  0.15919123  0.86647518  0.16355914  1  -1.007665  0  -0.223078  -0.31785  0  2.081611  0
O  O391  1  0.84080976  0.63352308  0.66356081  1  -1.007537  0  -0.223071  -0.317853  0  2.081441  0
O  O392  1  0.55854118  0.94561430  0.97756021  1  -1.21222  0  -0.563026  -0.845613  0  2.313681  0
O  O393  1  0.44145371  0.55438363  0.47756418  1  -1.211961  0  -0.563028  -0.845635  0  2.313609  0
O  O394  1  0.05853833  0.05438136  0.52243779  1  -1.211935  0  -0.563037  -0.845686  0  2.313751  0
O  O395  1  0.94146326  0.44561610  0.02243702  1  -1.21192  0  -0.563034  -0.845662  0  2.313745  0
O  O396  1  0.44146141  0.05438260  0.02244041  1  -1.211908  0  -0.563075  -0.845759  0  2.313688  0
O  O397  1  0.55853291  0.44561804  0.52243797  1  -1.211969  0  -0.563052  -0.845662  0  2.313756  0
O  O398  1  0.94146427  0.94561448  0.47756283  1  -1.211938  0  -0.56304  -0.84567  0  2.313727  0
O  O399  1  0.05853934  0.55438186  0.97756003  1  -1.212022  0  -0.56304  -0.845611  0  2.313705  0
