# generated using pymatgen
data_Zn5H41C35N21O
_symmetry_space_group_name_H-M   'P 1'
_cell_length_a   9.59730491
_cell_length_b   24.33596982
_cell_length_c   24.77617477
_cell_angle_alpha   91.68563084
_cell_angle_beta   89.99999542
_cell_angle_gamma   90.00005422
_symmetry_Int_Tables_number   1
_chemical_formula_structural   Zn5H41C35N21O
_chemical_formula_sum   'Zn20 H164 C140 N84 O4'
_cell_volume   5784.21241145
_cell_formula_units_Z   4
loop_
 _symmetry_equiv_pos_site_id
 _symmetry_equiv_pos_as_xyz
  1  'x, y, z'
loop_
 _atom_site_type_symbol
 _atom_site_label
 _atom_site_symmetry_multiplicity
 _atom_site_fract_x
 _atom_site_fract_y
 _atom_site_fract_z
 _atom_site_occupancy
 _atom_site_pbe_bader_charge
 _atom_site_pbe_bader_spin_density
 _atom_site_pbe_cm5_charge
 _atom_site_pbe_ddec_charge
 _atom_site_pbe_ddec_spin_density
 _atom_site_pbe_ddec_sum_bond_order
 _atom_site_pbe_magmom
Zn  Zn0  1  0.96378124  0.23411060  0.31890386  1  1.188431  0  0.717945  0.625391  0  2.567599  0
Zn  Zn1  1  0.46378154  0.26588882  0.18109533  1  1.188432  0  0.717911  0.625324  0  2.567692  0
Zn  Zn2  1  0.03621935  0.76588872  0.68109577  1  1.188428  0  0.717929  0.625317  0  2.567685  0
Zn  Zn3  1  0.53621904  0.73411050  0.81890470  1  1.188441  0  0.71799  0.625448  0  2.567558  0
Zn  Zn4  1  0.74363063  0.01288690  0.27737122  1  1.185998  0  0.716188  0.622588  0  2.586581  0
Zn  Zn5  1  0.24363250  0.48711161  0.22263037  1  1.185976  0  0.716203  0.622548  0  2.586541  0
Zn  Zn6  1  0.25636787  0.98711160  0.72263000  1  1.185949  0  0.71616  0.622493  0  2.586582  0
Zn  Zn7  1  0.75636808  0.51288688  0.77737085  1  1.18601  0  0.716173  0.622533  0  2.586648  0
Zn  Zn8  1  0.23976421  0.03316609  0.13655429  1  1.187148  0  0.72378  0.629687  0  2.580887  0
Zn  Zn9  1  0.73976549  0.46683325  0.36344651  1  1.187022  0  0.72376  0.629702  0  2.580885  0
Zn  Zn10  1  0.76023533  0.96683282  0.86344654  1  1.187018  0  0.723729  0.629628  0  2.580946  0
Zn  Zn11  1  0.26023509  0.53316566  0.63655391  1  1.187162  0  0.723785  0.629726  0  2.580891  0
Zn  Zn12  1  0.32608044  0.34142916  0.48203607  1  1.184072  0  0.718095  0.623372  0  2.584011  0
Zn  Zn13  1  0.82608106  0.15857063  0.01796354  1  1.184074  0  0.718123  0.623399  0  2.584023  0
Zn  Zn14  1  0.67391910  0.65857099  0.51796358  1  1.18414  0  0.718081  0.623377  0  2.583982  0
Zn  Zn15  1  0.17391953  0.84142911  0.98203651  1  1.184068  0  0.718092  0.623328  0  2.584032  0
Zn  Zn16  1  0.44472504  0.21721847  0.68376183  1  1.184438  0  0.718303  0.615274  0  2.595567  0
Zn  Zn17  1  0.94472589  0.28278056  0.81623826  1  1.18442  0  0.718323  0.615352  0  2.595556  0
Zn  Zn18  1  0.55527346  0.78278085  0.31623821  1  1.184477  0  0.718263  0.615255  0  2.595592  0
Zn  Zn19  1  0.05527469  0.71721794  0.18376134  1  1.184434  0  0.71831  0.615283  0  2.595507  0
H  H20  1  0.17363344  0.28824620  0.23509047  1  0.062473  0  0.122546  0.081408  0  1.02531  0
H  H21  1  0.67363309  0.21175352  0.26490914  1  0.06248  0  0.122528  0.081396  0  1.02528  0
H  H22  1  0.82636818  0.71175312  0.76490996  1  0.062438  0  0.122524  0.081394  0  1.025246  0
H  H23  1  0.32636749  0.78824662  0.73509092  1  0.062485  0  0.122537  0.081399  0  1.025249  0
H  H24  1  0.20767615  0.13950587  0.31708915  1  0.109256  0  0.114654  0.109463  0  1.004277  0
H  H25  1  0.70767513  0.36049387  0.18291046  1  0.109252  0  0.114709  0.109547  0  1.0043  0
H  H26  1  0.79232548  0.86049345  0.68291088  1  0.10928  0  0.114644  0.109443  0  1.004234  0
H  H27  1  0.29232546  0.63950586  0.81708918  1  0.109255  0  0.11469  0.109528  0  1.004315  0
H  H28  1  0.44253064  0.15313982  0.25336358  1  0.099184  0  0.110509  0.107358  0  1.026884  0
H  H29  1  0.94252958  0.34686041  0.24663644  1  0.099184  0  0.110521  0.107362  0  1.026864  0
H  H30  1  0.55747098  0.84685950  0.74663645  1  0.09922  0  0.11052  0.107385  0  1.026869  0
H  H31  1  0.05747205  0.65313932  0.75336280  1  0.099255  0  0.110507  0.107374  0  1.026845  0
H  H32  1  0.94799645  0.11084826  0.27487274  1  0.082554  0  0.11964  0.071242  0  1.041308  0
H  H33  1  0.44799809  0.38915033  0.22512642  1  0.082807  0  0.119609  0.071257  0  1.041221  0
H  H34  1  0.05200517  0.88915024  0.72512686  1  0.082848  0  0.119597  0.071287  0  1.041178  0
H  H35  1  0.55200458  0.61084858  0.77487360  1  0.082586  0  0.119634  0.071289  0  1.041283  0
H  H36  1  0.73393227  0.18824685  0.40447685  1  0.091966  0  0.108594  0.099374  0  1.026994  0
H  H37  1  0.23393166  0.31175249  0.09552315  1  0.091932  0  0.108582  0.099381  0  1.026994  0
H  H38  1  0.26607040  0.81175206  0.59552236  1  0.091896  0  0.108573  0.099372  0  1.026981  0
H  H39  1  0.76606684  0.68824683  0.90447729  1  0.091943  0  0.108584  0.099381  0  1.027006  0
H  H40  1  0.62881826  0.08278216  0.38743996  1  0.085271  0  0.112229  0.104552  0  1.008273  0
H  H41  1  0.12881582  0.41721755  0.11256046  1  0.08528  0  0.112233  0.10457  0  1.00822  0
H  H42  1  0.37118441  0.91721716  0.61256007  1  0.085265  0  0.112211  0.104568  0  1.008287  0
H  H43  1  0.87118372  0.58278177  0.88744038  1  0.085257  0  0.112224  0.104544  0  1.008266  0
H  H44  1  0.43506601  0.98659268  0.22909196  1  0.111059  0  0.124303  0.082839  0  1.016481  0
H  H45  1  0.93506831  0.51340502  0.27090715  1  0.111568  0  0.124327  0.082893  0  1.016422  0
H  H46  1  0.56493354  0.01340582  0.77090765  1  0.111085  0  0.124321  0.082876  0  1.016427  0
H  H47  1  0.06493332  0.48659266  0.72909243  1  0.111052  0  0.1243  0.082837  0  1.016482  0
H  H48  1  0.73332890  0.10505846  0.18638921  1  0.108391  0  0.107185  0.096648  0  1.033823  0
H  H49  1  0.23333053  0.39494088  0.31361321  1  0.108347  0  0.107233  0.096708  0  1.033693  0
H  H50  1  0.26667065  0.89494127  0.81361245  1  0.108366  0  0.107223  0.096681  0  1.033748  0
H  H51  1  0.76667006  0.60505803  0.68638843  1  0.10839  0  0.107235  0.09671  0  1.033733  0
H  H52  1  0.49950806  0.11501919  0.12154370  1  0.11607  0  0.106355  0.098793  0  1.067714  0
H  H53  1  0.99950915  0.38498025  0.37845831  1  0.116006  0  0.106385  0.098812  0  1.067786  0
H  H54  1  0.50049148  0.88498054  0.87845796  1  0.116144  0  0.106413  0.098855  0  1.067764  0
H  H55  1  0.00049144  0.61501866  0.62154332  1  0.116077  0  0.106409  0.098865  0  1.067685  0
H  H56  1  0.94988443  0.05858265  0.18635979  1  0.123895  0  0.118829  0.07204  0  1.043329  0
H  H57  1  0.44988721  0.44141676  0.31364141  1  0.124069  0  0.118828  0.072078  0  1.043353  0
H  H58  1  0.05011303  0.94141584  0.81364102  1  0.124042  0  0.118828  0.072019  0  1.043376  0
H  H59  1  0.55011545  0.55858256  0.68635943  1  0.123893  0  0.118818  0.072028  0  1.043338  0
H  H60  1  0.21102283  0.92298876  0.21160095  1  0.112045  0  0.107167  0.106407  0  1.073126  0
H  H61  1  0.71102215  0.57701092  0.28839862  1  0.111991  0  0.107165  0.106411  0  1.073131  0
H  H62  1  0.78897463  0.07701057  0.78839908  1  0.111998  0  0.10719  0.106469  0  1.07312  0
H  H63  1  0.28897635  0.42298840  0.71160101  1  0.112032  0  0.107178  0.106452  0  1.073102  0
H  H64  1  0.98031378  0.91815115  0.28080520  1  0.082799  0  0.107356  0.098053  0  1.026415  0
H  H65  1  0.48031364  0.58184780  0.21919474  1  0.082833  0  0.107338  0.098021  0  1.026432  0
H  H66  1  0.01968367  0.08184735  0.71919480  1  0.082853  0  0.107326  0.097969  0  1.026487  0
H  H67  1  0.51968486  0.41815152  0.78080529  1  0.082809  0  0.107337  0.09801  0  1.026464  0
H  H68  1  0.53227386  0.43219499  0.45328917  1  0.10286  0  0.122746  0.083911  0  1.014205  0
H  H69  1  0.03227372  0.06780386  0.04671163  1  0.102911  0  0.122732  0.083853  0  1.014224  0
H  H70  1  0.46772568  0.56780392  0.54671086  1  0.102914  0  0.122738  0.083874  0  1.014235  0
H  H71  1  0.96772791  0.93219505  0.95328839  1  0.102955  0  0.122748  0.083883  0  1.014234  0
H  H72  1  0.47697691  0.27932960  0.37147760  1  0.092383  0  0.108468  0.101864  0  1.023218  0
H  H73  1  0.97697765  0.22066983  0.12852199  1  0.092403  0  0.108467  0.101849  0  1.023254  0
H  H74  1  0.52302263  0.72066931  0.62852283  1  0.092419  0  0.108499  0.101879  0  1.023238  0
H  H75  1  0.02302293  0.77932908  0.87147803  1  0.092374  0  0.108466  0.101849  0  1.023237  0
H  H76  1  0.68356832  0.33834377  0.32043454  1  0.112832  0  0.105665  0.100127  0  1.074608  0
H  H77  1  0.18356838  0.16165596  0.17956587  1  0.112826  0  0.105672  0.100103  0  1.074615  0
H  H78  1  0.31643227  0.66165514  0.67956588  1  0.112828  0  0.105685  0.100119  0  1.074583  0
H  H79  1  0.81643117  0.83834295  0.82043455  1  0.112846  0  0.105661  0.100107  0  1.074638  0
H  H80  1  0.36107681  0.41597281  0.59152903  1  0.129855  0  0.125879  0.084573  0  1.028029  0
H  H81  1  0.86107925  0.08402660  0.90847026  1  0.129836  0  0.12588  0.084592  0  1.027982  0
H  H82  1  0.63892274  0.58402693  0.40847021  1  0.129842  0  0.125865  0.084555  0  1.028008  0
H  H83  1  0.13892030  0.91597313  0.09152978  1  0.12982  0  0.125898  0.084612  0  1.027955  0
H  H84  1  0.11939453  0.53657950  0.51723270  1  0.070023  0  0.106951  0.09566  0  1.044446  0
H  H85  1  0.61939265  0.96342058  0.98276739  1  0.069882  0  0.106961  0.095669  0  1.04444  0
H  H86  1  0.88060606  0.46342106  0.48276777  1  0.069515  0  0.106963  0.095689  0  1.044436  0
H  H87  1  0.38060689  0.03657874  0.01723385  1  0.069895  0  0.106964  0.095664  0  1.044469  0
H  H88  1  0.15676846  0.44788983  0.44505701  1  0.10236  0  0.106697  0.098309  0  1.043701  0
H  H89  1  0.65676985  0.05211071  0.05494262  1  0.102346  0  0.106717  0.098316  0  1.043654  0
H  H90  1  0.84322900  0.55211073  0.55494265  1  0.102341  0  0.106688  0.098256  0  1.043697  0
H  H91  1  0.34323281  0.94788943  0.94505824  1  0.102418  0  0.106706  0.098269  0  1.043735  0
H  H92  1  0.22968456  0.27481988  0.37605569  1  0.114122  0  0.120537  0.076467  0  1.036536  0
H  H93  1  0.72968636  0.22517863  0.12394429  1  0.114144  0  0.120526  0.076457  0  1.036526  0
H  H94  1  0.77031394  0.72517903  0.62394434  1  0.114145  0  0.120533  0.076478  0  1.036513  0
H  H95  1  0.27031527  0.77481987  0.87605612  1  0.114127  0  0.120542  0.076473  0  1.036526  0
H  H96  1  0.99240604  0.33881252  0.50632101  1  0.095556  0  0.109814  0.100955  0  1.036429  0
H  H97  1  0.49240708  0.16118611  0.99367866  1  0.09553  0  0.109809  0.100937  0  1.036473  0
H  H98  1  0.00759454  0.66118721  0.49367863  1  0.095535  0  0.109819  0.10096  0  1.036472  0
H  H99  1  0.50759351  0.83881321  0.00632137  1  0.09553  0  0.109816  0.100945  0  1.03648  0
H  H100  1  0.81432267  0.29592227  0.42698852  1  0.111712  0  0.106984  0.099371  0  1.038389  0
H  H101  1  0.31432494  0.20407710  0.07301107  1  0.111731  0  0.106961  0.099353  0  1.038413  0
H  H102  1  0.18567583  0.70407664  0.57301150  1  0.111725  0  0.106959  0.099362  0  1.038359  0
H  H103  1  0.68567669  0.79592222  0.92698936  1  0.111722  0  0.106955  0.099348  0  1.038339  0
H  H104  1  0.29586357  0.30751203  0.60965574  1  0.139342  0  0.125328  0.090136  0  1.023063  0
H  H105  1  0.79586524  0.19248694  0.89034435  1  0.139371  0  0.125346  0.090175  0  1.023078  0
H  H106  1  0.70413493  0.69248688  0.39034429  1  0.139376  0  0.125351  0.090173  0  1.023094  0
H  H107  1  0.20413431  0.80751115  0.10965564  1  0.139397  0  0.125327  0.090149  0  1.023077  0
H  H108  1  0.58470504  0.26290601  0.48768185  1  0.081445  0  0.106593  0.096619  0  1.038766  0
H  H109  1  0.08470427  0.23709410  0.01231818  1  0.081563  0  0.106598  0.096635  0  1.038776  0
H  H110  1  0.41529659  0.73709496  0.51231823  1  0.081569  0  0.106585  0.0966  0  1.038835  0
H  H111  1  0.91529423  0.76290563  0.98768146  1  0.08155  0  0.106575  0.096598  0  1.038782  0
H  H112  1  0.64464783  0.20559239  0.58049888  1  0.076308  0  0.114073  0.107128  0  1.008635  0
H  H113  1  0.14464816  0.29440735  0.91950083  1  0.076303  0  0.114065  0.107102  0  1.008677  0
H  H114  1  0.35535171  0.79440734  0.41950076  1  0.076302  0  0.114066  0.107116  0  1.00867  0
H  H115  1  0.85535034  0.70559239  0.08049841  1  0.076304  0  0.114077  0.107084  0  1.008664  0
H  H116  1  0.13602482  0.20858091  0.73398369  1  0.0849  0  0.121859  0.07423  0  1.023911  0
H  H117  1  0.63602362  0.29141882  0.76601723  1  0.084895  0  0.121873  0.074255  0  1.023922  0
H  H118  1  0.86397576  0.79141882  0.26601635  1  0.08492  0  0.121865  0.074252  0  1.023884  0
H  H119  1  0.36397801  0.70858132  0.23398161  1  0.084912  0  0.121882  0.074289  0  1.023885  0
H  H120  1  0.20036286  0.36628361  0.80440582  1  0.090221  0  0.113247  0.103031  0  1.010846  0
H  H121  1  0.70036233  0.13371697  0.69559352  1  0.09024  0  0.11321  0.102967  0  1.010857  0
H  H122  1  0.79963669  0.63371612  0.19559423  1  0.090209  0  0.113237  0.10302  0  1.010864  0
H  H123  1  0.29963617  0.86628359  0.30440534  1  0.090234  0  0.113216  0.102992  0  1.010788  0
H  H124  1  0.42913955  0.33710917  0.74115874  1  0.093048  0  0.109054  0.093332  0  1.045381  0
H  H125  1  0.92913909  0.16289149  0.75884059  1  0.093131  0  0.109056  0.093331  0  1.045422  0
H  H126  1  0.57085999  0.66289138  0.25884092  1  0.093113  0  0.109063  0.093343  0  1.045375  0
H  H127  1  0.07085941  0.83710824  0.24115825  1  0.093128  0  0.109076  0.093344  0  1.045396  0
H  H128  1  0.59957458  0.89535201  0.25111672  1  0.13205  0  0.125433  0.085668  0  1.018366  0
H  H129  1  0.09957761  0.60464721  0.24888446  1  0.132041  0  0.125435  0.085664  0  1.01836  0
H  H130  1  0.40042392  0.10464690  0.74888411  1  0.132041  0  0.125432  0.085695  0  1.018348  0
H  H131  1  0.90042401  0.39535170  0.75111637  1  0.13205  0  0.125446  0.08567  0  1.018355  0
H  H132  1  0.66863245  0.85931504  0.41422100  1  0.066332  0  0.112857  0.108264  0  1.012758  0
H  H133  1  0.16863248  0.64068298  0.08577933  1  0.066448  0  0.112886  0.108321  0  1.012724  0
H  H134  1  0.33136605  0.14068346  0.58577941  1  0.066425  0  0.112872  0.108284  0  1.012769  0
H  H135  1  0.83136707  0.35931511  0.91422107  1  0.066331  0  0.112851  0.108282  0  1.012698  0
H  H136  1  0.74151763  0.96825738  0.39745543  1  0.089717  0  0.11295  0.106495  0  1.010751  0
H  H137  1  0.24151739  0.53174066  0.10254611  1  0.089912  0  0.11298  0.106503  0  1.010776  0
H  H138  1  0.25848192  0.03174112  0.60254579  1  0.089894  0  0.112978  0.106524  0  1.010762  0
H  H139  1  0.75848215  0.46825701  0.89745549  1  0.089722  0  0.112947  0.106483  0  1.010717  0
H  H140  1  0.47755080  0.93326389  0.10497499  1  0.070678  0  0.108321  0.031454  0  1.017717  0
H  H141  1  0.97755008  0.56674452  0.39502483  1  0.070685  0  0.108367  0.03148  0  1.017652  0
H  H142  1  0.52244978  0.06673996  0.89502517  1  0.070787  0  0.108378  0.031499  0  1.017698  0
H  H143  1  0.02244843  0.43326179  0.60497581  1  0.070766  0  0.108337  0.031489  0  1.01765  0
H  H144  1  0.75044503  0.85130161  0.06158509  1  0.05861  0  0.102802  0.078935  0  0.984335  0
H  H145  1  0.25045229  0.64870589  0.43841027  1  0.05898  0  0.102765  0.078871  0  0.984415  0
H  H146  1  0.24955243  0.14870059  0.93841422  1  0.05904  0  0.102807  0.078956  0  0.984397  0
H  H147  1  0.74955246  0.35129919  0.56158630  1  0.059046  0  0.102795  0.078963  0  0.984339  0
H  H148  1  0.66151076  0.91481481  0.05782477  1  0.044983  0  0.102529  0.067464  0  1.017383  0
H  H149  1  0.16151267  0.58519348  0.44217304  1  0.045209  0  0.102459  0.067375  0  1.017448  0
H  H150  1  0.33849087  0.08518738  0.94217454  1  0.045024  0  0.102519  0.067512  0  1.017197  0
H  H151  1  0.83848896  0.41481284  0.55782558  1  0.045064  0  0.102499  0.067467  0  1.017272  0
H  H152  1  0.90277539  0.93220761  0.08741150  1  0.031852  0  0.087314  0.118296  0  1.02006  0
H  H153  1  0.40277100  0.56779501  0.41258614  1  0.032021  0  0.087337  0.118268  0  1.020106  0
H  H154  1  0.09722728  0.06779253  0.91258856  1  0.031887  0  0.087338  0.118343  0  1.020049  0
H  H155  1  0.59722646  0.43220678  0.58741236  1  0.031921  0  0.087285  0.118204  0  1.02008  0
H  H156  1  0.88529646  0.88776340  0.14256465  1  0.030312  0  0.085282  0.116778  0  1.013886  0
H  H157  1  0.38530053  0.61223881  0.35743177  1  0.030533  0  0.08525  0.116719  0  1.013944  0
H  H158  1  0.11470204  0.11223674  0.85743541  1  0.03031  0  0.08526  0.116748  0  1.013888  0
H  H159  1  0.61470214  0.38776257  0.64256550  1  0.030295  0  0.085258  0.116747  0  1.01387  0
H  H160  1  0.78826826  0.95002641  0.14147308  1  0.020184  0  0.086551  0.123398  0  1.012821  0
H  H161  1  0.28826384  0.54997740  0.35852419  1  0.020242  0  0.086542  0.123375  0  1.012934  0
H  H162  1  0.21173337  0.04997455  0.85852619  1  0.020197  0  0.086551  0.123416  0  1.012857  0
H  H163  1  0.71173258  0.45002521  0.64147433  1  0.020205  0  0.086538  0.123377  0  1.012878  0
H  H164  1  0.56379570  0.81753733  0.18717710  1  0.065858  0  0.103856  0.076525  0  1.014501  0
H  H165  1  0.06380307  0.68247133  0.31281952  1  0.066899  0  0.103776  0.076389  0  1.014506  0
H  H166  1  0.43620072  0.18246610  0.81282185  1  0.065893  0  0.103796  0.076461  0  1.014517  0
H  H167  1  0.93620376  0.31753498  0.68717830  1  0.065866  0  0.10381  0.076496  0  1.014502  0
H  H168  1  0.73198041  0.81036959  0.15750846  1  0.038681  0  0.102056  0.074932  0  0.993216  0
H  H169  1  0.23198467  0.68963831  0.34249095  1  0.03825  0  0.102042  0.074821  0  0.993291  0
H  H170  1  0.26801705  0.18963301  0.84249167  1  0.038636  0  0.102048  0.074888  0  0.993251  0
H  H171  1  0.76802008  0.31036718  0.65750927  1  0.03866  0  0.102057  0.074908  0  0.993259  0
H  H172  1  0.58884534  0.72708200  0.13704045  1  0.03568  0  0.084957  0.11657  0  1.024796  0
H  H173  1  0.08884354  0.77292544  0.36296016  1  0.035863  0  0.084995  0.116621  0  1.024716  0
H  H174  1  0.41115316  0.27292102  0.86296009  1  0.035772  0  0.084973  0.116574  0  1.024716  0
H  H175  1  0.91115600  0.22707964  0.63704004  1  0.035697  0  0.084956  0.116557  0  1.024731  0
H  H176  1  0.61994266  0.76185064  0.07595874  1  0.026791  0  0.08254  0.106212  0  1.032686  0
H  H177  1  0.11994076  0.73815393  0.42404098  1  0.026802  0  0.082527  0.106266  0  1.032649  0
H  H178  1  0.38005689  0.23815115  0.92404177  1  0.026763  0  0.082505  0.106174  0  1.032674  0
H  H179  1  0.88005774  0.26184950  0.57595918  1  0.026777  0  0.08253  0.106223  0  1.032687  0
H  H180  1  0.45510576  0.76806018  0.10867572  1  0.023429  0  0.086982  0.119114  0  1.013518  0
H  H181  1  0.95510439  0.73194452  0.39132238  1  0.023432  0  0.087003  0.119088  0  1.013631  0
H  H182  1  0.54489378  0.23194202  0.89132400  1  0.02345  0  0.086986  0.119097  0  1.013518  0
H  H183  1  0.04489411  0.26805891  0.60867576  1  0.023433  0  0.086999  0.119114  0  1.013537  0
C  C184  1  0.21502314  0.24969153  0.24916810  1  0.998504  0  0.11153  0.12269  0  4.01396  0
C  C185  1  0.71502497  0.25030821  0.25083151  1  0.998583  0  0.111532  0.122709  0  4.014027  0
C  C186  1  0.78497536  0.75030779  0.75083193  1  0.998582  0  0.111514  0.12264  0  4.014112  0
C  C187  1  0.28497666  0.74969152  0.74916854  1  0.998565  0  0.111535  0.122685  0  4.014  0
C  C188  1  0.23552567  0.17271257  0.29088582  1  0.325201  0  -0.021377  -0.06832  0  4.035159  0
C  C189  1  0.73552561  0.32728759  0.20911420  1  0.325196  0  -0.021417  -0.068417  0  4.035125  0
C  C190  1  0.76447491  0.82728675  0.70911462  1  0.325165  0  -0.021366  -0.068267  0  4.035121  0
C  C191  1  0.26447602  0.67271296  0.79088587  1  0.32521  0  -0.021432  -0.068437  0  4.03526  0
C  C192  1  0.35281278  0.17973280  0.25959836  1  0.34544  0  -0.020656  -0.060514  0  4.029176  0
C  C193  1  0.85281165  0.32026700  0.24040165  1  0.345306  0  -0.020629  -0.060435  0  4.029081  0
C  C194  1  0.64718885  0.82026652  0.74040167  1  0.345352  0  -0.020635  -0.060538  0  4.029099  0
C  C195  1  0.14719102  0.67973233  0.75959717  1  0.345402  0  -0.020605  -0.06049  0  4.029102  0
C  C196  1  0.87474360  0.11755960  0.30781528  1  0.986742  0  0.108672  0.12491  0  4.015562  0
C  C197  1  0.37474523  0.38243897  0.19218388  1  0.986528  0  0.108636  0.12475  0  4.01541  0
C  C198  1  0.12525803  0.88243808  0.69218430  1  0.98653  0  0.108651  0.124735  0  4.015442  0
C  C199  1  0.62525640  0.61755994  0.80781614  1  0.98675  0  0.10863  0.124638  0  4.015758  0
C  C200  1  0.76229749  0.15664536  0.37467996  1  0.364832  0  -0.024661  -0.066391  0  4.046945  0
C  C201  1  0.26229591  0.34335358  0.12532003  1  0.364797  0  -0.024689  -0.066534  0  4.047048  0
C  C202  1  0.23770831  0.84335314  0.62531965  1  0.364929  0  -0.024643  -0.066459  0  4.046881  0
C  C203  1  0.73770363  0.65664574  0.87468041  1  0.364812  0  -0.024664  -0.066498  0  4.047027  0
C  C204  1  0.71069961  0.10416485  0.36636957  1  0.323281  0  -0.024204  -0.064922  0  4.050331  0
C  C205  1  0.21069920  0.39583365  0.13363040  1  0.323543  0  -0.024118  -0.064842  0  4.050208  0
C  C206  1  0.28930202  0.89583406  0.63363045  1  0.323532  0  -0.024193  -0.064953  0  4.050307  0
C  C207  1  0.78930035  0.60416526  0.86636962  1  0.323587  0  -0.024173  -0.064883  0  4.050376  0
C  C208  1  0.48522581  0.02013492  0.20865535  1  0.963873  0  0.114598  0.130232  0  4.014781  0
C  C209  1  0.98522714  0.47986287  0.29134500  1  0.963497  0  0.114623  0.130275  0  4.014739  0
C  C210  1  0.51477269  0.97986399  0.79134507  1  0.963936  0  0.114616  0.13028  0  4.01471  0
C  C211  1  0.01477449  0.52013481  0.70865539  1  0.963869  0  0.11458  0.130215  0  4.014786  0
C  C212  1  0.63741340  0.08144164  0.18565311  1  0.280337  0  -0.026196  -0.069146  0  4.035002  0
C  C213  1  0.13741717  0.41855766  0.31434931  1  0.28027  0  -0.026234  -0.069193  0  4.034793  0
C  C214  1  0.36258406  0.91855809  0.81434895  1  0.28031  0  -0.026211  -0.069117  0  4.034737  0
C  C215  1  0.86258445  0.58144125  0.68565273  1  0.280141  0  -0.02628  -0.069256  0  4.034948  0
C  C216  1  0.52162674  0.08650419  0.15326872  1  0.382263  0  -0.022003  -0.056789  0  4.02256  0
C  C217  1  0.02163049  0.41349589  0.34673414  1  0.382199  0  -0.022046  -0.056807  0  4.022766  0
C  C218  1  0.47837072  0.91349636  0.84673378  1  0.382077  0  -0.022019  -0.056802  0  4.022692  0
C  C219  1  0.97837218  0.58650343  0.65326832  1  0.38228  0  -0.022005  -0.056804  0  4.022616  0
C  C220  1  0.98976745  0.02114138  0.20341237  1  0.961109  0  0.110395  0.123829  0  4.024885  0
C  C221  1  0.48976929  0.47885764  0.29658842  1  0.96084  0  0.110359  0.123712  0  4.024852  0
C  C222  1  0.01022896  0.97885753  0.79658805  1  0.960878  0  0.11042  0.12384  0  4.024895  0
C  C223  1  0.51023234  0.52114127  0.70341201  1  0.961105  0  0.110426  0.123843  0  4.024856  0
C  C224  1  0.12356706  0.95080402  0.21771899  1  0.418899  0  -0.024216  -0.068849  0  4.017081  0
C  C225  1  0.62356631  0.54919479  0.28228056  1  0.419016  0  -0.024214  -0.068864  0  4.017062  0
C  C226  1  0.87643040  0.04919489  0.78228103  1  0.418979  0  -0.024212  -0.068959  0  4.017166  0
C  C227  1  0.37643219  0.45080412  0.71771866  1  0.418938  0  -0.024229  -0.068921  0  4.017091  0
C  C228  1  0.00850454  0.94802602  0.25102315  1  0.262063  0  -0.027087  -0.070418  0  4.045673  0
C  C229  1  0.50850381  0.55197234  0.24897679  1  0.262065  0  -0.027058  -0.070376  0  4.045744  0
C  C230  1  0.99149188  0.05197207  0.74897644  1  0.262027  0  -0.027053  -0.070233  0  4.045738  0
C  C231  1  0.49149365  0.44802657  0.75102364  1  0.262007  0  -0.02708  -0.070351  0  4.045748  0
C  C232  1  0.54596933  0.39829810  0.42429401  1  0.959355  0  0.110372  0.125242  0  4.013728  0
C  C233  1  0.04596927  0.10170075  0.07570679  1  0.959279  0  0.110413  0.125333  0  4.013759  0
C  C234  1  0.45403021  0.60170081  0.57570642  1  0.959262  0  0.110367  0.125281  0  4.013791  0
C  C235  1  0.95403132  0.89829816  0.92429323  1  0.959277  0  0.11036  0.125203  0  4.013663  0
C  C236  1  0.51836462  0.31992935  0.38124515  1  0.29768  0  -0.028486  -0.078431  0  4.043529  0
C  C237  1  0.01836473  0.18007031  0.11875487  1  0.297684  0  -0.028515  -0.078478  0  4.043602  0
C  C238  1  0.48163492  0.68006956  0.61875528  1  0.297688  0  -0.02852  -0.078472  0  4.043623  0
C  C239  1  0.98163481  0.81992901  0.88124557  1  0.29762  0  -0.028526  -0.078483  0  4.043615  0
C  C240  1  0.62151236  0.34902449  0.35575258  1  0.351479  0  -0.023529  -0.060395  0  4.029523  0
C  C241  1  0.12151136  0.15097521  0.14424784  1  0.351491  0  -0.02353  -0.060344  0  4.02945  0
C  C242  1  0.37848822  0.65097483  0.64424786  1  0.351481  0  -0.023551  -0.060368  0  4.029464  0
C  C243  1  0.87848818  0.84902370  0.85575258  1  0.351497  0  -0.02353  -0.060409  0  4.02955  0
C  C244  1  0.30301678  0.43716152  0.56089613  1  0.942069  0  0.115423  0.12868  0  4.018251  0
C  C245  1  0.80301812  0.06283869  0.93910359  1  0.942059  0  0.115416  0.128643  0  4.018203  0
C  C246  1  0.69698276  0.56283821  0.43910311  1  0.942062  0  0.115505  0.128825  0  4.018187  0
C  C247  1  0.19698142  0.93716146  0.06089687  1  0.942046  0  0.115424  0.128684  0  4.018157  0
C  C248  1  0.17724197  0.49868816  0.52157102  1  0.342702  0  -0.025512  -0.069487  0  4.043706  0
C  C249  1  0.67724315  0.00131241  0.97842953  1  0.34285  0  -0.025525  -0.0695  0  4.043661  0
C  C250  1  0.82275862  0.50131281  0.47842987  1  0.343213  0  -0.02557  -0.069641  0  4.043804  0
C  C251  1  0.32275952  0.99868732  0.02157213  1  0.342895  0  -0.025541  -0.06958  0  4.043836  0
C  C252  1  0.19449781  0.45454515  0.48604312  1  0.308248  0  -0.024697  -0.063744  0  4.027809  0
C  C253  1  0.69450023  0.04545500  0.01395650  1  0.308287  0  -0.024687  -0.063698  0  4.027907  0
C  C254  1  0.80549965  0.54545500  0.51395694  1  0.308267  0  -0.024657  -0.063536  0  4.027855  0
C  C255  1  0.30550243  0.95454473  0.98604435  1  0.308227  0  -0.024689  -0.063598  0  4.027885  0
C  C256  1  0.14105553  0.28608494  0.40118688  1  0.96254  0  0.112907  0.127975  0  4.019117  0
C  C257  1  0.64105730  0.21391313  0.09881308  1  0.962503  0  0.112936  0.128031  0  4.019058  0
C  C258  1  0.85894297  0.71391356  0.59881313  1  0.962507  0  0.112949  0.127998  0  4.019046  0
C  C259  1  0.35894329  0.78608496  0.90118732  1  0.962515  0  0.112878  0.127957  0  4.019098  0
C  C260  1  0.01547134  0.31887048  0.46763028  1  0.341467  0  -0.020606  -0.058981  0  4.024299  0
C  C261  1  0.51547201  0.18112837  0.03236972  1  0.34151  0  -0.020581  -0.058901  0  4.024308  0
C  C262  1  0.98452820  0.68112884  0.53236935  1  0.341488  0  -0.020612  -0.058964  0  4.024313  0
C  C263  1  0.48452753  0.81887054  0.96763111  1  0.341441  0  -0.020594  -0.058918  0  4.024264  0
C  C264  1  0.92727626  0.29702320  0.42858678  1  0.318534  0  -0.021138  -0.060844  0  4.027254  0
C  C265  1  0.42727748  0.20297621  0.07141402  1  0.318441  0  -0.021115  -0.060894  0  4.02732  0
C  C266  1  0.07272328  0.70297571  0.57141365  1  0.318425  0  -0.021122  -0.060912  0  4.027268  0
C  C267  1  0.57272310  0.79702352  0.92858683  1  0.318487  0  -0.021116  -0.060877  0  4.027209  0
C  C268  1  0.38206796  0.28717810  0.58869542  1  0.936236  0  0.116061  0.131399  0  3.991213  0
C  C269  1  0.88206863  0.21282214  0.91130430  1  0.936208  0  0.11609  0.1314  0  3.991204  0
C  C270  1  0.61793158  0.71282245  0.41130425  1  0.936213  0  0.116114  0.13145  0  3.991243  0
C  C271  1  0.11793092  0.78717719  0.08869533  1  0.93633  0  0.116066  0.131316  0  3.991232  0
C  C272  1  0.53346461  0.26345591  0.52672719  1  0.331123  0  -0.027082  -0.071547  0  4.053778  0
C  C273  1  0.03346479  0.23654379  0.97327252  1  0.331023  0  -0.0271  -0.071623  0  4.053844  0
C  C274  1  0.46653598  0.73654423  0.47327246  1  0.331027  0  -0.027105  -0.071609  0  4.054009  0
C  C275  1  0.96653684  0.76345595  0.02672712  1  0.331243  0  -0.027116  -0.07164  0  4.053958  0
C  C276  1  0.56312185  0.23517398  0.57267036  1  0.376988  0  -0.021889  -0.062237  0  4.045588  0
C  C277  1  0.06312419  0.26482532  0.92732935  1  0.376919  0  -0.021865  -0.062162  0  4.045573  0
C  C278  1  0.43687665  0.76482575  0.42732929  1  0.376974  0  -0.021883  -0.062216  0  4.045675  0
C  C279  1  0.93687639  0.73517359  0.07267027  1  0.376932  0  -0.021901  -0.062163  0  4.045549  0
C  C280  1  0.18522201  0.24742496  0.74518409  1  0.972248  0  0.117323  0.13467  0  4.013851  0
C  C281  1  0.68522280  0.25257520  0.75481604  1  0.97206  0  0.117306  0.134569  0  4.013929  0
C  C282  1  0.81477649  0.75257477  0.25481515  1  0.972083  0  0.117294  0.134636  0  4.013936  0
C  C283  1  0.31477883  0.74742536  0.24518241  1  0.972223  0  0.117319  0.134615  0  4.013796  0
C  C284  1  0.22202202  0.32871305  0.78127159  1  0.348687  0  -0.016355  -0.051489  0  4.020892  0
C  C285  1  0.72202054  0.17128754  0.71872774  1  0.348698  0  -0.016411  -0.051558  0  4.020983  0
C  C286  1  0.77797857  0.67128709  0.21872766  1  0.348674  0  -0.016343  -0.051487  0  4.020896  0
C  C287  1  0.27797796  0.82871343  0.28127032  1  0.348698  0  -0.016443  -0.051552  0  4.020896  0
C  C288  1  0.33588626  0.31404870  0.75024211  1  0.361227  0  -0.016887  -0.050443  0  4.012991  0
C  C289  1  0.83588689  0.18595152  0.74975721  1  0.361147  0  -0.016847  -0.050394  0  4.013042  0
C  C290  1  0.66411328  0.68595104  0.24975713  1  0.361148  0  -0.01687  -0.050408  0  4.012924  0
C  C291  1  0.16411265  0.81404862  0.25024123  1  0.361107  0  -0.016866  -0.05042  0  4.013124  0
C  C292  1  0.62899117  0.90038499  0.29331400  1  0.943882  0  0.112622  0.12559  0  4.002098  0
C  C293  1  0.12899420  0.59961424  0.20668637  1  0.943864  0  0.112587  0.125482  0  4.002192  0
C  C294  1  0.37100733  0.09961433  0.70668644  1  0.943886  0  0.112568  0.125458  0  4.002189  0
C  C295  1  0.87100742  0.40038467  0.79331406  1  0.943875  0  0.112662  0.125656  0  4.002128  0
C  C296  1  0.66565144  0.88299749  0.37782739  1  0.363865  0  -0.024742  -0.066012  0  4.044556  0
C  C297  1  0.16565036  0.61700052  0.12217294  1  0.363854  0  -0.024785  -0.066167  0  4.04436  0
C  C298  1  0.33434915  0.11700142  0.62217263  1  0.363838  0  -0.024784  -0.066151  0  4.044415  0
C  C299  1  0.83434814  0.38299757  0.87782746  1  0.363862  0  -0.024763  -0.066089  0  4.044563  0
C  C300  1  0.70116876  0.93695202  0.36956148  1  0.357189  0  -0.025544  -0.069805  0  4.047702  0
C  C301  1  0.20116860  0.56304601  0.13043966  1  0.356843  0  -0.025541  -0.069716  0  4.047647  0
C  C302  1  0.29883078  0.06304648  0.63043934  1  0.356882  0  -0.025453  -0.069627  0  4.047561  0
C  C303  1  0.79883095  0.43695208  0.86956114  1  0.357186  0  -0.025484  -0.069678  0  4.047708  0
C  C304  1  0.48037759  0.89501436  0.12836295  1  1.371404  0  0.155794  0.29211  0  4.180424  0
C  C305  1  0.98037800  0.60499282  0.37163523  1  1.371367  0  0.155872  0.292119  0  4.180173  0
C  C306  1  0.51962300  0.10498867  0.87163720  1  1.371292  0  0.155876  0.292196  0  4.180241  0
C  C307  1  0.01962363  0.39501185  0.62836375  1  1.371289  0  0.155901  0.292199  0  4.180187  0
C  C308  1  0.71006185  0.88640871  0.08594148  1  0.283156  0  -0.061368  -0.015532  0  3.949657  0
C  C309  1  0.21006279  0.61359837  0.41405468  1  0.282756  0  -0.061167  -0.015423  0  3.949589  0
C  C310  1  0.28993977  0.11359390  0.91405784  1  0.282799  0  -0.061315  -0.01563  0  3.949538  0
C  C311  1  0.78993884  0.38640630  0.58594269  1  0.282751  0  -0.061293  -0.015643  0  3.949635  0
C  C312  1  0.82822214  0.91559248  0.11633790  1  -0.029835  0  -0.247853  -0.377752  0  3.938692  0
C  C313  1  0.32821885  0.58441217  0.38365939  1  -0.030308  0  -0.247832  -0.37764  0  3.938932  0
C  C314  1  0.17177948  0.08440848  0.88366178  1  -0.029909  0  -0.247865  -0.377787  0  3.938765  0
C  C315  1  0.67178070  0.41559044  0.61633872  1  -0.029939  0  -0.247799  -0.377583  0  3.938758  0
C  C316  1  0.62034074  0.81457014  0.14867076  1  0.326714  0  -0.064423  -0.007034  0  3.914643  0
C  C317  1  0.12034290  0.68543896  0.35132668  1  0.326026  0  -0.064387  -0.006814  0  3.913972  0
C  C318  1  0.37965776  0.18543370  0.85132860  1  0.326886  0  -0.064385  -0.006922  0  3.914409  0
C  C319  1  0.87965872  0.31456735  0.64867195  1  0.326892  0  -0.064406  -0.007024  0  3.91447  0
C  C320  1  0.56789679  0.76498112  0.11541519  1  -0.056142  0  -0.246609  -0.378956  0  3.950186  0
C  C321  1  0.06789490  0.73502549  0.38458379  1  -0.056309  0  -0.246593  -0.379062  0  3.950129  0
C  C322  1  0.43210275  0.23502108  0.88458412  1  -0.056317  0  -0.246578  -0.37894  0  3.950082  0
C  C323  1  0.93210360  0.26497959  0.61541521  1  -0.056215  0  -0.246603  -0.378972  0  3.950091  0
N  N324  1  0.14840439  0.21722018  0.28391675  1  -1.26596  0  -0.378515  -0.297531  0  3.626144  0
N  N325  1  0.64840422  0.28277954  0.21608286  1  -1.265963  0  -0.378533  -0.297574  0  3.626117  0
N  N326  1  0.85159619  0.78277873  0.71608328  1  -1.265961  0  -0.378471  -0.297481  0  3.626159  0
N  N327  1  0.35159636  0.71722019  0.78391718  1  -1.265999  0  -0.378501  -0.297467  0  3.626114  0
N  N328  1  0.33896937  0.22876327  0.23331525  1  -1.267111  0  -0.38002  -0.298826  0  3.635477  0
N  N329  1  0.83896916  0.27123652  0.26668476  1  -1.267058  0  -0.380026  -0.298843  0  3.635517  0
N  N330  1  0.66103226  0.77123606  0.76668559  1  -1.267066  0  -0.380049  -0.298842  0  3.635561  0
N  N331  1  0.16103246  0.72876321  0.73331488  1  -1.267189  0  -0.380049  -0.298847  0  3.635528  0
N  N332  1  0.86621313  0.16481041  0.33720474  1  -1.2681  0  -0.382408  -0.292536  0  3.631553  0
N  N333  1  0.36621361  0.33518774  0.16279442  1  -1.26819  0  -0.382366  -0.292375  0  3.631423  0
N  N334  1  0.13378849  0.83518768  0.66279405  1  -1.268298  0  -0.382362  -0.292383  0  3.631359  0
N  N335  1  0.63378801  0.66481076  0.83720519  1  -1.268129  0  -0.382402  -0.292375  0  3.631619  0
N  N336  1  0.78295424  0.07958293  0.32397050  1  -1.264497  0  -0.381528  -0.293948  0  3.626509  0
N  N337  1  0.28295492  0.42041560  0.17602907  1  -1.264573  0  -0.381576  -0.293895  0  3.626379  0
N  N338  1  0.21704738  0.92041598  0.67602952  1  -1.264582  0  -0.381526  -0.293849  0  3.62643  0
N  N339  1  0.71704670  0.57958331  0.82397095  1  -1.264771  0  -0.38152  -0.293798  0  3.626524  0
N  N340  1  0.61358270  0.03912260  0.22060059  1  -1.275159  0  -0.3816  -0.302376  0  3.643823  0
N  N341  1  0.11358449  0.46087587  0.27940100  1  -1.275106  0  -0.381677  -0.302481  0  3.643735  0
N  N342  1  0.38641580  0.96087590  0.77940063  1  -1.275119  0  -0.381693  -0.302513  0  3.643758  0
N  N343  1  0.88641713  0.53912222  0.72060021  1  -1.274971  0  -0.381599  -0.302359  0  3.643858  0
N  N344  1  0.42566746  0.04753235  0.16823484  1  -1.275891  0  -0.383037  -0.293345  0  3.641835  0
N  N345  1  0.92566975  0.45246706  0.33176636  1  -1.275866  0  -0.38299  -0.293346  0  3.641973  0
N  N346  1  0.57433104  0.95246738  0.83176641  1  -1.275877  0  -0.383011  -0.293358  0  3.641937  0
N  N347  1  0.07433187  0.54753185  0.66823447  1  -1.275893  0  -0.383027  -0.293328  0  3.641878  0
N  N348  1  0.92415957  0.99270800  0.24158670  1  -1.276699  0  -0.383598  -0.300951  0  3.646067  0
N  N349  1  0.42415924  0.50729093  0.25841446  1  -1.276694  0  -0.383575  -0.300868  0  3.646185  0
N  N350  1  0.07583789  0.00729050  0.75841372  1  -1.276628  0  -0.383583  -0.30096  0  3.646183  0
N  N351  1  0.57584030  0.49270798  0.74158637  1  -1.276667  0  -0.383594  -0.30093  0  3.646179  0
N  N352  1  0.11062390  0.99754626  0.18781705  1  -1.275516  0  -0.382299  -0.290435  0  3.620092  0
N  N353  1  0.61062616  0.50245379  0.31218334  1  -1.275534  0  -0.382295  -0.290432  0  3.620057  0
N  N354  1  0.88937252  0.00245265  0.81218337  1  -1.275557  0  -0.38235  -0.290431  0  3.62014  0
N  N355  1  0.38937546  0.49754635  0.68781671  1  -1.275541  0  -0.382305  -0.290451  0  3.620076  0
N  N356  1  0.63856408  0.39856354  0.38351833  1  -1.257136  0  -0.382159  -0.297454  0  3.626908  0
N  N357  1  0.13856401  0.10143535  0.11648207  1  -1.25732  0  -0.382151  -0.297464  0  3.626917  0
N  N358  1  0.36143546  0.60143537  0.61648169  1  -1.257328  0  -0.382153  -0.297486  0  3.626979  0
N  N359  1  0.86143553  0.89856315  0.88351835  1  -1.257127  0  -0.382135  -0.297347  0  3.62687  0
N  N360  1  0.47055748  0.35166242  0.42466871  1  -1.261351  0  -0.381967  -0.298578  0  3.625308  0
N  N361  1  0.97055806  0.14833701  0.07533128  1  -1.261312  0  -0.381965  -0.298558  0  3.625227  0
N  N362  1  0.52944102  0.64833690  0.57533172  1  -1.261302  0  -0.381939  -0.298533  0  3.62532  0
N  N363  1  0.02944357  0.85166190  0.92466874  1  -1.261347  0  -0.38193  -0.298474  0  3.625147  0
N  N364  1  0.24650202  0.48731177  0.56882261  1  -1.237953  0  -0.382919  -0.298462  0  3.64532  0
N  N365  1  0.74650324  0.01268801  0.93117750  1  -1.23793  0  -0.382932  -0.298524  0  3.645237  0
N  N366  1  0.75349856  0.51268796  0.43117743  1  -1.237934  0  -0.382926  -0.298484  0  3.64534  0
N  N367  1  0.25349630  0.98731172  0.06882376  1  -1.237985  0  -0.382919  -0.298456  0  3.645252  0
N  N368  1  0.27450772  0.41569097  0.51144816  1  -1.252583  0  -0.384081  -0.300685  0  3.63548  0
N  N369  1  0.77450910  0.08430882  0.98855155  1  -1.252608  0  -0.384063  -0.300625  0  3.635543  0
N  N370  1  0.72549078  0.58430918  0.48855109  1  -1.252645  0  -0.384115  -0.300832  0  3.63562  0
N  N371  1  0.22549253  0.91569091  0.01144890  1  -1.252577  0  -0.384086  -0.300709  0  3.635476  0
N  N372  1  0.15088435  0.31171893  0.44983522  1  -1.257352  0  -0.382033  -0.292871  0  3.635536  0
N  N373  1  0.65088503  0.18827955  0.05016475  1  -1.257406  0  -0.38206  -0.292938  0  3.635681  0
N  N374  1  0.84911623  0.68828080  0.55016482  1  -1.257376  0  -0.38206  -0.292921  0  3.635587  0
N  N375  1  0.34911555  0.81171895  0.94983526  1  -1.257283  0  -0.382052  -0.292905  0  3.635533  0
N  N376  1  0.00816404  0.27632241  0.38657159  1  -1.272341  0  -0.382465  -0.29399  0  3.640191  0
N  N377  1  0.50816584  0.22367643  0.11342840  1  -1.272242  0  -0.382465  -0.293951  0  3.640157  0
N  N378  1  0.99183550  0.72367609  0.61342842  1  -1.272225  0  -0.382469  -0.293914  0  3.64015  0
N  N379  1  0.49183579  0.77632248  0.88657242  1  -1.272316  0  -0.382455  -0.293982  0  3.640226  0
N  N380  1  0.41845007  0.29626348  0.53719325  1  -1.276411  0  -0.381865  -0.294565  0  3.63941  0
N  N381  1  0.91844966  0.20373636  0.96280646  1  -1.276401  0  -0.381905  -0.294582  0  3.639377  0
N  N382  1  0.58155052  0.70373667  0.46280640  1  -1.276389  0  -0.381903  -0.294562  0  3.639484  0
N  N383  1  0.08154885  0.79626255  0.03719356  1  -1.276713  0  -0.381862  -0.294468  0  3.639524  0
N  N384  1  0.46697196  0.25049474  0.61173668  1  -1.250385  0  -0.381707  -0.296679  0  3.637504  0
N  N385  1  0.96697272  0.24950470  0.88826301  1  -1.250289  0  -0.381727  -0.296714  0  3.637583  0
N  N386  1  0.53302654  0.74950499  0.38826296  1  -1.25042  0  -0.381713  -0.296687  0  3.637565  0
N  N387  1  0.03302683  0.75049421  0.11173661  1  -1.250394  0  -0.38166  -0.296605  0  3.63744  0
N  N388  1  0.31192114  0.26241725  0.72759349  1  -1.254261  0  -0.380862  -0.294237  0  3.634497  0
N  N389  1  0.81192085  0.23758255  0.77240662  1  -1.254263  0  -0.380846  -0.294187  0  3.634513  0
N  N390  1  0.68807840  0.73758249  0.27240615  1  -1.254254  0  -0.380879  -0.294279  0  3.634585  0
N  N391  1  0.18807973  0.76241718  0.22759221  1  -1.254284  0  -0.380847  -0.294166  0  3.634451  0
N  N392  1  0.12690360  0.28619136  0.77784474  1  -1.274676  0  -0.379748  -0.298328  0  3.635831  0
N  N393  1  0.62690222  0.21380920  0.72215500  1  -1.274513  0  -0.379725  -0.298214  0  3.635807  0
N  N394  1  0.87309594  0.71380879  0.22215532  1  -1.274503  0  -0.379763  -0.298356  0  3.635936  0
N  N395  1  0.37309628  0.78619136  0.27784346  1  -1.274635  0  -0.379672  -0.298288  0  3.635618  0
N  N396  1  0.62008237  0.86009477  0.32927900  1  -1.257556  0  -0.378736  -0.291558  0  3.630288  0
N  N397  1  0.12008238  0.63990404  0.17072176  1  -1.257462  0  -0.378683  -0.291436  0  3.630025  0
N  N398  1  0.37991717  0.13990455  0.67072144  1  -1.257485  0  -0.378726  -0.291488  0  3.630115  0
N  N399  1  0.87991716  0.36009445  0.82927946  1  -1.257542  0  -0.378801  -0.291656  0  3.630253  0
N  N400  1  0.67757778  0.94770572  0.31585418  1  -1.279715  0  -0.382411  -0.29097  0  3.638457  0
N  N401  1  0.17757966  0.55229353  0.18414659  1  -1.279722  0  -0.382418  -0.290921  0  3.638427  0
N  N402  1  0.32242072  0.05229360  0.68414625  1  -1.279663  0  -0.382426  -0.290963  0  3.63847  0
N  N403  1  0.82242092  0.44770538  0.81585424  1  -1.279711  0  -0.382433  -0.291021  0  3.638564  0
N  N404  1  0.60007262  0.86640443  0.12119213  1  -1.200263  0  -0.288474  -0.091678  0  3.659717  0
N  N405  1  0.10007361  0.63360301  0.37880324  1  -1.200275  0  -0.288541  -0.091458  0  3.659154  0
N  N406  1  0.39992797  0.13359818  0.87880639  1  -1.200373  0  -0.288536  -0.091628  0  3.659454  0
N  N407  1  0.89992698  0.36640207  0.62119373  1  -1.200364  0  -0.288527  -0.091564  0  3.659496  0
O  O408  1  0.38223231  0.88115948  0.15765775  1  -1.169512  0  -0.318158  -0.469639  0  2.207359  0
O  O409  1  0.88222755  0.61884807  0.34234165  1  -1.16961  0  -0.318314  -0.469805  0  2.207153  0
O  O410  1  0.61776932  0.11884436  0.84234242  1  -1.169571  0  -0.318264  -0.469771  0  2.207267  0
O  O411  1  0.11776783  0.38115742  0.65765776  1  -1.169569  0  -0.318244  -0.46977  0  2.207325  0
