# generated using pymatgen
data_Ni4H31C39N5O16
_symmetry_space_group_name_H-M   'P 1'
_cell_length_a   13.13095922
_cell_length_b   18.25396236
_cell_length_c   21.78824499
_cell_angle_alpha   89.99995664
_cell_angle_beta   103.95418987
_cell_angle_gamma   90.00000937
_symmetry_Int_Tables_number   1
_chemical_formula_structural   Ni4H31C39N5O16
_chemical_formula_sum   'Ni16 H124 C156 N20 O64'
_cell_volume   5068.34768672
_cell_formula_units_Z   4
loop_
 _symmetry_equiv_pos_site_id
 _symmetry_equiv_pos_as_xyz
  1  'x, y, z'
loop_
 _atom_site_type_symbol
 _atom_site_label
 _atom_site_symmetry_multiplicity
 _atom_site_fract_x
 _atom_site_fract_y
 _atom_site_fract_z
 _atom_site_occupancy
 _atom_site_pbe_bader_charge
 _atom_site_pbe_bader_spin_density
 _atom_site_pbe_cm5_charge
 _atom_site_pbe_ddec_charge
 _atom_site_pbe_ddec_spin_density
 _atom_site_pbe_ddec_sum_bond_order
 _atom_site_pbe_magmom
Ni  Ni0  1  0.76897847  0.71158905  0.12884779  1  1.197647  1.572674  0.647748  0.837501  1.770763  2.453146  1.56
Ni  Ni1  1  0.73102136  0.21158791  0.37115168  1  1.197609  1.572674  0.647737  0.837453  1.770762  2.453215  1.56
Ni  Ni2  1  0.23102054  0.28841152  0.87115224  1  1.197644  1.572677  0.647741  0.837497  1.770765  2.453126  1.56
Ni  Ni3  1  0.26897766  0.78841102  0.62884698  1  1.197594  1.572676  0.647714  0.837408  1.770764  2.453264  1.56
Ni  Ni4  1  0.98257946  0.77198578  0.21111875  1  1.214312  1.577533  0.629671  0.901779  1.774702  2.456566  1.564
Ni  Ni5  1  0.51742037  0.27198523  0.28888115  1  1.214267  1.577532  0.629677  0.901795  1.774702  2.456618  1.564
Ni  Ni6  1  0.01741878  0.22801425  0.78888117  1  1.214298  1.577537  0.629678  0.901797  1.774707  2.456565  1.564
Ni  Ni7  1  0.48257865  0.72801370  0.71111797  1  1.214263  1.577532  0.629642  0.9017  1.774704  2.456608  1.564
Ni  Ni8  1  0.99348432  0.61234481  0.23399441  1  1.20677  1.575613  0.631191  0.901824  1.774813  2.460167  1.562
Ni  Ni9  1  0.50651708  0.11234428  0.26600674  1  1.206777  1.575608  0.631171  0.901862  1.774809  2.460059  1.562
Ni  Ni10  1  0.00651469  0.38765576  0.76600655  1  1.206757  1.57561  0.631191  0.901845  1.774812  2.460156  1.562
Ni  Ni11  1  0.49348429  0.88765629  0.73399456  1  1.206752  1.575611  0.631164  0.901826  1.774812  2.460128  1.562
Ni  Ni12  1  0.10467945  0.64574742  0.12462893  1  1.216141  1.57764  0.641589  0.911349  1.769203  2.399855  1.562
Ni  Ni13  1  0.39532359  0.14574629  0.37537037  1  1.216172  1.577638  0.641576  0.911345  1.769201  2.399848  1.562
Ni  Ni14  1  0.89532036  0.35425096  0.87536938  1  1.21619  1.577644  0.641563  0.911321  1.769201  2.39989  1.562
Ni  Ni15  1  0.60467856  0.85425209  0.62463059  1  1.216144  1.577641  0.641571  0.911286  1.769201  2.399907  1.562
H  H16  1  0.84701486  0.96641914  0.28079139  1  0.098311  0.001113  0.109692  0.118829  0.000542  1.002303  0.001
H  H17  1  0.65298575  0.46641922  0.21920850  1  0.098315  0.001113  0.109687  0.118828  0.000542  1.002314  0.001
H  H18  1  0.15298495  0.03358362  0.71920830  1  0.098312  0.001113  0.109682  0.118853  0.000542  1.002262  0.001
H  H19  1  0.34701562  0.53357971  0.78079280  1  0.097919  0.001113  0.109694  0.118867  0.000542  1.002182  0.001
H  H20  1  0.73544504  0.06864637  0.30678705  1  0.126989  0.002186  0.112857  0.083841  0.00085  1.059202  0.002
H  H21  1  0.76455557  0.56864636  0.19321401  1  0.127007  0.002186  0.112854  0.083846  0.00085  1.059217  0.002
H  H22  1  0.26455397  0.93135475  0.69321390  1  0.127028  0.002186  0.112888  0.083853  0.00085  1.059171  0.002
H  H23  1  0.23544266  0.43135202  0.80678591  1  0.127098  0.002186  0.112852  0.083853  0.00085  1.059189  0.002
H  H24  1  0.47499994  0.99696596  0.17344226  1  0.139267  0.001777  0.122449  0.100645  0.0006  1.007818  0.002
H  H25  1  0.02499915  0.49696648  0.32655899  1  0.13933  0.001777  0.122456  0.100641  0.000601  1.007813  0.002
H  H26  1  0.52499829  0.00303407  0.82655812  1  0.139284  0.001777  0.122442  0.100614  0.0006  1.007862  0.002
H  H27  1  0.97499908  0.50303410  0.67344047  1  0.139313  0.001778  0.122437  0.100645  0.000601  1.007793  0.002
H  H28  1  0.57525983  0.89008014  0.14322111  1  0.10526  0.001086  0.111542  0.124274  0.000574  0.997182  0.0
H  H29  1  0.92473921  0.39007958  0.35677814  1  0.10527  0.001086  0.111517  0.124252  0.000574  0.997193  0.0
H  H30  1  0.42473998  0.10992207  0.85677721  1  0.10524  0.001086  0.11154  0.124278  0.000574  0.997214  0.0
H  H31  1  0.07526138  0.60992099  0.64322258  1  0.105278  0.001086  0.111546  0.124306  0.000574  0.99719  0.0
H  H32  1  0.37777210  0.64553545  0.08103250  1  0.110645  0.001105  0.111075  0.123363  0.000507  1.006887  0.001
H  H33  1  0.12222781  0.14553918  0.41896496  1  0.110721  0.001105  0.11105  0.12331  0.000507  1.006818  0.001
H  H34  1  0.62222850  0.35446074  0.91896455  1  0.110629  0.001105  0.111045  0.123312  0.000507  1.006814  0.001
H  H35  1  0.87777278  0.85446030  0.58103531  1  0.110631  0.001105  0.111066  0.123325  0.000507  1.006875  0.001
H  H36  1  0.56096554  0.63411164  0.06759844  1  0.093434  0.00174  0.11402  0.078581  0.000512  1.024434  0.001
H  H37  1  0.93903587  0.13411704  0.43239994  1  0.093802  0.00174  0.114048  0.078668  0.000512  1.024527  0.001
H  H38  1  0.43903741  0.36588236  0.93240125  1  0.09377  0.001739  0.11403  0.078641  0.000512  1.024519  0.001
H  H39  1  0.06096393  0.86588244  0.56759975  1  0.093679  0.00174  0.114045  0.078641  0.000512  1.024526  0.001
H  H40  1  0.68506832  0.71752524  0.24678866  1  0.109868  0.002818  0.118607  0.08435  0.001125  0.987989  0.001
H  H41  1  0.81492994  0.21752586  0.25321012  1  0.109822  0.002818  0.118598  0.08432  0.001125  0.988016  0.001
H  H42  1  0.31492834  0.28247533  0.75321057  1  0.109794  0.002818  0.118598  0.08435  0.001125  0.988019  0.001
H  H43  1  0.18507221  0.78247526  0.74679083  1  0.110018  0.002818  0.118609  0.084362  0.001125  0.987952  0.001
H  H44  1  0.50740951  0.72326315  0.26997304  1  0.076107  0.001148  0.112448  0.121597  0.000497  0.996974  0.001
H  H45  1  0.99258720  0.22326271  0.23002322  1  0.07607  0.001148  0.112417  0.121526  0.000498  0.996955  0.001
H  H46  1  0.49258482  0.27673523  0.73002263  1  0.076093  0.001148  0.112439  0.121535  0.000498  0.996926  0.001
H  H47  1  0.00741417  0.77673622  0.76997716  1  0.076072  0.001148  0.112411  0.121528  0.000498  0.996937  0.001
H  H48  1  0.08682018  0.84330550  0.39814464  1  0.1212  0.000985  0.109347  0.118944  0.000483  1.00623  0.0
H  H49  1  0.41317970  0.34330681  0.10185820  1  0.121183  0.000985  0.109383  0.118987  0.000483  1.006197  0.0
H  H50  1  0.91317727  0.15669453  0.60185562  1  0.121098  0.000985  0.109354  0.118963  0.000483  1.006234  0.0
H  H51  1  0.58682559  0.65669321  0.89814413  1  0.121244  0.000985  0.109382  0.119033  0.000483  1.006197  0.0
H  H52  1  0.17486254  0.86849450  0.51264208  1  0.135479  0.001918  0.111457  0.077303  0.000724  1.076322  0.002
H  H53  1  0.32513879  0.36849765  0.98736030  1  0.135419  0.001917  0.111513  0.077325  0.000724  1.07632  0.002
H  H54  1  0.82513804  0.13150552  0.48735819  1  0.135461  0.001917  0.111468  0.077304  0.000724  1.076374  0.002
H  H55  1  0.67486571  0.63150566  0.01264191  1  0.135448  0.001917  0.111465  0.077309  0.000724  1.07636  0.002
H  H56  1  0.19585738  0.64881341  0.55602992  1  0.131378  0.001846  0.119873  0.097088  0.000683  1.006913  0.001
H  H57  1  0.30414082  0.14881605  0.94397213  1  0.131467  0.001846  0.119912  0.097105  0.000683  1.006937  0.001
H  H58  1  0.80414085  0.35118606  0.44397046  1  0.131389  0.001846  0.1199  0.097124  0.000683  1.006936  0.001
H  H59  1  0.69585427  0.85118726  0.05602824  1  0.131409  0.001846  0.119902  0.0971  0.000683  1.006923  0.001
H  H60  1  0.11060429  0.61379093  0.44320294  1  0.108821  0.001295  0.112986  0.124489  0.000635  0.991787  0.001
H  H61  1  0.38939403  0.11379228  0.05679890  1  0.108884  0.001295  0.113017  0.12448  0.000635  0.991787  0.001
H  H62  1  0.88939315  0.38620965  0.55679732  1  0.108854  0.001295  0.113008  0.124518  0.000635  0.991813  0.001
H  H63  1  0.61060421  0.88620884  0.94320057  1  0.108824  0.001295  0.11301  0.124533  0.000635  0.991761  0.001
H  H64  1  0.18770760  0.41529381  0.31459725  1  0.093034  0.00125  0.111591  0.119209  0.000612  0.995312  0.001
H  H65  1  0.31229151  0.91529436  0.18540267  1  0.093057  0.00125  0.111586  0.119234  0.000612  0.995217  0.001
H  H66  1  0.81229064  0.58470238  0.68540221  1  0.093055  0.00125  0.111596  0.119243  0.000612  0.995232  0.001
H  H67  1  0.68770829  0.08470402  0.81459931  1  0.093011  0.00125  0.111605  0.119244  0.000612  0.995215  0.001
H  H68  1  0.32438492  0.31622381  0.34154653  1  0.139356  0.001948  0.123487  0.10245  0.000657  0.998801  0.001
H  H69  1  0.17561263  0.81622601  0.15845185  1  0.139352  0.001947  0.12347  0.10246  0.000657  0.998745  0.001
H  H70  1  0.67561332  0.68377348  0.65845293  1  0.139396  0.001947  0.123459  0.102393  0.000657  0.998761  0.001
H  H71  1  0.82438404  0.18377566  0.84154601  1  0.139365  0.001948  0.12346  0.102449  0.000657  0.998753  0.001
H  H72  1  0.49018043  0.40337098  0.21996698  1  0.12804  0.001756  0.117684  0.092804  0.00057  1.035862  0.002
H  H73  1  0.00981868  0.90337141  0.28003204  1  0.128046  0.001755  0.117671  0.092764  0.00057  1.035891  0.002
H  H74  1  0.50981937  0.59662959  0.78003455  1  0.127997  0.001756  0.117672  0.092791  0.00057  1.035849  0.002
H  H75  1  0.99017877  0.09662862  0.71996593  1  0.128046  0.001756  0.117694  0.092817  0.00057  1.035859  0.002
H  H76  1  0.36148276  0.50633493  0.18877123  1  0.073542  0.000938  0.106053  0.113654  0.000467  1.020168  0.0
H  H77  1  0.13851557  0.00633603  0.31122884  1  0.07368  0.000938  0.106095  0.113728  0.000467  1.020142  0.0
H  H78  1  0.63851703  0.49366509  0.81123167  1  0.073412  0.000938  0.106049  0.113648  0.000467  1.020166  0.0
H  H79  1  0.86147952  0.99366455  0.68876971  1  0.073541  0.000938  0.106056  0.113626  0.000467  1.020186  0.0
H  H80  1  0.72932164  0.54778423  0.98679842  1  0.087214  0.000824  0.105827  0.11181  0.000435  1.035549  0.0
H  H81  1  0.77068279  0.04778286  0.51320210  1  0.087181  0.000824  0.105817  0.111791  0.000435  1.03551  0.0
H  H82  1  0.27067737  0.45221470  0.01320254  1  0.08716  0.000824  0.105869  0.111851  0.000435  1.0355  0.0
H  H83  1  0.22932094  0.95221661  0.48679863  1  0.087216  0.000824  0.105817  0.111798  0.000435  1.035527  0.0
H  H84  1  0.74244342  0.45729213  0.90340574  1  0.127663  0.001567  0.116349  0.085897  0.000467  1.047222  0.001
H  H85  1  0.75755785  0.95729166  0.59659543  1  0.127617  0.001567  0.116369  0.08588  0.000467  1.047289  0.001
H  H86  1  0.25755560  0.54270680  0.09659476  1  0.127159  0.001568  0.116365  0.085893  0.000467  1.047247  0.001
H  H87  1  0.24244352  0.04270837  0.40340495  1  0.127654  0.001567  0.116365  0.085891  0.000467  1.047248  0.001
H  H88  1  0.01229384  0.36658780  0.01451407  1  0.155497  0.001701  0.116981  0.089727  0.000634  1.063017  0.001
H  H89  1  0.48770841  0.86658810  0.48548543  1  0.155552  0.001701  0.116995  0.089727  0.000634  1.062994  0.001
H  H90  1  0.98770754  0.63341222  0.98548539  1  0.155528  0.001701  0.116974  0.089703  0.000634  1.06301  0.001
H  H91  1  0.51229453  0.13341138  0.51451427  1  0.155559  0.001701  0.116993  0.089712  0.000634  1.06301  0.001
H  H92  1  0.01489146  0.45808899  0.10196389  1  0.097714  0.000895  0.11222  0.123214  0.000337  1.002377  0.0
H  H93  1  0.48511156  0.95808937  0.39803658  1  0.097727  0.000895  0.112251  0.123253  0.000337  1.002359  0.0
H  H94  1  0.98510991  0.54191158  0.89803557  1  0.097709  0.000895  0.112233  0.123242  0.000337  1.002345  0.0
H  H95  1  0.51489059  0.04191121  0.60196437  1  0.097696  0.000895  0.112215  0.123212  0.000337  1.002384  0.0
H  H96  1  0.84986464  0.69852827  0.25016843  1  0.576693  0.001741  0.299043  0.368977  0.001721  0.928004  0.001
H  H97  1  0.65013519  0.19852833  0.24983106  1  0.576675  0.001742  0.299071  0.369034  0.001721  0.927854  0.001
H  H98  1  0.15013437  0.30147175  0.74983161  1  0.576707  0.001742  0.299036  0.368961  0.001721  0.928023  0.001
H  H99  1  0.34986462  0.80147170  0.75016864  1  0.576684  0.001742  0.299064  0.369031  0.001721  0.927871  0.001
H  H100  1  0.15639216  0.69727043  0.22925360  1  0.613829  0.000728  0.28455  0.372955  0.001503  0.962333  0.001
H  H101  1  0.34360852  0.19726775  0.27074577  1  0.613801  0.000729  0.284555  0.372966  0.001503  0.962322  0.001
H  H102  1  0.84360765  0.30273178  0.77074517  1  0.613788  0.000729  0.284541  0.372927  0.001503  0.962369  0.001
H  H103  1  0.65639128  0.80273118  0.72925484  1  0.61381  0.000729  0.284549  0.372955  0.001503  0.962322  0.001
H  H104  1  0.81875585  0.82612057  0.85166226  1  0.109419  5e-05  0.103298  0.131161  -3.6e-05  1.040407  0.0
H  H105  1  0.68124307  0.32611963  0.64833773  1  0.109386  5e-05  0.103279  0.131151  -3.6e-05  1.04044  0.0
H  H106  1  0.18124238  0.17388055  0.14833766  1  0.10941  5e-05  0.103288  0.131148  -3.6e-05  1.040398  0.0
H  H107  1  0.31875673  0.67388040  0.35166150  1  0.109366  5e-05  0.103271  0.131133  -3.6e-05  1.0404  0.0
H  H108  1  0.80593658  0.95652896  0.87704950  1  0.070177  3.8e-05  0.098768  0.097308  -3.3e-05  1.008993  0.0
H  H109  1  0.69406548  0.45652804  0.62295087  1  0.070192  3.8e-05  0.098771  0.09734  -3.3e-05  1.008964  0.0
H  H110  1  0.19406243  0.04347216  0.12295146  1  0.070184  3.8e-05  0.098773  0.09731  -3.3e-05  1.009008  0.0
H  H111  1  0.30593354  0.54347254  0.37704870  1  0.070185  3.8e-05  0.098777  0.09731  -3.3e-05  1.009009  0.0
H  H112  1  0.86148129  0.00141847  0.98743262  1  0.060154  0.000217  0.101195  0.117275  7.2e-05  1.02259  0.0
H  H113  1  0.63852157  0.50141752  0.51256678  1  0.060182  0.000217  0.101209  0.117274  7.2e-05  1.022564  0.0
H  H114  1  0.13852086  0.99858210  0.01256834  1  0.060162  0.000217  0.101225  0.11725  7.2e-05  1.022597  0.0
H  H115  1  0.36147902  0.49858141  0.48743302  1  0.060174  0.000217  0.101196  0.117255  7.2e-05  1.022555  0.0
H  H116  1  0.76236997  0.71022737  0.85627673  1  0.096413  1.4e-05  0.098474  0.105903  -3.9e-05  1.008739  0.0
H  H117  1  0.73763288  0.21022918  0.64372254  1  0.09635  1.4e-05  0.098433  0.105829  -3.9e-05  1.008794  0.0
H  H118  1  0.23763298  0.28977210  0.14372251  1  0.096301  1.4e-05  0.098442  0.105858  -3.9e-05  1.008771  0.0
H  H119  1  0.26236535  0.78977249  0.35627646  1  0.096391  1.4e-05  0.098421  0.10582  -3.9e-05  1.008811  0.0
H  H120  1  0.84946455  0.63433097  0.87939028  1  0.04139  -4e-06  0.101051  0.104142  -3e-05  1.004049  0.0
H  H121  1  0.65053829  0.13433169  0.62061133  1  0.041343  -4e-06  0.101032  0.104123  -3e-05  1.004087  0.0
H  H122  1  0.15053760  0.36566960  0.12061022  1  0.041303  -4e-06  0.101057  0.104183  -3e-05  1.003997  0.0
H  H123  1  0.34946151  0.86566998  0.37938882  1  0.041296  -4e-06  0.101023  0.104127  -3e-05  1.004053  0.0
H  H124  1  0.89291099  0.71493486  0.84552825  1  0.07325  9.1e-05  0.098819  0.103124  5e-05  1.002557  0.0
H  H125  1  0.60709107  0.21493609  0.65447227  1  0.073242  9.1e-05  0.098816  0.103105  5e-05  1.002598  0.0
H  H126  1  0.10709117  0.28506517  0.15447087  1  0.073281  9.1e-05  0.098817  0.103133  5e-05  1.002585  0.0
H  H127  1  0.39290794  0.78506558  0.34552776  1  0.073269  9.1e-05  0.098822  0.103129  5e-05  1.002619  0.0
H  H128  1  0.96313839  0.02692678  0.08277492  1  0.070139  0.000103  0.094816  0.096492  5.4e-05  1.022128  0.0
H  H129  1  0.53686929  0.52692544  0.41722675  1  0.070209  0.000103  0.094762  0.096407  5.4e-05  1.021988  0.0
H  H130  1  0.03686769  0.97307434  0.91722570  1  0.070232  0.000103  0.094795  0.096453  5.4e-05  1.022062  0.0
H  H131  1  0.46313287  0.47307513  0.58277421  1  0.070243  0.000103  0.09481  0.096479  5.4e-05  1.022045  0.0
H  H132  1  0.95247557  0.98905100  0.15688477  1  0.034669  -5.4e-05  0.103352  0.11024  -8.8e-05  0.998918  0.0
H  H133  1  0.54753132  0.48905205  0.34311465  1  0.034484  -5.4e-05  0.103292  0.110222  -8.8e-05  0.998966  0.0
H  H134  1  0.04752973  0.01094793  0.84311389  1  0.034678  -5.4e-05  0.103277  0.110198  -8.8e-05  0.998967  0.0
H  H135  1  0.45247241  0.51095071  0.65688608  1  0.034579  -5.4e-05  0.103337  0.110266  -8.8e-05  0.99888  0.0
H  H136  1  0.83690628  0.99908829  0.09375365  1  0.059106  5.3e-05  0.094177  0.089096  1.5e-05  0.991656  0.0
H  H137  1  0.66310138  0.49908711  0.40624909  1  0.05897  5.3e-05  0.094192  0.089149  1.5e-05  0.991638  0.0
H  H138  1  0.16310058  0.00091118  0.90624754  1  0.058981  5.3e-05  0.094216  0.089165  1.5e-05  0.991608  0.0
H  H139  1  0.33690155  0.50091456  0.59375244  1  0.059044  5.3e-05  0.094189  0.089086  1.5e-05  0.99158  0.0
C  C140  1  0.77838651  0.85467576  0.19593655  1  1.604367  -0.003074  0.215188  0.572066  -0.003598  4.189984  -0.003
C  C141  1  0.72161175  0.35467687  0.30406306  1  1.604359  -0.003074  0.215161  0.572076  -0.003598  4.189954  -0.003
C  C142  1  0.22161172  0.14532536  0.80406383  1  1.604355  -0.003075  0.215217  0.572077  -0.003599  4.189865  -0.003
C  C143  1  0.27838884  0.64532370  0.69593720  1  1.604408  -0.003075  0.215127  0.572025  -0.003598  4.190088  -0.003
C  C144  1  0.71847737  0.91993775  0.21050763  1  0.041127  0.003749  -0.001665  0.010009  0.000541  3.967629  0.004
C  C145  1  0.78152168  0.41993778  0.28949160  1  0.041133  0.003749  -0.001646  0.009948  0.000541  3.967526  0.004
C  C146  1  0.28152166  0.08006502  0.78949057  1  0.041234  0.003749  -0.00162  0.010127  0.000541  3.967552  0.004
C  C147  1  0.21847969  0.58006170  0.71050878  1  0.041108  0.003749  -0.001663  0.010032  0.00054  3.967555  0.004
C  C148  1  0.76464334  0.97139122  0.25626460  1  -0.090021  0.005747  -0.083024  -0.145838  0.003003  3.960164  0.005
C  C149  1  0.73535648  0.47139238  0.24373564  1  -0.09001  0.005747  -0.08302  -0.145799  0.003002  3.960195  0.005
C  C150  1  0.23535647  0.02860990  0.74373510  1  -0.090114  0.005747  -0.083068  -0.145975  0.003002  3.960178  0.005
C  C151  1  0.26464253  0.52860655  0.75626486  1  -0.089595  0.005747  -0.083036  -0.145897  0.003002  3.960107  0.005
C  C152  1  0.70343327  0.02787770  0.27081082  1  0.52578  -0.004825  0.039251  0.083064  -0.00556  3.9372  -0.003
C  C153  1  0.79656735  0.52787821  0.22918935  1  0.525351  -0.004823  0.03921  0.082976  -0.00556  3.937192  -0.003
C  C154  1  0.29656653  0.97212397  0.72918888  1  0.52545  -0.004823  0.039236  0.083102  -0.005559  3.937122  -0.003
C  C155  1  0.20343088  0.47212236  0.77081149  1  0.525255  -0.004824  0.039254  0.083042  -0.00556  3.937061  -0.003
C  C156  1  0.55736989  0.98750938  0.19583005  1  0.489744  -0.006139  0.046747  0.095071  -0.007337  3.93764  -0.004
C  C157  1  0.94262836  0.48750941  0.30417086  1  0.489581  -0.006138  0.046699  0.095021  -0.007336  3.937745  -0.004
C  C158  1  0.44262834  0.01249284  0.80417033  1  0.489838  -0.006138  0.046745  0.095075  -0.007336  3.937726  -0.004
C  C159  1  0.05737066  0.51249225  0.69582964  1  0.489564  -0.006138  0.046691  0.095002  -0.007336  3.937803  -0.004
C  C160  1  0.61299911  0.92920205  0.17929089  1  -0.123829  0.00487  -0.083315  -0.152392  0.002543  3.968302  0.004
C  C161  1  0.88699992  0.42920261  0.32070971  1  -0.123767  0.00487  -0.083268  -0.152303  0.002543  3.968125  0.004
C  C162  1  0.38699991  0.07079962  0.82070823  1  -0.123607  0.00487  -0.083355  -0.152462  0.002543  3.968382  0.004
C  C163  1  0.11299987  0.57079796  0.67929181  1  -0.12372  0.00487  -0.083352  -0.152488  0.002543  3.968279  0.004
C  C164  1  0.31693546  0.69472417  0.18452541  1  1.608803  0.001633  0.202446  0.555122  0.000943  4.228741  0.001
C  C165  1  0.18306602  0.19471595  0.31547041  1  1.608897  0.001633  0.202405  0.555052  0.000942  4.229109  0.001
C  C166  1  0.68306436  0.30528407  0.81547015  1  1.6089  0.001634  0.202366  0.554868  0.000943  4.229019  0.001
C  C167  1  0.81693614  0.80528134  0.68452963  1  1.608809  0.001634  0.202427  0.555061  0.000942  4.229175  0.001
C  C168  1  0.42802498  0.68649309  0.17636791  1  0.006775  0.003711  0.006247  0.029319  0.000944  3.920616  0.003
C  C169  1  0.07197258  0.18649416  0.32362872  1  0.006623  0.003711  0.006212  0.029132  0.000944  3.920703  0.003
C  C170  1  0.57197013  0.31350639  0.82362789  1  0.006591  0.003711  0.006215  0.029172  0.000944  3.920721  0.003
C  C171  1  0.92802722  0.81350477  0.67637143  1  0.006578  0.003711  0.006226  0.02916  0.000944  3.920678  0.003
C  C172  1  0.44479442  0.66007693  0.11929865  1  -0.048329  0.005403  -0.081805  -0.146554  0.003128  3.948378  0.004
C  C173  1  0.05520392  0.16008124  0.38069903  1  -0.04821  0.005404  -0.081772  -0.146365  0.003128  3.948298  0.004
C  C174  1  0.55520383  0.33992035  0.88069806  1  -0.048132  0.005403  -0.081742  -0.146392  0.003128  3.948336  0.004
C  C175  1  0.94479588  0.83991988  0.61930112  1  -0.04813  0.005403  -0.081802  -0.146454  0.003128  3.948354  0.004
C  C176  1  0.54649684  0.65468085  0.11159568  1  0.490553  -0.000392  0.041876  0.08576  -0.001693  3.963881  0.0
C  C177  1  0.95350143  0.15468410  0.38840131  1  0.490301  -0.000393  0.041858  0.085623  -0.001693  3.96418  0.0
C  C178  1  0.45350375  0.34531698  0.88840321  1  0.490261  -0.000392  0.041853  0.085656  -0.001693  3.964117  0.0
C  C179  1  0.04649759  0.84531592  0.61159873  1  0.49043  -0.000392  0.041888  0.08573  -0.001693  3.964071  0.0
C  C180  1  0.61540504  0.70012081  0.21154058  1  0.43777  -0.001257  0.046349  0.093359  -0.002347  3.959161  -0.001
C  C181  1  0.88459323  0.20012414  0.28845684  1  0.437814  -0.001257  0.046331  0.093374  -0.002348  3.959238  -0.001
C  C182  1  0.38459163  0.29987757  0.78845819  1  0.43788  -0.001256  0.046307  0.093249  -0.002347  3.959302  -0.001
C  C183  1  0.11540736  0.79987588  0.71154297  1  0.437624  -0.001256  0.046281  0.093231  -0.002347  3.959228  -0.001
C  C184  1  0.51649941  0.70448643  0.22410628  1  -0.024169  0.006922  -0.077601  -0.146155  0.003799  3.946205  0.005
C  C185  1  0.98349886  0.20448595  0.27589068  1  -0.024451  0.006922  -0.077572  -0.146009  0.003799  3.946115  0.005
C  C186  1  0.48349569  0.29551524  0.77589089  1  -0.024418  0.006922  -0.077557  -0.145931  0.003799  3.94614  0.005
C  C187  1  0.01650252  0.79551463  0.72410924  1  -0.024421  0.006921  -0.077563  -0.145948  0.003799  3.946125  0.005
C  C188  1  0.04650160  0.71094412  0.34340216  1  1.578059  -0.002994  0.211538  0.567151  -0.003584  4.187245  -0.003
C  C189  1  0.45349750  0.21094484  0.15660065  1  1.578078  -0.002993  0.21159  0.567158  -0.003584  4.187291  -0.003
C  C190  1  0.95349584  0.28905426  0.65659856  1  1.578075  -0.002993  0.211478  0.56705  -0.003583  4.187384  -0.003
C  C191  1  0.54650308  0.78905464  0.84340054  1  1.578064  -0.002993  0.211525  0.567089  -0.003583  4.187278  -0.003
C  C192  1  0.09176970  0.72644977  0.41240430  1  0.024407  0.008052  0.003501  0.020615  0.004061  3.942924  0.007
C  C193  1  0.40822941  0.22645000  0.08759758  1  0.024654  0.008053  0.003504  0.02067  0.004061  3.942632  0.007
C  C194  1  0.90822775  0.27355026  0.58759504  1  0.024433  0.008053  0.003483  0.020609  0.004061  3.942917  0.007
C  C195  1  0.59177196  0.77355058  0.91240326  1  0.024596  0.008053  0.003539  0.020769  0.004061  3.942734  0.007
C  C196  1  0.10909224  0.79908604  0.43226285  1  -0.05282  0.005025  -0.083506  -0.144007  0.002798  3.971857  0.004
C  C197  1  0.39090686  0.29908684  0.06773990  1  -0.053141  0.005025  -0.083584  -0.144108  0.002797  3.971869  0.004
C  C198  1  0.89090521  0.20091343  0.56773741  1  -0.052723  0.005025  -0.08348  -0.143966  0.002798  3.971797  0.004
C  C199  1  0.60909608  0.70091428  0.93226117  1  -0.053075  0.005025  -0.083573  -0.144178  0.002797  3.971815  0.004
C  C200  1  0.15707129  0.81317940  0.49491273  1  0.397566  -0.002903  0.034897  0.066271  -0.003816  3.991824  -0.002
C  C201  1  0.34292859  0.31318243  0.00509012  1  0.397567  -0.002903  0.034933  0.066354  -0.003815  3.99167  -0.002
C  C202  1  0.84292772  0.18681953  0.50508730  1  0.397303  -0.002903  0.034906  0.066277  -0.003815  3.991871  -0.002
C  C203  1  0.65707356  0.68681924  0.99491129  1  0.39756  -0.002903  0.034916  0.06633  -0.003816  3.991674  -0.002
C  C204  1  0.16960646  0.68989382  0.51947238  1  0.428864  -0.003175  0.049102  0.094493  -0.004004  3.924409  -0.002
C  C205  1  0.33039174  0.18989588  0.98052965  1  0.428709  -0.003174  0.049012  0.094399  -0.004003  3.924478  -0.002
C  C206  1  0.83039099  0.31010565  0.48052789  1  0.428717  -0.003174  0.04908  0.094443  -0.004004  3.924528  -0.002
C  C207  1  0.66960649  0.81010579  0.01947119  1  0.428697  -0.003174  0.049111  0.094556  -0.004003  3.924447  -0.002
C  C208  1  0.12171500  0.67099165  0.45729707  1  0.013768  0.005001  -0.074528  -0.137166  0.002824  3.942752  0.004
C  C209  1  0.37828333  0.17099301  0.04270381  1  0.013874  0.005  -0.074544  -0.137132  0.002823  3.942625  0.004
C  C210  1  0.87828402  0.32900837  0.54270297  1  0.01386  0.005001  -0.07455  -0.137195  0.002824  3.942806  0.004
C  C211  1  0.62171490  0.82900811  0.95729703  1  0.013895  0.005001  -0.074569  -0.137278  0.002823  3.942697  0.004
C  C212  1  0.18264641  0.52773683  0.22667716  1  1.590019  -0.002832  0.216222  0.577735  -0.003382  4.178575  -0.003
C  C213  1  0.31735505  0.02773634  0.27332519  1  1.589988  -0.002833  0.216189  0.577817  -0.003383  4.178381  -0.003
C  C214  1  0.81735261  0.47226264  0.77332333  1  1.590133  -0.002833  0.216242  0.577732  -0.003383  4.178401  -0.003
C  C215  1  0.68264396  0.97226314  0.72667531  1  1.590019  -0.002833  0.216117  0.577626  -0.003383  4.178509  -0.003
C  C216  1  0.26334069  0.46843902  0.24869934  1  0.004005  0.004786  0.001602  0.014581  0.001399  3.948388  0.005
C  C217  1  0.23665763  0.96844005  0.25129997  1  0.003813  0.004787  0.001627  0.014563  0.001399  3.948391  0.005
C  C218  1  0.73665832  0.53155936  0.75130207  1  0.003992  0.004785  0.001616  0.014653  0.001398  3.948421  0.005
C  C219  1  0.76334060  0.03155888  0.74870041  1  0.003763  0.004787  0.001663  0.014596  0.001399  3.948439  0.005
C  C220  1  0.25418777  0.41473723  0.29286331  1  -0.029321  0.005925  -0.077942  -0.145155  0.003207  3.935983  0.005
C  C221  1  0.24580898  0.91473885  0.20713535  1  -0.028929  0.005924  -0.077898  -0.145189  0.003207  3.935983  0.005
C  C222  1  0.74580889  0.58525786  0.70713638  1  -0.02917  0.005924  -0.077911  -0.14528  0.003207  3.936077  0.005
C  C223  1  0.75419003  0.08526063  0.79286514  1  -0.028884  0.005924  -0.077937  -0.14525  0.003207  3.935937  0.005
C  C224  1  0.32988669  0.35964727  0.30809291  1  0.488318  -0.004621  0.05631  0.104686  -0.005573  3.900657  -0.003
C  C225  1  0.17011007  0.85964944  0.19190532  1  0.488151  -0.004622  0.056324  0.10476  -0.005573  3.900589  -0.003
C  C226  1  0.67011076  0.64034892  0.69190689  1  0.487654  -0.004621  0.056323  0.104836  -0.005574  3.900489  -0.003
C  C227  1  0.82988817  0.14035168  0.80809322  1  0.488251  -0.004622  0.056311  0.104761  -0.005573  3.900592  -0.003
C  C228  1  0.42206174  0.40850300  0.23971739  1  0.432667  -0.004911  0.039696  0.081222  -0.00594  3.964619  -0.003
C  C229  1  0.07793658  0.90850401  0.26028289  1  0.432905  -0.004911  0.039768  0.081358  -0.00594  3.964594  -0.003
C  C230  1  0.57793806  0.59149538  0.76028368  1  0.43294  -0.004911  0.039666  0.081182  -0.005939  3.964748  -0.003
C  C231  1  0.92205930  0.09149602  0.73971623  1  0.432658  -0.004911  0.039705  0.08121  -0.00594  3.964732  -0.003
C  C232  1  0.35054621  0.46496034  0.22255519  1  -0.030315  0.005292  -0.086193  -0.15653  0.002875  3.984056  0.004
C  C233  1  0.14945133  0.96496133  0.27744309  1  -0.030778  0.005294  -0.086308  -0.156731  0.002875  3.984231  0.004
C  C234  1  0.64945201  0.53503914  0.77744656  1  -0.030571  0.005293  -0.086139  -0.15651  0.002875  3.984086  0.004
C  C235  1  0.85054455  0.03503869  0.72255556  1  -0.030338  0.005292  -0.086236  -0.156513  0.002875  3.984293  0.004
C  C236  1  0.87767663  0.57200403  0.09805723  1  1.566401  0.014768  0.225759  0.589238  0.01116  4.134015  0.012
C  C237  1  0.62232713  0.07200176  0.40194291  1  1.566864  0.01476  0.225864  0.58943  0.011159  4.133844  0.012
C  C238  1  0.12232474  0.42799818  0.90194223  1  1.56652  0.014768  0.225739  0.589236  0.011159  4.134071  0.012
C  C239  1  0.37767424  0.92799882  0.59805747  1  1.566871  0.014761  0.225745  0.58924  0.01116  4.134084  0.012
C  C240  1  0.87352490  0.51159799  0.05072696  1  -0.030923  0.000281  -0.001935  0.004323  -0.00217  3.963275  0.001
C  C241  1  0.62647886  0.01159786  0.44927414  1  -0.030938  0.00028  -0.001951  0.004247  -0.00217  3.963319  0.001
C  C242  1  0.12647411  0.48840203  0.94927354  1  -0.030945  0.00028  -0.001916  0.004293  -0.002171  3.963419  0.001
C  C243  1  0.37352487  0.98840326  0.55072704  1  -0.030658  0.000281  -0.001928  0.004308  -0.00217  3.963365  0.001
C  C244  1  0.79382048  0.50896800  0.99509345  1  -0.040771  0.00924  -0.084793  -0.149463  0.004957  3.969228  0.006
C  C245  1  0.70618237  0.00896718  0.50490686  1  -0.040781  0.009241  -0.084813  -0.149445  0.004957  3.969202  0.006
C  C246  1  0.20617853  0.49103039  0.00490704  1  -0.040701  0.009241  -0.084831  -0.149453  0.004957  3.969208  0.006
C  C247  1  0.29381978  0.99103230  0.49509409  1  -0.041071  0.009241  -0.084779  -0.149404  0.004957  3.969164  0.006
C  C248  1  0.79988686  0.45848911  0.94859631  1  0.467866  -0.006201  0.041575  0.084277  -0.007359  3.959975  -0.004
C  C249  1  0.70011520  0.95848813  0.55140498  1  0.467903  -0.006202  0.041588  0.084274  -0.007361  3.959873  -0.004
C  C250  1  0.20011294  0.54151036  0.05140430  1  0.468338  -0.006202  0.041535  0.08417  -0.00736  3.959918  -0.004
C  C251  1  0.29988695  0.04151025  0.44859598  1  0.467863  -0.006201  0.041539  0.084221  -0.007359  3.960003  -0.004
C  C252  1  0.95231217  0.40877815  0.01027741  1  0.470218  -0.004047  0.046162  0.087042  -0.004828  3.918849  -0.003
C  C253  1  0.54769001  0.90877894  0.48972275  1  0.470231  -0.004047  0.046125  0.087015  -0.004827  3.918946  -0.003
C  C254  1  0.04768763  0.59122133  0.98972275  1  0.470215  -0.004048  0.046125  0.086986  -0.004829  3.918797  -0.003
C  C255  1  0.45231215  0.09122163  0.51027775  1  0.470202  -0.004048  0.046186  0.087114  -0.004828  3.918773  -0.003
C  C256  1  0.95226047  0.45838763  0.05886541  1  -0.022152  0.009464  -0.078551  -0.139146  0.005202  3.935701  0.007
C  C257  1  0.54774171  0.95838737  0.44113472  1  -0.022128  0.009464  -0.078619  -0.139227  0.005202  3.935768  0.007
C  C258  1  0.04774012  0.54161240  0.94113440  1  -0.022159  0.009463  -0.07854  -0.13912  0.005201  3.935714  0.007
C  C259  1  0.45226044  0.04161266  0.55886624  1  -0.022194  0.009464  -0.078545  -0.13915  0.005201  3.935702  0.007
C  C260  1  0.95266551  0.76544425  0.06725448  1  1.56091  0.009962  0.229559  0.641528  0.008105  4.100402  0.008
C  C261  1  0.54733432  0.26544357  0.43274496  1  1.561057  0.009962  0.229528  0.641446  0.008105  4.100434  0.008
C  C262  1  0.04733351  0.23455523  0.93274510  1  1.561071  0.00996  0.229676  0.641778  0.008104  4.100062  0.008
C  C263  1  0.45266548  0.73455700  0.56725427  1  1.561055  0.009962  0.229539  0.641469  0.008105  4.100381  0.008
C  C264  1  0.91169442  0.81763239  0.01349019  1  -0.000874  0.008388  -0.040331  -0.259528  0.005006  3.920234  0.006
C  C265  1  0.58830462  0.31763113  0.48650957  1  -0.001027  0.008387  -0.040315  -0.259404  0.005006  3.920293  0.006
C  C266  1  0.08830616  0.18236764  0.98651099  1  -0.000874  0.008388  -0.040334  -0.259421  0.005007  3.920372  0.006
C  C267  1  0.41169440  0.68236999  0.51348909  1  -0.001016  0.008388  -0.040352  -0.259514  0.005007  3.920287  0.006
C  C268  1  0.87938287  0.79399326  0.95002416  1  0.487352  0.003697  0.085484  0.255789  0.001992  4.035088  0.002
C  C269  1  0.62061527  0.29399130  0.54997574  1  0.487388  0.003697  0.085478  0.255651  0.001992  4.035266  0.002
C  C270  1  0.12061772  0.20600731  0.04997610  1  0.487114  0.003697  0.085449  0.255569  0.001992  4.035345  0.002
C  C271  1  0.37938532  0.70600872  0.45002315  1  0.487445  0.003697  0.085467  0.255667  0.001992  4.035289  0.002
C  C272  1  0.84261567  0.84397750  0.90072320  1  -0.038871  -0.000886  -0.126935  -0.262213  -0.001072  4.019384  -0.001
C  C273  1  0.65738639  0.34397440  0.59927770  1  -0.039191  -0.000886  -0.12693  -0.262173  -0.001072  4.019569  -0.001
C  C274  1  0.15738492  0.15602417  0.09927660  1  -0.038878  -0.000886  -0.126967  -0.262172  -0.001072  4.019394  -0.001
C  C275  1  0.34261498  0.65602508  0.40072223  1  -0.039173  -0.000886  -0.126903  -0.26212  -0.001072  4.019489  -0.001
C  C276  1  0.83572110  0.91785844  0.91528526  1  -0.030418  0.004603  -0.090813  -0.019982  0.00254  4.065641  0.003
C  C277  1  0.66428253  0.41785590  0.58471537  1  -0.030277  0.004603  -0.090815  -0.020036  0.00254  4.065712  0.003
C  C278  1  0.16427791  0.08214214  0.08471524  1  -0.030406  0.004603  -0.090805  -0.020023  0.00254  4.065654  0.003
C  C279  1  0.33571806  0.58214303  0.41528490  1  -0.03031  0.004603  -0.090823  -0.019992  0.00254  4.065737  0.003
C  C280  1  0.90472992  0.89319899  0.02631352  1  0.495854  0.004298  0.085792  0.249563  0.002361  4.056465  0.003
C  C281  1  0.59527147  0.39319719  0.47368653  1  0.495892  0.004298  0.085773  0.249496  0.002361  4.05648  0.003
C  C282  1  0.09527224  0.10680213  0.97368652  1  0.49586  0.004297  0.085746  0.249386  0.002361  4.056716  0.003
C  C283  1  0.40472990  0.60680229  0.52631293  1  0.495909  0.004298  0.085782  0.249534  0.002361  4.05637  0.003
C  C284  1  0.86586610  0.94326659  0.97741984  1  -0.064911  -0.000573  -0.130833  -0.274871  -0.000757  4.065989  -0.001
C  C285  1  0.63413438  0.44326575  0.52258123  1  -0.064981  -0.000573  -0.13081  -0.274788  -0.000757  4.065852  -0.001
C  C286  1  0.13413449  0.05673343  0.02258043  1  -0.064877  -0.000573  -0.130803  -0.274672  -0.000756  4.065999  -0.001
C  C287  1  0.36586306  0.55673482  0.47741858  1  -0.064962  -0.000573  -0.130745  -0.274761  -0.000757  4.065875  -0.001
C  C288  1  0.84435253  0.69417442  0.87640282  1  0.357102  2.8e-05  -0.139227  -0.173215  9e-06  3.894986  0.0
C  C289  1  0.65565031  0.19417568  0.62359921  1  0.35717  2.8e-05  -0.139193  -0.17315  9e-06  3.895016  0.0
C  C290  1  0.15565040  0.30582561  0.12359825  1  0.357228  2.8e-05  -0.139239  -0.173295  9e-06  3.894968  0.0
C  C291  1  0.34434871  0.80582599  0.37640037  1  0.357178  2.8e-05  -0.139209  -0.173192  9e-06  3.895071  0.0
C  C292  1  0.92160163  0.98673481  0.10552070  1  0.393443  -4.9e-05  -0.138721  -0.165463  -7.7e-05  3.901818  0.0
C  C293  1  0.57840604  0.48673418  0.39448022  1  0.393679  -4.9e-05  -0.138679  -0.165429  -7.7e-05  3.901789  0.0
C  C294  1  0.07840524  0.01326576  0.89447957  1  0.393461  -4.9e-05  -0.138684  -0.165431  -7.7e-05  3.901793  0.0
C  C295  1  0.42159768  0.51326749  0.60552097  1  0.393549  -4.9e-05  -0.138715  -0.165455  -7.7e-05  3.901606  0.0
N  N296  1  0.60095755  0.03522296  0.24192643  1  -1.224118  0.063618  -0.330046  -0.226613  0.036613  3.580239  0.057
N  N297  1  0.89904307  0.53522346  0.25807511  1  -1.223707  0.063616  -0.330018  -0.226545  0.036613  3.580176  0.057
N  N298  1  0.39904146  0.96477706  0.75807498  1  -1.224097  0.063615  -0.330045  -0.226599  0.036613  3.580138  0.057
N  N299  1  0.10095517  0.46477547  0.74192389  1  -1.223699  0.063617  -0.329997  -0.226511  0.036614  3.580126  0.057
N  N300  1  0.63132782  0.67667880  0.15589014  1  -1.214686  0.078013  -0.318871  -0.235794  0.044077  3.555227  0.069
N  N301  1  0.86867202  0.17668153  0.34410798  1  -1.214662  0.078014  -0.318836  -0.235777  0.044078  3.555475  0.069
N  N302  1  0.36867120  0.32332067  0.84410897  1  -1.214733  0.078013  -0.31884  -0.235749  0.044077  3.555268  0.069
N  N303  1  0.13132935  0.82331959  0.65589240  1  -1.214664  0.078013  -0.318815  -0.235751  0.044077  3.555326  0.069
N  N304  1  0.18775777  0.76005721  0.53825784  1  -1.213659  0.066359  -0.325231  -0.226927  0.038087  3.573764  0.059
N  N305  1  0.31224200  0.26005983  0.96174438  1  -1.213575  0.06636  -0.325275  -0.226996  0.038087  3.573499  0.059
N  N306  1  0.81224125  0.23994226  0.46174174  1  -1.213423  0.06636  -0.325253  -0.226932  0.038087  3.57378  0.059
N  N307  1  0.68775858  0.73994293  0.03825680  1  -1.213609  0.06636  -0.325266  -0.227017  0.038088  3.573643  0.059
N  N308  1  0.41244671  0.35605739  0.28165229  1  -1.203512  0.06406  -0.323427  -0.22448  0.036879  3.565402  0.058
N  N309  1  0.08754925  0.85605897  0.21834675  1  -1.203417  0.064061  -0.32347  -0.224545  0.03688  3.565308  0.058
N  N310  1  0.58754994  0.64394045  0.71834831  1  -1.202782  0.064056  -0.323438  -0.224481  0.036878  3.565225  0.058
N  N311  1  0.91244820  0.14394160  0.78165214  1  -1.203452  0.06406  -0.323437  -0.224506  0.036879  3.565321  0.058
N  N312  1  0.87963467  0.41050556  0.95475368  1  -1.196223  0.062189  -0.319632  -0.219103  0.0356  3.547372  0.055
N  N313  1  0.62036661  0.91050512  0.54524661  1  -1.196263  0.06219  -0.319573  -0.218966  0.035601  3.547251  0.055
N  N314  1  0.12036671  0.58949337  0.04524670  1  -1.196225  0.062192  -0.319621  -0.21898  0.035603  3.5473  0.055
N  N315  1  0.37963397  0.08949217  0.45475412  1  -1.196173  0.062193  -0.319649  -0.219127  0.035603  3.547424  0.055
O  O316  1  0.87425991  0.68962995  0.21211756  1  -1.137194  0.208378  -0.556474  -0.838173  0.119352  2.384504  0.186
O  O317  1  0.62573992  0.18962942  0.28788239  1  -1.137188  0.208381  -0.556499  -0.83824  0.119355  2.384344  0.186
O  O318  1  0.12573833  0.31037007  0.78788190  1  -1.13723  0.208381  -0.556462  -0.838148  0.119354  2.384465  0.186
O  O319  1  0.37425910  0.81036951  0.71211765  1  -1.137198  0.208382  -0.55648  -0.838207  0.119355  2.384329  0.186
O  O320  1  0.08300154  0.69022978  0.20472213  1  -1.143252  0.229691  -0.561171  -0.851037  0.130437  2.43172  0.207
O  O321  1  0.41699914  0.19022927  0.29527817  1  -1.143263  0.22969  -0.561174  -0.85107  0.130435  2.431734  0.207
O  O322  1  0.91699826  0.30976915  0.79527802  1  -1.143298  0.229691  -0.561157  -0.851023  0.130438  2.43184  0.207
O  O323  1  0.58300067  0.80977020  0.70472198  1  -1.143256  0.22969  -0.561154  -0.851002  0.130436  2.431707  0.207
O  O324  1  0.72473967  0.80997261  0.15612763  1  -1.147211  0.074175  -0.303362  -0.54601  0.040599  2.461046  0.069
O  O325  1  0.77526016  0.30997314  0.34387225  1  -1.14714  0.074177  -0.303323  -0.545958  0.0406  2.460974  0.069
O  O326  1  0.27526013  0.19002797  0.84387298  1  -1.147191  0.074175  -0.303336  -0.545976  0.040599  2.460935  0.069
O  O327  1  0.22473964  0.69002743  0.65612882  1  -1.147137  0.074177  -0.303293  -0.545906  0.0406  2.461093  0.069
O  O328  1  0.87375516  0.84924515  0.22492062  1  -1.155163  0.055084  -0.297953  -0.53387  0.030369  2.401697  0.051
O  O329  1  0.62624387  0.34924628  0.27508003  1  -1.155191  0.055082  -0.297978  -0.533942  0.030368  2.401781  0.051
O  O330  1  0.12624385  0.15075432  0.77507941  1  -1.155189  0.055084  -0.297987  -0.533935  0.030369  2.401691  0.051
O  O331  1  0.37375592  0.65075430  0.72492196  1  -1.155257  0.055085  -0.297898  -0.533876  0.030369  2.401757  0.051
O  O332  1  0.30274867  0.70246931  0.23921383  1  -1.165432  0.00818  -0.314924  -0.541709  0.003872  2.135979  0.007
O  O333  1  0.19725282  0.20245512  0.26078153  1  -1.16543  0.008176  -0.314892  -0.541608  0.00387  2.13604  0.007
O  O334  1  0.69725116  0.29754551  0.76078036  1  -1.165447  0.008179  -0.314827  -0.541482  0.003872  2.135841  0.007
O  O335  1  0.80274856  0.79754217  0.73921839  1  -1.165433  0.008178  -0.314855  -0.5416  0.003871  2.136104  0.007
O  O336  1  0.24707388  0.69272298  0.13188194  1  -1.128611  0.083176  -0.319827  -0.553736  0.044913  2.333118  0.075
O  O337  1  0.25292446  0.19271965  0.36811526  1  -1.128519  0.083179  -0.319797  -0.553713  0.044916  2.333255  0.075
O  O338  1  0.75292358  0.30727595  0.86811420  1  -1.128489  0.083173  -0.319841  -0.553668  0.044912  2.333313  0.075
O  O339  1  0.74707691  0.80727654  0.63188512  1  -1.128438  0.083178  -0.319857  -0.553739  0.044915  2.333266  0.075
O  O340  1  0.02825608  0.76740640  0.30827702  1  -1.149505  0.06987  -0.305724  -0.543239  0.038334  2.389966  0.065
O  O341  1  0.47174537  0.26740654  0.19172564  1  -1.149569  0.06987  -0.30573  -0.543222  0.038334  2.390127  0.065
O  O342  1  0.97174450  0.23259418  0.69172370  1  -1.14955  0.069866  -0.305721  -0.543179  0.038331  2.390144  0.065
O  O343  1  0.52825443  0.73259294  0.80827543  1  -1.149538  0.069869  -0.305741  -0.543255  0.038333  2.390049  0.065
O  O344  1  0.03230813  0.64426710  0.32701302  1  -1.125345  0.074818  -0.303123  -0.52999  0.040981  2.343881  0.069
O  O345  1  0.46769255  0.14426780  0.17298823  1  -1.125341  0.074817  -0.303143  -0.530029  0.04098  2.34382  0.069
O  O346  1  0.96769010  0.35573183  0.67298782  1  -1.125282  0.074822  -0.303102  -0.530012  0.040983  2.343751  0.069
O  O347  1  0.53230725  0.85573167  0.82701193  1  -1.125282  0.074818  -0.303117  -0.529974  0.040981  2.343778  0.069
O  O348  1  0.11567362  0.53854598  0.25898864  1  -1.142383  0.066494  -0.299047  -0.533063  0.036429  2.366311  0.062
O  O349  1  0.38432550  0.03854497  0.24101198  1  -1.142398  0.066494  -0.299016  -0.533079  0.036429  2.366223  0.062
O  O350  1  0.88432540  0.46145240  0.74101231  1  -1.142588  0.066492  -0.29903  -0.533005  0.036428  2.366292  0.062
O  O351  1  0.61567274  0.96145396  0.75898748  1  -1.142445  0.066493  -0.299039  -0.533055  0.036429  2.366268  0.062
O  O352  1  0.18978163  0.56069299  0.17662379  1  -1.141842  0.063002  -0.300275  -0.549188  0.034592  2.431771  0.058
O  O353  1  0.31022139  0.06068971  0.32338015  1  -1.141891  0.063004  -0.300279  -0.549202  0.034593  2.431674  0.058
O  O354  1  0.81021894  0.43930868  0.82337877  1  -1.14186  0.063007  -0.300317  -0.549239  0.034594  2.431641  0.058
O  O355  1  0.68977919  0.93930758  0.67662149  1  -1.141914  0.063003  -0.300219  -0.549064  0.034592  2.431685  0.058
O  O356  1  0.79436629  0.60870401  0.09447109  1  -1.149034  0.076009  -0.295548  -0.533383  0.041999  2.391168  0.069
O  O357  1  0.70563668  0.10870393  0.40552892  1  -1.149195  0.076012  -0.295597  -0.533457  0.042001  2.391079  0.069
O  O358  1  0.20563273  0.39129492  0.90552895  1  -1.149309  0.076009  -0.295534  -0.533369  0.041999  2.391191  0.069
O  O359  1  0.29436704  0.89129500  0.59447135  1  -1.149314  0.076008  -0.29555  -0.533386  0.041999  2.391215  0.069
O  O360  1  0.96583318  0.58174163  0.13779603  1  -1.161816  0.065598  -0.301627  -0.5709  0.036701  2.495922  0.053
O  O361  1  0.53417058  0.08174048  0.36220456  1  -1.162144  0.065605  -0.301662  -0.570971  0.0367  2.495939  0.053
O  O362  1  0.03416819  0.41825894  0.86220389  1  -1.161665  0.065597  -0.301658  -0.570964  0.036702  2.495974  0.053
O  O363  1  0.46583158  0.91826010  0.63779593  1  -1.161999  0.065605  -0.301638  -0.570948  0.036701  2.495963  0.053
O  O364  1  0.90820078  0.76614818  0.11392916  1  -1.154618  0.079695  -0.315102  -0.59059  0.0443  2.511547  0.068
O  O365  1  0.59179983  0.26614810  0.38607040  1  -1.154639  0.079694  -0.315092  -0.590519  0.044299  2.511483  0.068
O  O366  1  0.09179902  0.23385130  0.88607053  1  -1.154605  0.079699  -0.315098  -0.590622  0.044302  2.511486  0.068
O  O367  1  0.40819919  0.73385083  0.61392872  1  -1.154602  0.079698  -0.315058  -0.590439  0.0443  2.511404  0.068
O  O368  1  0.03004586  0.72568242  0.06412870  1  -1.120829  0.090696  -0.287283  -0.51873  0.049849  2.339362  0.083
O  O369  1  0.46995404  0.22568234  0.43587054  1  -1.120838  0.090692  -0.287297  -0.518736  0.049847  2.339361  0.083
O  O370  1  0.96995473  0.27431597  0.93587019  1  -1.120945  0.090691  -0.287374  -0.518899  0.049845  2.339276  0.083
O  O371  1  0.53004577  0.77431714  0.56412869  1  -1.12084  0.090691  -0.287302  -0.51875  0.049846  2.339407  0.083
O  O372  1  0.94002151  0.91329597  0.08812414  1  -1.069206  0.001533  -0.183263  -0.153998  0.00064  2.600073  0.001
O  O373  1  0.55998146  0.41329532  0.41187476  1  -1.06918  0.001533  -0.183193  -0.154003  0.00064  2.600247  0.001
O  O374  1  0.05998300  0.08670515  0.91187533  1  -1.06918  0.001533  -0.183212  -0.154006  0.00064  2.600248  0.001
O  O375  1  0.44002070  0.58670580  0.58812436  1  -1.069217  0.001533  -0.183273  -0.154026  0.00064  2.600133  0.001
O  O376  1  0.88120296  0.71997262  0.94009440  1  -1.089258  0.001061  -0.185918  -0.165243  0.000495  2.592814  0.001
O  O377  1  0.61879831  0.21997011  0.55990646  1  -1.089007  0.001061  -0.185877  -0.165141  0.000495  2.59279  0.001
O  O378  1  0.11879998  0.28002959  0.05990621  1  -1.089061  0.001061  -0.185865  -0.165094  0.000495  2.592725  0.001
O  O379  1  0.38119913  0.78003047  0.44009288  1  -1.08915  0.001062  -0.185875  -0.16516  0.000495  2.592823  0.001
