# generated using pymatgen
data_Lu2Cd3H36(C2O3)12
_symmetry_space_group_name_H-M   'P 1'
_cell_length_a   18.38538372
_cell_length_b   18.38542042
_cell_length_c   18.38543577
_cell_angle_alpha   59.99970410
_cell_angle_beta   59.99997282
_cell_angle_gamma   60.00001076
_symmetry_Int_Tables_number   1
_chemical_formula_structural   Lu2Cd3H36(C2O3)12
_chemical_formula_sum   'Lu8 Cd12 H144 C96 O144'
_cell_volume   4394.44637280
_cell_formula_units_Z   4
loop_
 _symmetry_equiv_pos_site_id
 _symmetry_equiv_pos_as_xyz
  1  'x, y, z'
loop_
 _atom_site_type_symbol
 _atom_site_label
 _atom_site_symmetry_multiplicity
 _atom_site_fract_x
 _atom_site_fract_y
 _atom_site_fract_z
 _atom_site_occupancy
 _atom_site_pbe_bader_charge
 _atom_site_pbe_bader_spin_density
 _atom_site_pbe_cm5_charge
 _atom_site_pbe_ddec_charge
 _atom_site_pbe_ddec_spin_density
 _atom_site_pbe_ddec_sum_bond_order
 _atom_site_pbe_magmom
Lu  Lu0  1  0.74999819  0.25001682  0.25000327  1  2.181362  0  1.331406  1.495989  0  2.987732  0
Lu  Lu1  1  0.24998829  0.24999908  0.25000602  1  2.180789  0  1.33152  1.496493  0  2.986647  0
Lu  Lu2  1  0.75000571  0.74998513  0.25000322  1  2.180819  0  1.331497  1.496622  0  2.986487  0
Lu  Lu3  1  0.74999329  0.25001265  0.74999778  1  2.180683  0  1.33166  1.496348  0  2.987073  0
Lu  Lu4  1  0.24999534  0.75001878  0.74999846  1  2.181243  0  1.331422  1.496343  0  2.986963  0
Lu  Lu5  1  0.75000239  0.74999125  0.74999520  1  2.180854  0  1.33152  1.496627  0  2.986453  0
Lu  Lu6  1  0.25002181  0.24997024  0.74999611  1  2.180614  0  1.331385  1.496427  0  2.987189  0
Lu  Lu7  1  0.25001655  0.75000227  0.24999233  1  2.180748  0  1.331521  1.49635  0  2.987165  0
Cd  Cd8  1  0.49999227  0.49999971  0.50000747  1  1.398195  0  0.80154  1.114864  0  2.196192  0
Cd  Cd9  1  0.49999455  0.49999908  0.00000171  1  1.398478  0  0.801535  1.114861  0  2.196255  0
Cd  Cd10  1  0.00001251  0.49999870  0.99998278  1  1.398346  0  0.80137  1.114637  0  2.196398  0
Cd  Cd11  1  0.50000781  0.99999527  0.99999491  1  1.394957  0  0.80151  1.114841  0  2.196148  0
Cd  Cd12  1  0.99999318  0.00000307  0.50000831  1  1.398294  0  0.801486  1.114802  0  2.196288  0
Cd  Cd13  1  0.50001534  0.99998684  0.49998504  1  1.398426  0  0.801403  1.114778  0  2.196422  0
Cd  Cd14  1  0.00001841  0.49999190  0.50000023  1  1.394899  0  0.801441  1.114819  0  2.196328  0
Cd  Cd15  1  0.99997915  0.00001441  0.00001357  1  1.398313  0  0.801312  1.114649  0  2.19637  0
Cd  Cd16  1  0.62498755  0.12500406  0.12500565  1  1.483752  0  0.824101  1.277545  0  1.947059  0
Cd  Cd17  1  0.87498805  0.37500882  0.37500178  1  1.483748  0  0.824087  1.277599  0  1.947165  0
Cd  Cd18  1  0.37501335  0.87499432  0.87499528  1  1.483578  0  0.824109  1.277647  0  1.947208  0
Cd  Cd19  1  0.12499733  0.62498601  0.62501223  1  1.483747  0  0.824029  1.27762  0  1.94706  0
H  H20  1  0.50480769  0.42605573  0.34834690  1  0.088708  0  0.110151  0.102727  0  0.986189  0
H  H21  1  0.27920394  0.49519726  0.07393735  1  0.076644  0  0.110161  0.102778  0  0.986144  0
H  H22  1  0.84834243  0.72075982  0.00481226  1  0.088783  0  0.110085  0.102668  0  0.986141  0
H  H23  1  0.57392681  0.15165713  0.77923042  1  0.084842  0  0.110075  0.102694  0  0.985924  0
H  H24  1  0.92603997  0.00481789  0.72079731  1  0.076811  0  0.110162  0.102826  0  0.986032  0
H  H25  1  0.65164394  0.07393936  0.49518596  1  0.089053  0  0.110103  0.102684  0  0.986112  0
H  H26  1  0.22077725  0.34833166  0.42607793  1  0.08494  0  0.110074  0.102672  0  0.985937  0
H  H27  1  0.99519440  0.77923727  0.15164763  1  0.08878  0  0.110087  0.102674  0  0.986168  0
H  H28  1  0.50480358  0.34834913  0.72076787  1  0.088648  0  0.110065  0.10269  0  0.986203  0
H  H29  1  0.57391069  0.49519318  0.15166278  1  0.088946  0  0.110099  0.102688  0  0.986051  0
H  H30  1  0.22075981  0.42607570  0.00481434  1  0.076913  0  0.110092  0.102703  0  0.986028  0
H  H31  1  0.65165750  0.77922176  0.07393308  1  0.084655  0  0.110133  0.10276  0  0.98615  0
H  H32  1  0.84832994  0.00482875  0.42607168  1  0.089187  0  0.110107  0.102762  0  0.985874  0
H  H33  1  0.27921900  0.15165249  0.49519043  1  0.088788  0  0.110177  0.102787  0  0.986219  0
H  H34  1  0.92607063  0.72077557  0.34834115  1  0.084449  0  0.110078  0.102629  0  0.986088  0
H  H35  1  0.99517765  0.07391909  0.77924250  1  0.077138  0  0.110022  0.102583  0  0.985917  0
H  H36  1  0.50481353  0.72077371  0.42607917  1  0.077378  0  0.110142  0.102753  0  0.986058  0
H  H37  1  0.99519110  0.15164760  0.07392430  1  0.088969  0  0.110099  0.102727  0  0.986076  0
H  H38  1  0.65165434  0.49518814  0.77921830  1  0.088686  0  0.110163  0.102805  0  0.986069  0
H  H39  1  0.57393098  0.77922340  0.49518410  1  0.076855  0  0.110111  0.102711  0  0.986098  0
H  H40  1  0.27919761  0.07393332  0.15166631  1  0.084187  0  0.110153  0.102796  0  0.986005  0
H  H41  1  0.22075511  0.00482075  0.34834679  1  0.08885  0  0.110048  0.102601  0  0.986102  0
H  H42  1  0.92606197  0.34833811  0.00480409  1  0.08857  0  0.110174  0.102839  0  0.986206  0
H  H43  1  0.84834517  0.42606272  0.72078503  1  0.084339  0  0.110201  0.102837  0  0.986185  0
H  H44  1  0.49518335  0.57394148  0.65165041  1  0.089076  0  0.110153  0.102751  0  0.986026  0
H  H45  1  0.72076274  0.50479409  0.92608818  1  0.07688  0  0.110134  0.102821  0  0.986318  0
H  H46  1  0.15166770  0.27920862  0.99518208  1  0.089002  0  0.110152  0.102738  0  0.986013  0
H  H47  1  0.42609932  0.84834145  0.22075309  1  0.084958  0  0.110068  0.102589  0  0.98616  0
H  H48  1  0.07392916  0.99519006  0.27921983  1  0.076785  0  0.110101  0.102707  0  0.986007  0
H  H49  1  0.34832453  0.92608423  0.50481420  1  0.089086  0  0.110066  0.102725  0  0.985944  0
H  H50  1  0.77921335  0.65166294  0.57392444  1  0.084597  0  0.110143  0.102748  0  0.986124  0
H  H51  1  0.00482011  0.22078993  0.84835285  1  0.08915  0  0.110196  0.102834  0  0.986059  0
H  H52  1  0.49520763  0.65166064  0.27921471  1  0.088643  0  0.110104  0.102733  0  0.986167  0
H  H53  1  0.42606831  0.50482355  0.84833638  1  0.089202  0  0.110078  0.102672  0  0.985939  0
H  H54  1  0.77921387  0.57393244  0.99518541  1  0.07693  0  0.110135  0.102737  0  0.98594  0
H  H55  1  0.34835207  0.22076462  0.92606054  1  0.085056  0  0.110083  0.102616  0  0.986041  0
H  H56  1  0.15163683  0.99520511  0.57394124  1  0.088927  0  0.110104  0.102665  0  0.986238  0
H  H57  1  0.72077741  0.84835336  0.50479221  1  0.088575  0  0.110114  0.102752  0  0.986234  0
H  H58  1  0.07390764  0.27924152  0.65165971  1  0.085078  0  0.110114  0.102719  0  0.986095  0
H  H59  1  0.00481683  0.92606199  0.22077483  1  0.076639  0  0.110094  0.102686  0  0.985918  0
H  H60  1  0.49519428  0.27923267  0.57391885  1  0.076859  0  0.110111  0.102766  0  0.986174  0
H  H61  1  0.00479994  0.84836050  0.92607279  1  0.088729  0  0.110171  0.102786  0  0.986328  0
H  H62  1  0.34835032  0.50480638  0.22075809  1  0.088932  0  0.110056  0.102645  0  0.986087  0
H  H63  1  0.42608588  0.22077897  0.50479289  1  0.077042  0  0.110144  0.10278  0  0.986214  0
H  H64  1  0.72075900  0.92607297  0.84835035  1  0.08495  0  0.110051  0.102634  0  0.985961  0
H  H65  1  0.77920230  0.99518744  0.65166651  1  0.088921  0  0.110191  0.102821  0  0.986073  0
H  H66  1  0.07392600  0.65167345  0.99518660  1  0.088965  0  0.110193  0.102826  0  0.986056  0
H  H67  1  0.15166678  0.57395105  0.27920745  1  0.084682  0  0.110122  0.102713  0  0.985883  0
H  H68  1  0.58140837  0.48532203  0.29118502  1  0.08416  0  0.113652  0.10584  0  0.973467  0
H  H69  1  0.35789735  0.41857646  0.01469401  1  0.097117  0  0.113602  0.105791  0  0.973622  0
H  H70  1  0.79116431  0.64207322  0.08144811  1  0.078105  0  0.113702  0.10589  0  0.973537  0
H  H71  1  0.51468362  0.20884285  0.85791553  1  0.070644  0  0.113623  0.105845  0  0.97348  0
H  H72  1  0.98529999  0.08142549  0.64209883  1  0.096992  0  0.113583  0.105795  0  0.97365  0
H  H73  1  0.70884439  0.01470436  0.41854912  1  0.084749  0  0.113581  0.105856  0  0.973396  0
H  H74  1  0.14207816  0.29116375  0.48530954  1  0.070804  0  0.113617  0.105853  0  0.973404  0
H  H75  1  0.91854962  0.85791323  0.20884292  1  0.078705  0  0.113574  0.105827  0  0.973351  0
H  H76  1  0.58144156  0.29118243  0.64206880  1  0.078695  0  0.113689  0.105849  0  0.973428  0
H  H77  1  0.51469792  0.41853721  0.20884645  1  0.084561  0  0.11358  0.105799  0  0.973446  0
H  H78  1  0.14206409  0.48531513  0.08144267  1  0.096408  0  0.113708  0.105829  0  0.973429  0
H  H79  1  0.70883039  0.85791283  0.01469045  1  0.070788  0  0.113648  0.105879  0  0.973465  0
H  H80  1  0.79117575  0.08145099  0.48531168  1  0.084357  0  0.113721  0.105878  0  0.973594  0
H  H81  1  0.35791365  0.20882041  0.41856676  1  0.078716  0  0.113594  0.105752  0  0.973599  0
H  H82  1  0.98532481  0.64207065  0.29117955  1  0.070608  0  0.113683  0.105849  0  0.973472  0
H  H83  1  0.91852380  0.01470721  0.85793906  1  0.095949  0  0.113616  0.105776  0  0.973461  0
H  H84  1  0.58144101  0.64207226  0.48531289  1  0.096598  0  0.113709  0.105831  0  0.973558  0
H  H85  1  0.91854063  0.20883406  0.01470193  1  0.084706  0  0.113645  0.105855  0  0.973321  0
H  H86  1  0.70882709  0.41856526  0.85791517  1  0.078655  0  0.113637  0.10583  0  0.973394  0
H  H87  1  0.51470959  0.85791718  0.41854267  1  0.096934  0  0.113615  0.10584  0  0.973485  0
H  H88  1  0.35788424  0.01469609  0.20884555  1  0.067946  0  0.113564  0.105782  0  0.973668  0
H  H89  1  0.14204999  0.08144783  0.29118601  1  0.078788  0  0.113706  0.105783  0  0.973558  0
H  H90  1  0.98532188  0.29118572  0.08141088  1  0.084195  0  0.113688  0.105931  0  0.973387  0
H  H91  1  0.79118086  0.48530310  0.64208437  1  0.070752  0  0.113624  0.105846  0  0.973563  0
H  H92  1  0.41855300  0.51470752  0.70882493  1  0.084663  0  0.113605  0.105793  0  0.97353  0
H  H93  1  0.64207753  0.58144157  0.98529997  1  0.097194  0  0.113667  0.105825  0  0.973533  0
H  H94  1  0.20884755  0.35789152  0.91854619  1  0.079031  0  0.113581  0.105857  0  0.973616  0
H  H95  1  0.48532349  0.79116608  0.14205798  1  0.070424  0  0.113655  0.105735  0  0.973608  0
H  H96  1  0.01469482  0.91855592  0.35791318  1  0.096955  0  0.113599  0.105817  0  0.973402  0
H  H97  1  0.29116433  0.98532576  0.58143957  1  0.084229  0  0.113679  0.105896  0  0.973509  0
H  H98  1  0.85791986  0.70882304  0.51467190  1  0.067551  0  0.113695  0.105908  0  0.973421  0
H  H99  1  0.08140106  0.14206974  0.79120433  1  0.07812  0  0.113682  0.105882  0  0.973426  0
H  H100  1  0.41857405  0.70883828  0.35791109  1  0.078404  0  0.113596  0.105782  0  0.973308  0
H  H101  1  0.48530458  0.58145297  0.79116908  1  0.084541  0  0.113618  0.105807  0  0.973519  0
H  H102  1  0.85791616  0.51467348  0.91857603  1  0.096766  0  0.113672  0.105897  0  0.973361  0
H  H103  1  0.29120377  0.14205136  0.98530342  1  0.070639  0  0.113788  0.105871  0  0.973487  0
H  H104  1  0.20881849  0.91857771  0.51469825  1  0.084599  0  0.11365  0.105815  0  0.973576  0
H  H105  1  0.64209121  0.79116997  0.58142556  1  0.078156  0  0.113635  0.105804  0  0.973376  0
H  H106  1  0.01471297  0.35790913  0.70885973  1  0.069757  0  0.113548  0.105774  0  0.97343  0
H  H107  1  0.08143990  0.98531053  0.14207839  1  0.096553  0  0.113659  0.105851  0  0.973415  0
H  H108  1  0.41855750  0.35791612  0.51468845  1  0.096602  0  0.113642  0.105872  0  0.973478  0
H  H109  1  0.08141911  0.79118734  0.98531914  1  0.084168  0  0.11373  0.105894  0  0.973452  0
H  H110  1  0.29116397  0.58145808  0.14207731  1  0.078328  0  0.113624  0.105836  0  0.973419  0
H  H111  1  0.48532896  0.14207206  0.58141976  1  0.0963  0  0.113664  0.105791  0  0.973458  0
H  H112  1  0.64206460  0.98529047  0.79117996  1  0.070748  0  0.113652  0.105778  0  0.973537  0
H  H113  1  0.85790244  0.91857714  0.70883414  1  0.078441  0  0.113597  0.105864  0  0.973477  0
H  H114  1  0.01469340  0.70884226  0.91855740  1  0.084539  0  0.113645  0.105913  0  0.9733  0
H  H115  1  0.20883348  0.51468697  0.35790876  1  0.071023  0  0.113588  0.10577  0  0.973599  0
H  H116  1  0.71761050  0.25271453  0.05516564  1  0.644429  0  0.298647  0.397201  0  0.927815  0
H  H117  1  0.02548418  0.28238174  0.24730091  1  0.643518  0  0.298627  0.397157  0  0.927868  0
H  H118  1  0.55514924  0.97450490  0.21761429  1  0.660939  0  0.298666  0.39745  0  0.927514  0
H  H119  1  0.74728669  0.44485372  0.52548393  1  0.638314  0  0.298656  0.397422  0  0.927521  0
H  H120  1  0.75268517  0.21763542  0.97449706  1  0.643589  0  0.29863  0.397125  0  0.927871  0
H  H121  1  0.94480046  0.24733147  0.28234382  1  0.644393  0  0.298627  0.397257  0  0.927712  0
H  H122  1  0.47447371  0.05518771  0.25267004  1  0.637272  0  0.2986  0.397342  0  0.927596  0
H  H123  1  0.78236438  0.52552645  0.44480709  1  0.660626  0  0.29868  0.397493  0  0.927532  0
H  H124  1  0.71759391  0.05516200  0.97452370  1  0.661034  0  0.29862  0.397193  0  0.927807  0
H  H125  1  0.74731834  0.28234958  0.44481660  1  0.644433  0  0.298568  0.397328  0  0.92759  0
H  H126  1  0.47447297  0.25269016  0.21765219  1  0.642734  0  0.298621  0.397283  0  0.927697  0
H  H127  1  0.94480898  0.52550699  0.24730900  1  0.637867  0  0.298673  0.397269  0  0.927785  0
H  H128  1  0.55515094  0.21761299  0.25272224  1  0.64399  0  0.298609  0.397266  0  0.927715  0
H  H129  1  0.02549608  0.44483285  0.28236783  1  0.661045  0  0.298599  0.397066  0  0.927993  0
H  H130  1  0.75267504  0.97448748  0.05519455  1  0.63752  0  0.29858  0.397193  0  0.92781  0
H  H131  1  0.78236439  0.24729286  0.52550798  1  0.6433  0  0.298716  0.397509  0  0.927473  0
H  H132  1  0.71762762  0.97449628  0.25270015  1  0.64355  0  0.298639  0.397315  0  0.927619  0
H  H133  1  0.78233316  0.44478781  0.24732712  1  0.644438  0  0.29863  0.397375  0  0.927599  0
H  H134  1  0.94478937  0.28234686  0.52553402  1  0.6597  0  0.298659  0.397312  0  0.927721  0
H  H135  1  0.74725676  0.52547036  0.28239289  1  0.643729  0  0.298624  0.397277  0  0.927695  0
H  H136  1  0.02547267  0.24729691  0.44485031  1  0.638329  0  0.298679  0.397199  0  0.927775  0
H  H137  1  0.47447280  0.21764568  0.05518364  1  0.659612  0  0.298542  0.397241  0  0.927771  0
H  H138  1  0.75270986  0.05516363  0.21762181  1  0.644139  0  0.298673  0.397355  0  0.927584  0
H  H139  1  0.55515949  0.25269673  0.97450246  1  0.637548  0  0.298629  0.397338  0  0.92763  0
H  H140  1  0.28236261  0.74731588  0.94481574  1  0.644453  0  0.29866  0.397232  0  0.927744  0
H  H141  1  0.97449565  0.71762385  0.75270722  1  0.643465  0  0.298633  0.397274  0  0.927763  0
H  H142  1  0.44481302  0.02551358  0.78234723  1  0.65981  0  0.298603  0.397357  0  0.927602  0
H  H143  1  0.25268470  0.55520217  0.47447635  1  0.637848  0  0.298615  0.397374  0  0.927579  0
H  H144  1  0.24729897  0.78237665  0.02549763  1  0.643526  0  0.298666  0.397234  0  0.927831  0
H  H145  1  0.05516881  0.75269620  0.71763615  1  0.644487  0  0.298664  0.397281  0  0.927715  0
H  H146  1  0.52550094  0.94484750  0.74726836  1  0.637858  0  0.298664  0.397477  0  0.927527  0
H  H147  1  0.21762198  0.47451504  0.55513465  1  0.661251  0  0.298674  0.397404  0  0.927522  0
H  H148  1  0.28237291  0.94480883  0.02549823  1  0.659998  0  0.298627  0.397291  0  0.92767  0
H  H149  1  0.25268590  0.71763692  0.55518289  1  0.644435  0  0.298599  0.397127  0  0.927899  0
H  H150  1  0.52549257  0.74726090  0.78237147  1  0.643559  0  0.29861  0.397212  0  0.927819  0
H  H151  1  0.05512485  0.47451569  0.75274403  1  0.638189  0  0.298727  0.397433  0  0.92753  0
H  H152  1  0.44479216  0.78235151  0.74732707  1  0.643443  0  0.298675  0.397392  0  0.927576  0
H  H153  1  0.97446884  0.55519698  0.71764497  1  0.659472  0  0.298621  0.397331  0  0.927647  0
H  H154  1  0.24731457  0.02550179  0.94481879  1  0.637748  0  0.298629  0.397228  0  0.927813  0
H  H155  1  0.21761228  0.75270521  0.47451083  1  0.643591  0  0.298665  0.3972  0  0.927877  0
H  H156  1  0.28236074  0.02552110  0.74732097  1  0.641232  0  0.298618  0.397339  0  0.92762  0
H  H157  1  0.21762675  0.55517067  0.75270874  1  0.644422  0  0.298668  0.397349  0  0.927563  0
H  H158  1  0.05516136  0.71763724  0.47451005  1  0.661037  0  0.298582  0.397041  0  0.928014  0
H  H159  1  0.25271555  0.47450270  0.71762065  1  0.643462  0  0.298666  0.397362  0  0.927617  0
H  H160  1  0.97448195  0.75268020  0.55520352  1  0.637822  0  0.298634  0.397284  0  0.927763  0
H  H161  1  0.52551610  0.78235157  0.94482110  1  0.659702  0  0.298644  0.39737  0  0.927552  0
H  H162  1  0.24729892  0.94484262  0.78237004  1  0.644358  0  0.298656  0.397234  0  0.92772  0
H  H163  1  0.44484629  0.74727715  0.02550279  1  0.637868  0  0.298682  0.39748  0  0.927511  0
C  C164  1  0.62115990  0.35840517  0.38877629  1  1.620226  0  0.222939  0.62317  0  4.154401  0
C  C165  1  0.36831813  0.37884492  0.14160692  1  1.611218  0  0.222933  0.623088  0  4.15437  0
C  C166  1  0.88876866  0.63165999  0.12115933  1  1.628336  0  0.22294  0.623195  0  4.154372  0
C  C167  1  0.64159785  0.11124084  0.86834006  1  1.611517  0  0.222929  0.623285  0  4.154167  0
C  C168  1  0.85838385  0.12117764  0.63167431  1  1.61171  0  0.222958  0.623404  0  4.154079  0
C  C169  1  0.61123053  0.14161439  0.37881618  1  1.620867  0  0.222987  0.623189  0  4.154348  0
C  C170  1  0.13166663  0.38877315  0.35839923  1  1.612333  0  0.223018  0.623389  0  4.154402  0
C  C171  1  0.87883931  0.86833236  0.11123128  1  1.628343  0  0.223057  0.623365  0  4.154306  0
C  C172  1  0.62115562  0.38878675  0.63166530  1  1.628406  0  0.22302  0.623475  0  4.154072  0
C  C173  1  0.64161151  0.37883308  0.11122876  1  1.620785  0  0.222938  0.623215  0  4.153949  0
C  C174  1  0.13164920  0.35840356  0.12116820  1  1.610831  0  0.22295  0.623253  0  4.154681  0
C  C175  1  0.61123381  0.86833190  0.14160214  1  1.612136  0  0.222911  0.62336  0  4.154541  0
C  C176  1  0.88877242  0.12116842  0.35839648  1  1.620534  0  0.222874  0.623107  0  4.154623  0
C  C177  1  0.36833008  0.11121783  0.37883951  1  1.628372  0  0.222874  0.62314  0  4.154262  0
C  C178  1  0.85840906  0.63164817  0.38877828  1  1.612254  0  0.222939  0.623101  0  4.154575  0
C  C179  1  0.87882983  0.14162126  0.86833176  1  1.611647  0  0.222895  0.623198  0  4.154314  0
C  C180  1  0.62115838  0.63166567  0.35840673  1  1.610744  0  0.222932  0.623377  0  4.15482  0
C  C181  1  0.87882656  0.11123785  0.14161545  1  1.620937  0  0.222961  0.623524  0  4.154503  0
C  C182  1  0.61122907  0.37882967  0.86833443  1  1.628171  0  0.222847  0.623114  0  4.154746  0
C  C183  1  0.64162221  0.86831123  0.37883587  1  1.611826  0  0.222968  0.623513  0  4.154423  0
C  C184  1  0.36831180  0.14160540  0.11123259  1  1.611339  0  0.223005  0.623236  0  4.154397  0
C  C185  1  0.13164982  0.12116838  0.38878100  1  1.628904  0  0.222913  0.623302  0  4.154417  0
C  C186  1  0.85840156  0.38878139  0.12115245  1  1.619679  0  0.22288  0.623144  0  4.15478  0
C  C187  1  0.88877986  0.35839043  0.63167111  1  1.611957  0  0.222925  0.623141  0  4.154308  0
C  C188  1  0.37883103  0.64161913  0.61122602  1  1.620491  0  0.222806  0.623067  0  4.15436  0
C  C189  1  0.63167296  0.62115343  0.85838720  1  1.611271  0  0.222936  0.623239  0  4.154558  0
C  C190  1  0.11124171  0.36830543  0.87882514  1  1.632114  0  0.222942  0.623274  0  4.154295  0
C  C191  1  0.35840366  0.88878643  0.13164736  1  1.612296  0  0.223041  0.623239  0  4.154358  0
C  C192  1  0.14161027  0.87883570  0.36832977  1  1.61093  0  0.2229  0.623025  0  4.154617  0
C  C193  1  0.38876758  0.85840947  0.62116406  1  1.620095  0  0.223016  0.623389  0  4.154043  0
C  C194  1  0.86833602  0.61122480  0.64159106  1  1.611162  0  0.222997  0.623281  0  4.154365  0
C  C195  1  0.12117042  0.13165091  0.88877594  1  1.628829  0  0.222866  0.623115  0  4.154376  0
C  C196  1  0.37884988  0.61122928  0.36832603  1  1.628931  0  0.222994  0.623275  0  4.154719  0
C  C197  1  0.35839025  0.62117594  0.88877134  1  1.620762  0  0.22293  0.623084  0  4.154229  0
C  C198  1  0.86833121  0.64159064  0.87883077  1  1.610881  0  0.222959  0.623446  0  4.154387  0
C  C199  1  0.38879004  0.13165570  0.85839262  1  1.611804  0  0.222885  0.623474  0  4.154406  0
C  C200  1  0.11121413  0.87883845  0.64161566  1  1.62069  0  0.222878  0.623153  0  4.154491  0
C  C201  1  0.63167236  0.88877229  0.62115617  1  1.62864  0  0.222948  0.623132  0  4.15456  0
C  C202  1  0.14162203  0.36831730  0.61123071  1  1.612437  0  0.22293  0.623316  0  4.154393  0
C  C203  1  0.12117325  0.85839453  0.13165824  1  1.610696  0  0.222774  0.62292  0  4.15466  0
C  C204  1  0.37883262  0.36832716  0.64159966  1  1.611223  0  0.222923  0.623483  0  4.153965  0
C  C205  1  0.12115642  0.88878177  0.85840881  1  1.619721  0  0.22289  0.623402  0  4.15465  0
C  C206  1  0.38877509  0.62116652  0.13166610  1  1.62835  0  0.222869  0.623167  0  4.154489  0
C  C207  1  0.35841363  0.13165682  0.62114381  1  1.610606  0  0.223087  0.623435  0  4.154339  0
C  C208  1  0.63167381  0.85837987  0.88877676  1  1.612461  0  0.222866  0.623302  0  4.154343  0
C  C209  1  0.86833083  0.87883803  0.61123549  1  1.6282  0  0.222994  0.623337  0  4.154424  0
C  C210  1  0.14160362  0.61124628  0.87883890  1  1.620048  0  0.222972  0.623395  0  4.154387  0
C  C211  1  0.11124185  0.64160482  0.36833678  1  1.611859  0  0.223029  0.62336  0  4.154271  0
C  C212  1  0.57609773  0.41868232  0.31806100  1  0.394653  0  -0.06244  -0.127498  0  3.879997  0
C  C213  1  0.31282369  0.42390449  0.08132862  1  0.399012  0  -0.062529  -0.127684  0  3.880479  0
C  C214  1  0.81806218  0.68714407  0.07610506  1  0.404669  0  -0.062448  -0.127565  0  3.879922  0
C  C215  1  0.58131845  0.18194712  0.81284475  1  0.427926  0  -0.06247  -0.127648  0  3.879761  0
C  C216  1  0.91865980  0.07610885  0.68717235  1  0.399112  0  -0.062501  -0.127729  0  3.880585  0
C  C217  1  0.68192618  0.08134287  0.42388777  1  0.392818  0  -0.062316  -0.127539  0  3.879836  0
C  C218  1  0.18715542  0.31805721  0.41867682  1  0.426959  0  -0.062352  -0.127594  0  3.879874  0
C  C219  1  0.92389508  0.81283957  0.18193888  1  0.404763  0  -0.062355  -0.12761  0  3.880065  0
C  C220  1  0.57610144  0.31806651  0.68715306  1  0.404415  0  -0.062386  -0.127529  0  3.879784  0
C  C221  1  0.58132227  0.42389230  0.18194751  1  0.393348  0  -0.062374  -0.127514  0  3.87992  0
C  C222  1  0.18713488  0.41868108  0.07611027  1  0.399783  0  -0.062395  -0.127415  0  3.879572  0
C  C223  1  0.68193075  0.81284751  0.08132611  1  0.426991  0  -0.062435  -0.127755  0  3.880027  0
C  C224  1  0.81805884  0.07612186  0.41868082  1  0.393319  0  -0.062489  -0.127647  0  3.880044  0
C  C225  1  0.31283428  0.18193819  0.42389731  1  0.404935  0  -0.062483  -0.127618  0  3.880355  0
C  C226  1  0.91869023  0.68714524  0.31806190  1  0.427765  0  -0.062383  -0.127354  0  3.879595  0
C  C227  1  0.92387547  0.08133366  0.81285809  1  0.400204  0  -0.062305  -0.127274  0  3.879562  0
C  C228  1  0.57610577  0.68713485  0.41868312  1  0.398993  0  -0.062372  -0.12733  0  3.87996  0
C  C229  1  0.92388952  0.18192011  0.08133864  1  0.392876  0  -0.062253  -0.127405  0  3.879631  0
C  C230  1  0.68193404  0.42389370  0.81284216  1  0.404896  0  -0.062486  -0.127741  0  3.88003  0
C  C231  1  0.58134037  0.81284516  0.42388918  1  0.399061  0  -0.062318  -0.127468  0  3.880115  0
C  C232  1  0.31281650  0.08132682  0.18194929  1  0.430903  0  -0.062476  -0.127616  0  3.880426  0
C  C233  1  0.18712775  0.07611583  0.31807260  1  0.403598  0  -0.062291  -0.127171  0  3.879775  0
C  C234  1  0.91868273  0.31807195  0.07609331  1  0.394567  0  -0.062447  -0.127599  0  3.879939  0
C  C235  1  0.81806596  0.41867257  0.68716170  1  0.428056  0  -0.062535  -0.127796  0  3.880296  0
C  C236  1  0.42388805  0.58134119  0.68193458  1  0.393122  0  -0.062418  -0.127495  0  3.880258  0
C  C237  1  0.68715206  0.57609050  0.91867688  1  0.398562  0  -0.062345  -0.127378  0  3.880199  0
C  C238  1  0.18194652  0.31282402  0.92388840  1  0.399951  0  -0.062363  -0.127587  0  3.880438  0
C  C239  1  0.41869409  0.81806615  0.18713365  1  0.427194  0  -0.06231  -0.127147  0  3.879574  0
C  C240  1  0.08132920  0.92389176  0.31283693  1  0.399319  0  -0.062397  -0.127451  0  3.879845  0
C  C241  1  0.31804767  0.91869481  0.57610892  1  0.394216  0  -0.062464  -0.127744  0  3.879733  0
C  C242  1  0.81284296  0.68194408  0.58130640  1  0.430871  0  -0.062485  -0.127673  0  3.879877  0
C  C243  1  0.07610616  0.18714066  0.81807387  1  0.40404  0  -0.062401  -0.127606  0  3.879847  0
C  C244  1  0.42390675  0.68194025  0.31283687  1  0.404785  0  -0.062441  -0.127581  0  3.879836  0
C  C245  1  0.41867440  0.57611816  0.81805357  1  0.393172  0  -0.062462  -0.127542  0  3.879934  0
C  C246  1  0.81284736  0.58131386  0.92389280  1  0.399305  0  -0.062433  -0.127633  0  3.879779  0
C  C247  1  0.31808432  0.18712915  0.91867105  1  0.426963  0  -0.062306  -0.127278  0  3.879644  0
C  C248  1  0.18192495  0.92390726  0.58133446  1  0.393347  0  -0.062376  -0.127402  0  3.879926  0
C  C249  1  0.68716601  0.81806392  0.57608917  1  0.405242  0  -0.062426  -0.127542  0  3.879936  0
C  C250  1  0.08133922  0.31283709  0.68193586  1  0.428445  0  -0.062317  -0.127545  0  3.879998  0
C  C251  1  0.07611371  0.91867149  0.18714979  1  0.400252  0  -0.062444  -0.127519  0  3.87978  0
C  C252  1  0.42389913  0.31284359  0.58131644  1  0.399278  0  -0.062431  -0.127703  0  3.879972  0
C  C253  1  0.07609158  0.81808349  0.91868421  1  0.3943  0  -0.062408  -0.127491  0  3.880159  0
C  C254  1  0.31806653  0.57610870  0.18715309  1  0.404978  0  -0.062331  -0.127331  0  3.87989  0
C  C255  1  0.41869436  0.18714788  0.57608926  1  0.399458  0  -0.062358  -0.127422  0  3.879793  0
C  C256  1  0.68714011  0.91866425  0.81807860  1  0.427153  0  -0.062287  -0.127289  0  3.879643  0
C  C257  1  0.81283536  0.92389806  0.68194263  1  0.404779  0  -0.062489  -0.12772  0  3.880268  0
C  C258  1  0.08132522  0.68194326  0.92389507  1  0.393152  0  -0.062472  -0.127778  0  3.880253  0
C  C259  1  0.18195446  0.58132575  0.31283577  1  0.42775  0  -0.062535  -0.127673  0  3.880211  0
O  O260  1  0.58844275  0.37475052  0.45984749  1  -1.183587  0  -0.325567  -0.583244  0  2.32014  0
O  O261  1  0.42301290  0.41157218  0.12525918  1  -1.178091  0  -0.32567  -0.583266  0  2.319964  0
O  O262  1  0.95983692  0.57694491  0.08846301  1  -1.190872  0  -0.325491  -0.583076  0  2.319666  0
O  O263  1  0.62523593  0.04018326  0.92307421  1  -1.187285  0  -0.32573  -0.58347  0  2.319576  0
O  O264  1  0.87474317  0.08848206  0.57694782  1  -1.17815  0  -0.325833  -0.583629  0  2.319472  0
O  O265  1  0.54019185  0.12522995  0.41148297  1  -1.183448  0  -0.325777  -0.583413  0  2.319606  0
O  O266  1  0.07696297  0.45984088  0.37474695  1  -1.187376  0  -0.325706  -0.583428  0  2.319987  0
O  O267  1  0.91153850  0.92305246  0.04017273  1  -1.190772  0  -0.32564  -0.583293  0  2.319937  0
O  O268  1  0.58843712  0.45985512  0.57696210  1  -1.191062  0  -0.32565  -0.583426  0  2.319963  0
O  O269  1  0.62523795  0.41153139  0.04017251  1  -1.183251  0  -0.325623  -0.583311  0  2.319652  0
O  O270  1  0.07693114  0.37475189  0.08847300  1  -1.178346  0  -0.325548  -0.583292  0  2.31999  0
O  O271  1  0.54018236  0.92307273  0.12523931  1  -1.187297  0  -0.325642  -0.583376  0  2.319666  0
O  O272  1  0.95983937  0.08845507  0.37474988  1  -1.183399  0  -0.325636  -0.583222  0  2.319853  0
O  O273  1  0.42303713  0.04015543  0.41155492  1  -1.19076  0  -0.325642  -0.583265  0  2.320127  0
O  O274  1  0.87477380  0.57692363  0.45983002  1  -1.187691  0  -0.325494  -0.583054  0  2.320019  0
O  O275  1  0.91153256  0.12526847  0.92304734  1  -1.178769  0  -0.3257  -0.583447  0  2.319973  0
O  O276  1  0.58847736  0.57693682  0.37475969  1  -1.17824  0  -0.325617  -0.583271  0  2.319767  0
O  O277  1  0.91151319  0.04017168  0.12526823  1  -1.183735  0  -0.325811  -0.583629  0  2.31977  0
O  O278  1  0.54016987  0.41151887  0.92307152  1  -1.190471  0  -0.325597  -0.583315  0  2.319665  0
O  O279  1  0.62527783  0.92302405  0.41153020  1  -1.178458  0  -0.325721  -0.583575  0  2.320119  0
O  O280  1  0.42301310  0.12524736  0.04017091  1  -1.187035  0  -0.325537  -0.583104  0  2.320113  0
O  O281  1  0.07692728  0.08847508  0.45984403  1  -1.190793  0  -0.325575  -0.583403  0  2.319974  0
O  O282  1  0.87475972  0.45984598  0.08842595  1  -1.18302  0  -0.32547  -0.583034  0  2.319994  0
O  O283  1  0.95984568  0.37474339  0.57696315  1  -1.187273  0  -0.325646  -0.583263  0  2.319984  0
O  O284  1  0.41152629  0.62525950  0.54016500  1  -1.183208  0  -0.325662  -0.583327  0  2.31973  0
O  O285  1  0.57695504  0.58844980  0.87474179  1  -1.178465  0  -0.325638  -0.583335  0  2.319877  0
O  O286  1  0.04019173  0.42304858  0.91150507  1  -1.189904  0  -0.325833  -0.583586  0  2.319665  0
O  O287  1  0.37475877  0.95985242  0.07695358  1  -1.187811  0  -0.325591  -0.583291  0  2.32018  0
O  O288  1  0.12523943  0.91153936  0.42305171  1  -1.178059  0  -0.325562  -0.583108  0  2.319848  0
O  O289  1  0.45983863  0.87475667  0.58845151  1  -1.183468  0  -0.325592  -0.583296  0  2.319849  0
O  O290  1  0.92303749  0.54015814  0.62523713  1  -1.186746  0  -0.325519  -0.583168  0  2.320126  0
O  O291  1  0.08846218  0.07694243  0.95984990  1  -1.190959  0  -0.325624  -0.583325  0  2.3199  0
O  O292  1  0.41156048  0.54016497  0.42303108  1  -1.190807  0  -0.325576  -0.583211  0  2.320181  0
O  O293  1  0.37474997  0.58846163  0.95983810  1  -1.183385  0  -0.325686  -0.583311  0  2.319698  0
O  O294  1  0.92305717  0.62524042  0.91151860  1  -1.177984  0  -0.325664  -0.583298  0  2.31982  0
O  O295  1  0.45986326  0.07695513  0.87472806  1  -1.187498  0  -0.325633  -0.583427  0  2.319903  0
O  O296  1  0.04015251  0.91153537  0.62525670  1  -1.183628  0  -0.325647  -0.583412  0  2.320093  0
O  O297  1  0.57694330  0.95983771  0.58846707  1  -1.190899  0  -0.325511  -0.583156  0  2.319736  0
O  O298  1  0.12526231  0.42305013  0.54017432  1  -1.187887  0  -0.325815  -0.583613  0  2.319807  0
O  O299  1  0.08847754  0.87476740  0.07692889  1  -1.177914  0  -0.325515  -0.583106  0  2.31989  0
O  O300  1  0.41150970  0.42306730  0.62524002  1  -1.178238  0  -0.325624  -0.58344  0  2.319657  0
O  O301  1  0.08846860  0.95984348  0.87476168  1  -1.183457  0  -0.325545  -0.583305  0  2.319651  0
O  O302  1  0.45983399  0.58848247  0.07692483  1  -1.190658  0  -0.325614  -0.583312  0  2.319586  0
O  O303  1  0.37476485  0.07696933  0.58840998  1  -1.178193  0  -0.325589  -0.583165  0  2.319775  0
O  O304  1  0.57696526  0.87472631  0.95984596  1  -1.187952  0  -0.325696  -0.583385  0  2.319634  0
O  O305  1  0.92304217  0.91154949  0.54017217  1  -1.190667  0  -0.325652  -0.583306  0  2.319908  0
O  O306  1  0.12525067  0.54018038  0.91154284  1  -1.183099  0  -0.325694  -0.583426  0  2.319869  0
O  O307  1  0.04018512  0.62524029  0.42305857  1  -1.187577  0  -0.325773  -0.583484  0  2.319852  0
O  O308  1  0.69086163  0.29246677  0.37254480  1  -1.191726  0  -0.359204  -0.565588  0  2.30886  0
O  O309  1  0.35585573  0.30914348  0.20754463  1  -1.191181  0  -0.359043  -0.565451  0  2.308749  0
O  O310  1  0.87254902  0.64413668  0.19085098  1  -1.18754  0  -0.359269  -0.565677  0  2.308576  0
O  O311  1  0.70755071  0.12746285  0.85583993  1  -1.18663  0  -0.359054  -0.565386  0  2.308706  0
O  O312  1  0.79243867  0.19086172  0.64416265  1  -1.191695  0  -0.359041  -0.565441  0  2.308884  0
O  O313  1  0.62744044  0.20758353  0.30916017  1  -1.192552  0  -0.359096  -0.565385  0  2.308644  0
O  O314  1  0.14414666  0.37255576  0.29244944  1  -1.186754  0  -0.359193  -0.565617  0  2.308618  0
O  O315  1  0.80915264  0.85585093  0.12744374  1  -1.188324  0  -0.359159  -0.565645  0  2.308404  0
O  O316  1  0.69084216  0.37256585  0.64415194  1  -1.18757  0  -0.359283  -0.565805  0  2.308433  0
O  O317  1  0.70757233  0.30916668  0.12744809  1  -1.192489  0  -0.35915  -0.565493  0  2.308613  0
O  O318  1  0.14413696  0.29245494  0.19085045  1  -1.190972  0  -0.359213  -0.56558  0  2.30863  0
O  O319  1  0.62745075  0.85582354  0.20756212  1  -1.18646  0  -0.359178  -0.565632  0  2.308635  0
O  O320  1  0.87255393  0.19086178  0.29244996  1  -1.192152  0  -0.359003  -0.565384  0  2.308751  0
O  O321  1  0.35584251  0.12744469  0.30914877  1  -1.188364  0  -0.35906  -0.565553  0  2.308625  0
O  O322  1  0.79245614  0.64414571  0.37255296  1  -1.186432  0  -0.359172  -0.565582  0  2.308627  0
O  O323  1  0.80915703  0.20758329  0.85583163  1  -1.191496  0  -0.359042  -0.565435  0  2.308499  0
O  O324  1  0.69082850  0.64416561  0.29244028  1  -1.19077  0  -0.359243  -0.565785  0  2.308558  0
O  O325  1  0.80915190  0.12745064  0.20757008  1  -1.192529  0  -0.358966  -0.56537  0  2.308456  0
O  O326  1  0.62744403  0.30915819  0.85583754  1  -1.188402  0  -0.359216  -0.565531  0  2.309022  0
O  O327  1  0.70758273  0.85581628  0.30916375  1  -1.191779  0  -0.359144  -0.565602  0  2.308434  0
O  O328  1  0.35583297  0.20754836  0.12746298  1  -1.18617  0  -0.359217  -0.56574  0  2.308767  0
O  O329  1  0.14414438  0.19084191  0.37257306  1  -1.187875  0  -0.359216  -0.565645  0  2.308476  0
O  O330  1  0.79246010  0.37255635  0.19084378  1  -1.191699  0  -0.359205  -0.565617  0  2.309103  0
O  O331  1  0.87255481  0.29244125  0.64415475  1  -1.186779  0  -0.359114  -0.565514  0  2.308639  0
O  O332  1  0.30915303  0.70758126  0.62743603  1  -1.192545  0  -0.358979  -0.565413  0  2.308518  0
O  O333  1  0.64416952  0.69082812  0.79243342  1  -1.191129  0  -0.359206  -0.565704  0  2.308722  0
O  O334  1  0.12745363  0.35579383  0.80916212  1  -1.188213  0  -0.358966  -0.56534  0  2.308498  0
O  O335  1  0.29246870  0.87254533  0.14412805  1  -1.186122  0  -0.359207  -0.565557  0  2.308677  0
O  O336  1  0.20756668  0.80916069  0.35583179  1  -1.19122  0  -0.359151  -0.565562  0  2.308848  0
O  O337  1  0.37253672  0.79246399  0.69085534  1  -1.191762  0  -0.35926  -0.565652  0  2.308732  0
O  O338  1  0.85585237  0.62745162  0.70753904  1  -1.18629  0  -0.359261  -0.565751  0  2.308801  0
O  O339  1  0.19087103  0.14411908  0.87254214  1  -1.187611  0  -0.359064  -0.565442  0  2.308598  0
O  O340  1  0.30916009  0.62745673  0.35584010  1  -1.188281  0  -0.359274  -0.565748  0  2.308869  0
O  O341  1  0.29244269  0.69085778  0.87255128  1  -1.19234  0  -0.359094  -0.565385  0  2.308804  0
O  O342  1  0.85584363  0.70754379  0.80915181  1  -1.191129  0  -0.359184  -0.565713  0  2.308591  0
O  O343  1  0.37257864  0.14412609  0.79244375  1  -1.18633  0  -0.359112  -0.565809  0  2.308843  0
O  O344  1  0.12743845  0.80916071  0.70756536  1  -1.191957  0  -0.359148  -0.565524  0  2.308805  0
O  O345  1  0.64416613  0.87254838  0.69083641  1  -1.188336  0  -0.359205  -0.565657  0  2.308835  0
O  O346  1  0.20758197  0.35580611  0.62744800  1  -1.186732  0  -0.359025  -0.565417  0  2.30857  0
O  O347  1  0.19085305  0.79243623  0.14415431  1  -1.19139  0  -0.359017  -0.56529  0  2.308473  0
O  O348  1  0.30916421  0.35581152  0.70756477  1  -1.191141  0  -0.359157  -0.565689  0  2.308276  0
O  O349  1  0.19083300  0.87256980  0.79245743  1  -1.19138  0  -0.359173  -0.565778  0  2.308824  0
O  O350  1  0.37256608  0.69083089  0.14417748  1  -1.18841  0  -0.359203  -0.565588  0  2.308882  0
O  O351  1  0.29247819  0.14412464  0.69084129  1  -1.190646  0  -0.359227  -0.56586  0  2.309008  0
O  O352  1  0.64415723  0.79242625  0.87256311  1  -1.186608  0  -0.358997  -0.565508  0  2.308427  0
O  O353  1  0.85585568  0.80915127  0.62745123  1  -1.187986  0  -0.359187  -0.565624  0  2.308655  0
O  O354  1  0.20755545  0.62745885  0.80915499  1  -1.192296  0  -0.359105  -0.565516  0  2.30858  0
O  O355  1  0.12747709  0.70754895  0.35584535  1  -1.186611  0  -0.359025  -0.565361  0  2.308633  0
O  O356  1  0.61991349  0.38010698  0.24999618  1  -1.083431  0  -0.255921  -0.19708  0  2.755568  0
O  O357  1  0.24998656  0.38009660  0.11991099  1  -1.091431  0  -0.255847  -0.197068  0  2.754957  0
O  O358  1  0.75000387  0.74999700  0.11990429  1  -1.101109  0  -0.255797  -0.196994  0  2.754278  0
O  O359  1  0.61990575  0.25000681  0.74999721  1  -1.101217  0  -0.255825  -0.197019  0  2.754908  0
O  O360  1  0.88008043  0.11992060  0.75000232  1  -1.091578  0  -0.25572  -0.197041  0  2.755344  0
O  O361  1  0.74998687  0.11993672  0.38009860  1  -1.082393  0  -0.255855  -0.19699  0  2.754745  0
O  O362  1  0.25000200  0.24999907  0.38008856  1  -1.101306  0  -0.255804  -0.196964  0  2.755401  0
O  O363  1  0.88010731  0.74997893  0.24999444  1  -1.101333  0  -0.255927  -0.197164  0  2.754975  0
O  O364  1  0.61992084  0.74998348  0.38009402  1  -1.091206  0  -0.255953  -0.19745  0  2.754573  0
O  O365  1  0.88009973  0.24999707  0.11992519  1  -1.082622  0  -0.255997  -0.197452  0  2.754446  0
O  O366  1  0.75000160  0.38009127  0.74999851  1  -1.10142  0  -0.255803  -0.196817  0  2.755143  0
O  O367  1  0.24997054  0.11992190  0.25000130  1  -1.101478  0  -0.255999  -0.197315  0  2.755382  0
O  O368  1  0.38008899  0.61992018  0.74999638  1  -1.08276  0  -0.255699  -0.196958  0  2.755316  0
O  O369  1  0.75000785  0.61988659  0.88008099  1  -1.091237  0  -0.255962  -0.197351  0  2.754902  0
O  O370  1  0.25000190  0.24996708  0.88010077  1  -1.101261  0  -0.255985  -0.197164  0  2.755197  0
O  O371  1  0.38009811  0.75000975  0.24998791  1  -1.101264  0  -0.255973  -0.197175  0  2.754892  0
O  O372  1  0.11992184  0.88008894  0.24999074  1  -1.091748  0  -0.255805  -0.197177  0  2.755192  0
O  O373  1  0.24998642  0.88011019  0.61991939  1  -1.08327  0  -0.255895  -0.19703  0  2.75492  0
O  O374  1  0.75001210  0.75000706  0.61988611  1  -1.101373  0  -0.25595  -0.197029  0  2.754945  0
O  O375  1  0.11994163  0.24995871  0.74998789  1  -1.101173  0  -0.255974  -0.197042  0  2.754765  0
O  O376  1  0.38010931  0.24998431  0.61990625  1  -1.091393  0  -0.256019  -0.197258  0  2.754798  0
O  O377  1  0.11989977  0.75001623  0.88009287  1  -1.082488  0  -0.255961  -0.197257  0  2.755056  0
O  O378  1  0.25001738  0.61990234  0.25000909  1  -1.101437  0  -0.255722  -0.19705  0  2.755458  0
O  O379  1  0.74999928  0.88008346  0.75000642  1  -1.101103  0  -0.255796  -0.197152  0  2.754642  0
O  O380  1  0.71370329  0.21363178  0.03634826  1  -1.268001  0  -0.588727  -0.791277  0  2.074222  0
O  O381  1  0.96368425  0.28626690  0.28639926  1  -1.267876  0  -0.588728  -0.791363  0  2.074091  0
O  O382  1  0.53637830  0.03626961  0.21380518  1  -1.27909  0  -0.588755  -0.791814  0  2.073599  0
O  O383  1  0.78624408  0.46372907  0.46362045  1  -1.279733  0  -0.588828  -0.791912  0  2.073634  0
O  O384  1  0.71373603  0.03636010  0.03631151  1  -1.279378  0  -0.58865  -0.79129  0  2.074177  0
O  O385  1  0.78622382  0.28642615  0.46372057  1  -1.267658  0  -0.588791  -0.791871  0  2.073533  0
O  O386  1  0.53637747  0.21382448  0.21352750  1  -1.266725  0  -0.58871  -0.791523  0  2.073898  0
O  O387  1  0.96366145  0.46367795  0.28633732  1  -1.279736  0  -0.588749  -0.791342  0  2.074098  0
O  O388  1  0.71359433  0.03636000  0.21374621  1  -1.267613  0  -0.588749  -0.791561  0  2.073836  0
O  O389  1  0.78640465  0.46368929  0.28623742  1  -1.26821  0  -0.588768  -0.791687  0  2.073778  0
O  O390  1  0.96366925  0.28638915  0.46366550  1  -1.278846  0  -0.588801  -0.791474  0  2.074016  0
O  O391  1  0.53636724  0.21354428  0.03627990  1  -1.27804  0  -0.588635  -0.791585  0  2.0738  0
O  O392  1  0.28636619  0.78629595  0.96368273  1  -1.267885  0  -0.588805  -0.791526  0  2.073976  0
O  O393  1  0.03633789  0.71364068  0.71370255  1  -1.267841  0  -0.58875  -0.791581  0  2.073903  0
O  O394  1  0.46370506  0.96364479  0.78638246  1  -1.278512  0  -0.588793  -0.791877  0  2.073557  0
O  O395  1  0.21379346  0.53628418  0.53636762  1  -1.280017  0  -0.588721  -0.791692  0  2.073568  0
O  O396  1  0.28639067  0.96368793  0.96364054  1  -1.278571  0  -0.58874  -0.791493  0  2.073982  0
O  O397  1  0.21368740  0.71364680  0.53632745  1  -1.267938  0  -0.588659  -0.791224  0  2.07398  0
O  O398  1  0.46366007  0.78629103  0.78634965  1  -1.26694  0  -0.588809  -0.791696  0  2.073862  0
O  O399  1  0.03633402  0.53630628  0.71361991  1  -1.278578  0  -0.588814  -0.791871  0  2.07384  0
O  O400  1  0.28643265  0.96363617  0.78623086  1  -1.265521  0  -0.588742  -0.79148  0  2.073955  0
O  O401  1  0.21361322  0.53630212  0.71373554  1  -1.267797  0  -0.588803  -0.791692  0  2.073909  0
O  O402  1  0.03632177  0.71367549  0.53634101  1  -1.279716  0  -0.588653  -0.791309  0  2.074215  0
O  O403  1  0.46365005  0.78638455  0.96370293  1  -1.278499  0  -0.588839  -0.791908  0  2.073498  0
