# generated using pymatgen
data_CdH21C20Br(NO)4
_symmetry_space_group_name_H-M   'P 1'
_cell_length_a   8.83559306
_cell_length_b   21.09974817
_cell_length_c   25.82622276
_cell_angle_alpha   89.99990063
_cell_angle_beta   90.00106176
_cell_angle_gamma   89.99976739
_symmetry_Int_Tables_number   1
_chemical_formula_structural   CdH21C20Br(NO)4
_chemical_formula_sum   'Cd8 H168 C160 Br8 N32 O32'
_cell_volume   4814.75141893
_cell_formula_units_Z   8
loop_
 _symmetry_equiv_pos_site_id
 _symmetry_equiv_pos_as_xyz
  1  'x, y, z'
loop_
 _atom_site_type_symbol
 _atom_site_label
 _atom_site_symmetry_multiplicity
 _atom_site_fract_x
 _atom_site_fract_y
 _atom_site_fract_z
 _atom_site_occupancy
 _atom_site_pbe_bader_charge
 _atom_site_pbe_bader_spin_density
 _atom_site_pbe_cm5_charge
 _atom_site_pbe_ddec_charge
 _atom_site_pbe_ddec_spin_density
 _atom_site_pbe_ddec_sum_bond_order
 _atom_site_pbe_magmom
Cd  Cd0  1  0.25001562  0.09158824  0.75000122  1  1.232082  0  0.767611  0.848975  0  2.181595  0
Cd  Cd1  1  0.24998578  0.40841956  0.25000802  1  1.232114  0  0.767565  0.848856  0  2.181984  0
Cd  Cd2  1  0.75000185  0.90840710  0.24999569  1  1.232108  0  0.767636  0.848999  0  2.181584  0
Cd  Cd3  1  0.74998643  0.59158952  0.74999857  1  1.23209  0  0.767629  0.848928  0  2.1818  0
Cd  Cd4  1  0.15032021  0.75000587  0.99999712  1  1.23387  0  0.76547  0.861483  0  2.178142  0
Cd  Cd5  1  0.34967184  0.74999675  0.49999819  1  1.234187  0  0.765539  0.861551  0  2.178088  0
Cd  Cd6  1  0.84966901  0.25000263  0.99999659  1  1.234161  0  0.765489  0.8615  0  2.178113  0
Cd  Cd7  1  0.65033885  0.24999906  0.50000221  1  1.234071  0  0.765546  0.861573  0  2.178065  0
H  H8  1  0.57769089  0.89806510  0.99901874  1  0.07842  0  0.103559  0.112863  0  1.033223  0
H  H9  1  0.57766405  0.60192660  0.00098954  1  0.078817  0  0.103603  0.113064  0  1.032904  0
H  H10  1  0.92230755  0.60192293  0.49902397  1  0.078417  0  0.10356  0.112925  0  1.033245  0
H  H11  1  0.92232654  0.89805822  0.50098920  1  0.078581  0  0.103585  0.112975  0  1.033036  0
H  H12  1  0.42233904  0.10192740  0.00097198  1  0.078285  0  0.103551  0.112921  0  1.03317  0
H  H13  1  0.42231495  0.39806874  0.99901280  1  0.078675  0  0.103575  0.112991  0  1.03301  0
H  H14  1  0.07767824  0.39806198  0.50099115  1  0.078693  0  0.103568  0.113013  0  1.032867  0
H  H15  1  0.07768642  0.10193238  0.49901546  1  0.078533  0  0.103548  0.112952  0  1.033014  0
H  H16  1  0.63845404  0.04231088  0.88186265  1  0.115672  0  0.105064  0.113498  0  1.042792  0
H  H17  1  0.63841881  0.45769484  0.11815873  1  0.115989  0  0.105034  0.113505  0  1.042795  0
H  H18  1  0.86154966  0.45768726  0.38185924  1  0.115584  0  0.105065  0.113481  0  1.042723  0
H  H19  1  0.86156036  0.04230528  0.61814341  1  0.115743  0  0.105041  0.11348  0  1.042781  0
H  H20  1  0.36155325  0.95768304  0.11812923  1  0.115428  0  0.105072  0.113442  0  1.042804  0
H  H21  1  0.36154661  0.54230476  0.88184981  1  0.115835  0  0.104982  0.113367  0  1.042812  0
H  H22  1  0.13845198  0.54230475  0.61814929  1  0.115862  0  0.104995  0.113354  0  1.042791  0
H  H23  1  0.13843561  0.95769290  0.38185273  1  0.116208  0  0.105048  0.113492  0  1.042725  0
H  H24  1  0.24019916  0.92525635  0.88076653  1  0.130088  0  0.108719  0.122426  0  1.003408  0
H  H25  1  0.24015864  0.57474634  0.11923420  1  0.129623  0  0.108695  0.122422  0  1.003402  0
H  H26  1  0.25980903  0.57473989  0.38077812  1  0.13017  0  0.108709  0.12243  0  1.003356  0
H  H27  1  0.25984212  0.92526799  0.61922854  1  0.129954  0  0.108645  0.122446  0  1.003304  0
H  H28  1  0.75980134  0.07474325  0.11923465  1  0.130115  0  0.108716  0.122381  0  1.003372  0
H  H29  1  0.75981356  0.42525895  0.88076891  1  0.130082  0  0.108673  0.12239  0  1.003393  0
H  H30  1  0.74018468  0.42525924  0.61923622  1  0.129939  0  0.108657  0.122296  0  1.003503  0
H  H31  1  0.74016291  0.07473778  0.38077496  1  0.129895  0  0.108659  0.122392  0  1.003359  0
H  H32  1  0.17109977  0.24897546  0.78468770  1  0.079457  0  0.11293  0.099996  0  1.030308  0
H  H33  1  0.17111370  0.25103153  0.21531524  1  0.079229  0  0.112957  0.100084  0  1.030206  0
H  H34  1  0.32889220  0.25102659  0.28468283  1  0.079336  0  0.112883  0.099968  0  1.030313  0
H  H35  1  0.32890053  0.24897966  0.71531762  1  0.079062  0  0.112894  0.099969  0  1.030257  0
H  H36  1  0.82889395  0.75102367  0.21531696  1  0.079019  0  0.112851  0.099946  0  1.030343  0
H  H37  1  0.82888794  0.74897376  0.78468478  1  0.079091  0  0.112883  0.099986  0  1.030264  0
H  H38  1  0.67110490  0.74898297  0.71531409  1  0.079224  0  0.112907  0.099928  0  1.030259  0
H  H39  1  0.67109318  0.75102563  0.28468510  1  0.079488  0  0.112949  0.100068  0  1.030343  0
H  H40  1  0.90155327  0.28374961  0.83212394  1  0.123523  0  0.131321  0.138833  0  0.991115  0
H  H41  1  0.90156949  0.21625330  0.16787509  1  0.123565  0  0.131199  0.138639  0  0.991225  0
H  H42  1  0.59843527  0.21624674  0.33212115  1  0.123481  0  0.131289  0.13879  0  0.991189  0
H  H43  1  0.59843616  0.28375620  0.66787442  1  0.12333  0  0.13128  0.138766  0  0.991005  0
H  H44  1  0.09842912  0.71624383  0.16787607  1  0.12337  0  0.13126  0.138806  0  0.991087  0
H  H45  1  0.09843328  0.78375199  0.83212415  1  0.123583  0  0.131289  0.138836  0  0.991131  0
H  H46  1  0.40156296  0.78375712  0.66787151  1  0.123176  0  0.131258  0.138756  0  0.991035  0
H  H47  1  0.40155190  0.71625193  0.33212366  1  0.123567  0  0.131237  0.138691  0  0.991226  0
H  H48  1  0.95969972  0.03808317  0.78168138  1  0.09894  0  0.105348  0.167611  0  0.994665  0
H  H49  1  0.95970725  0.46192058  0.21831453  1  0.098894  0  0.105369  0.16767  0  0.994656  0
H  H50  1  0.54030871  0.46191566  0.28168252  1  0.099059  0  0.105353  0.16761  0  0.994711  0
H  H51  1  0.54030001  0.03808739  0.71831384  1  0.099182  0  0.105353  0.167626  0  0.994792  0
H  H52  1  0.04030870  0.96191216  0.21831863  1  0.099098  0  0.105324  0.167625  0  0.994689  0
H  H53  1  0.04029891  0.53808471  0.78168161  1  0.098972  0  0.105359  0.167637  0  0.99466  0
H  H54  1  0.45972235  0.53809058  0.71830936  1  0.099438  0  0.10531  0.167555  0  0.994855  0
H  H55  1  0.45969597  0.96191885  0.28168385  1  0.099012  0  0.105377  0.167676  0  0.994697  0
H  H56  1  0.77220389  0.06115515  0.79881220  1  0.055942  0  0.100774  0.150598  0  1.009682  0
H  H57  1  0.77220618  0.43884844  0.20118602  1  0.056094  0  0.100772  0.150629  0  1.00964  0
H  H58  1  0.72780321  0.43884032  0.29881339  1  0.055902  0  0.100769  0.150624  0  1.009639  0
H  H59  1  0.72779562  0.06116051  0.70118416  1  0.0562  0  0.100823  0.150711  0  1.009683  0
H  H60  1  0.22780227  0.93883829  0.20118704  1  0.055922  0  0.100762  0.150629  0  1.009636  0
H  H61  1  0.22779545  0.56115827  0.79881245  1  0.055954  0  0.100748  0.150626  0  1.009716  0
H  H62  1  0.27222219  0.56115881  0.70117965  1  0.055918  0  0.100819  0.150642  0  1.009428  0
H  H63  1  0.27220149  0.93884668  0.29881431  1  0.056088  0  0.100783  0.150634  0  1.009639  0
H  H64  1  0.90984631  0.04676950  0.84774586  1  0.041815  0  0.096803  0.144247  0  1.000862  0
H  H65  1  0.90984466  0.45323149  0.15225091  1  0.041765  0  0.096743  0.144207  0  1.00093  0
H  H66  1  0.59016459  0.45322681  0.34774732  1  0.042154  0  0.096757  0.144213  0  1.000945  0
H  H67  1  0.59015447  0.04677757  0.65224975  1  0.042632  0  0.096748  0.144187  0  1.001007  0
H  H68  1  0.09015872  0.95322488  0.15225377  1  0.04214  0  0.096797  0.144262  0  1.000935  0
H  H69  1  0.09015810  0.54677190  0.84774678  1  0.041995  0  0.096783  0.144216  0  1.0009  0
H  H70  1  0.40986081  0.54677847  0.65224572  1  0.04261  0  0.09682  0.144215  0  1.001025  0
H  H71  1  0.40984490  0.95323009  0.34774795  1  0.041947  0  0.096784  0.144284  0  1.000924  0
H  H72  1  0.65394984  0.13612957  0.83416305  1  0.099577  0  0.111608  0.101089  0  1.017355  0
H  H73  1  0.65395772  0.36387186  0.16583287  1  0.099742  0  0.111553  0.101025  0  1.017478  0
H  H74  1  0.84604561  0.36386773  0.33416626  1  0.09969  0  0.111561  0.101002  0  1.017386  0
H  H75  1  0.84603876  0.13613338  0.66582971  1  0.099887  0  0.111533  0.100976  0  1.017397  0
H  H76  1  0.34603935  0.86386577  0.16583115  1  0.099879  0  0.111559  0.101009  0  1.017394  0
H  H77  1  0.34604052  0.63612964  0.83416676  1  0.099864  0  0.111508  0.100944  0  1.017385  0
H  H78  1  0.15396168  0.63613472  0.66583066  1  0.099933  0  0.111542  0.100966  0  1.017406  0
H  H79  1  0.15394816  0.86387144  0.33416449  1  0.099616  0  0.111592  0.101081  0  1.017394  0
H  H80  1  0.72623499  0.17234031  0.89134932  1  0.063572  0  0.108678  0.095261  0  0.987613  0
H  H81  1  0.72623672  0.32765673  0.10864822  1  0.063685  0  0.108647  0.095289  0  0.987662  0
H  H82  1  0.77376583  0.32765165  0.39135019  1  0.063496  0  0.108594  0.095183  0  0.987613  0
H  H83  1  0.77375665  0.17235147  0.60864572  1  0.063691  0  0.108642  0.095231  0  0.987732  0
H  H84  1  0.27374967  0.82764981  0.10864760  1  0.063759  0  0.108643  0.095235  0  0.987643  0
H  H85  1  0.27376266  0.67234619  0.89135102  1  0.063448  0  0.108653  0.095274  0  0.987605  0
H  H86  1  0.22623014  0.67234937  0.60864441  1  0.063372  0  0.10868  0.09524  0  0.987695  0
H  H87  1  0.22623480  0.82766141  0.39135120  1  0.063768  0  0.108663  0.095292  0  0.987624  0
H  H88  1  0.62057531  0.24884331  0.79694953  1  0.048034  0  0.091007  0.083947  0  1.005925  0
H  H89  1  0.62059309  0.25116197  0.20305277  1  0.047984  0  0.090997  0.083973  0  1.005844  0
H  H90  1  0.87942378  0.25115739  0.29694807  1  0.048004  0  0.091039  0.083989  0  1.005897  0
H  H91  1  0.87942351  0.24884271  0.70305043  1  0.047971  0  0.091004  0.084  0  1.005859  0
H  H92  1  0.37942633  0.75115487  0.20304933  1  0.048047  0  0.091019  0.084  0  1.005891  0
H  H93  1  0.37941646  0.74884000  0.79694725  1  0.047946  0  0.090985  0.083923  0  1.005842  0
H  H94  1  0.12058465  0.74884411  0.70304807  1  0.047893  0  0.09101  0.084026  0  1.005819  0
H  H95  1  0.12058152  0.75115689  0.29695152  1  0.047849  0  0.091001  0.083911  0  1.005965  0
H  H96  1  0.65135243  0.27756062  0.86075452  1  0.060053  0  0.091703  0.093135  0  1.005327  0
H  H97  1  0.65136476  0.22243845  0.13924952  1  0.060049  0  0.091666  0.093126  0  1.005364  0
H  H98  1  0.84865579  0.22243520  0.36075098  1  0.060005  0  0.091683  0.093119  0  1.005322  0
H  H99  1  0.84865517  0.27756590  0.63924734  1  0.059935  0  0.091698  0.093124  0  1.005316  0
H  H100  1  0.34865260  0.72243377  0.13924588  1  0.059952  0  0.091716  0.09316  0  1.005404  0
H  H101  1  0.34865159  0.77756258  0.86075089  1  0.060004  0  0.091718  0.09316  0  1.005332  0
H  H102  1  0.15134698  0.77756677  0.63924478  1  0.059931  0  0.091713  0.093149  0  1.005429  0
H  H103  1  0.15135665  0.72244034  0.36075771  1  0.060411  0  0.091661  0.093114  0  1.005276  0
H  H104  1  0.37778346  0.26620386  0.84203780  1  0.016386  0  0.089677  0.079874  0  1.00181  0
H  H105  1  0.37779557  0.23379377  0.15796412  1  0.016382  0  0.08965  0.079901  0  1.001836  0
H  H106  1  0.12222181  0.23379616  0.34203785  1  0.016421  0  0.089651  0.079849  0  1.001824  0
H  H107  1  0.12221780  0.26620712  0.65796323  1  0.016316  0  0.089658  0.079907  0  1.001845  0
H  H108  1  0.62221817  0.73379479  0.15796105  1  0.016359  0  0.089655  0.079863  0  1.001811  0
H  H109  1  0.62221511  0.76620109  0.84203551  1  0.016475  0  0.08965  0.07984  0  1.001883  0
H  H110  1  0.87778775  0.76620960  0.65795868  1  0.016292  0  0.089664  0.079886  0  1.00185  0
H  H111  1  0.87779063  0.73379106  0.34203949  1  0.016292  0  0.089665  0.079901  0  1.00182  0
H  H112  1  0.40281737  0.18537588  0.82507379  1  0.04688  0  0.090084  0.087852  0  1.026061  0
H  H113  1  0.40282735  0.31462455  0.17492713  1  0.046525  0  0.090098  0.087879  0  1.026079  0
H  H114  1  0.09718019  0.31462513  0.32507278  1  0.046431  0  0.090093  0.087874  0  1.026039  0
H  H115  1  0.09718355  0.18537914  0.67493124  1  0.046475  0  0.090137  0.087938  0  1.025993  0
H  H116  1  0.59717974  0.81462277  0.17492584  1  0.04652  0  0.090089  0.087832  0  1.026056  0
H  H117  1  0.59717541  0.68537315  0.82507172  1  0.0464  0  0.090146  0.087969  0  1.026012  0
H  H118  1  0.90281804  0.68538205  0.67492839  1  0.04655  0  0.090083  0.087771  0  1.026171  0
H  H119  1  0.90281356  0.81461999  0.32507110  1  0.046455  0  0.090096  0.087844  0  1.02612  0
H  H120  1  0.46313745  0.24023845  0.93332477  1  0.066983  0  0.112407  0.100285  0  0.966396  0
H  H121  1  0.46314321  0.25975998  0.06667576  1  0.066927  0  0.11239  0.100282  0  0.966386  0
H  H122  1  0.03686487  0.25976375  0.43332462  1  0.067047  0  0.112404  0.100263  0  0.966503  0
H  H123  1  0.03686746  0.24023115  0.56667592  1  0.067181  0  0.112403  0.100328  0  0.966237  0
H  H124  1  0.53685966  0.75976304  0.06667370  1  0.066959  0  0.112403  0.100249  0  0.966449  0
H  H125  1  0.53686522  0.74023393  0.93332310  1  0.067135  0  0.112438  0.100358  0  0.966339  0
H  H126  1  0.96312884  0.74023396  0.56667307  1  0.067157  0  0.112377  0.100266  0  0.966405  0
H  H127  1  0.96313983  0.75976656  0.43332642  1  0.067176  0  0.112427  0.100325  0  0.966399  0
H  H128  1  0.48401428  0.16055978  0.91585776  1  0.083555  0  0.113682  0.101011  0  0.991843  0
H  H129  1  0.48400890  0.33943957  0.08414328  1  0.083614  0  0.113708  0.101055  0  0.991812  0
H  H130  1  0.01599727  0.33944341  0.41585543  1  0.083626  0  0.113685  0.100997  0  0.991866  0
H  H131  1  0.01600951  0.16055294  0.58414924  1  0.083733  0  0.113716  0.101014  0  0.991909  0
H  H132  1  0.51599188  0.83944077  0.08414303  1  0.083557  0  0.11368  0.100996  0  0.991878  0
H  H133  1  0.51600179  0.66055529  0.91585518  1  0.083701  0  0.113679  0.100997  0  0.991891  0
H  H134  1  0.98399870  0.66055667  0.58414613  1  0.083763  0  0.113681  0.100968  0  0.991915  0
H  H135  1  0.98400118  0.83944476  0.41585387  1  0.083596  0  0.113681  0.100984  0  0.991923  0
H  H136  1  0.25749891  0.08888803  0.91310098  1  0.15484  0  0.118591  0.119183  0  1.036734  0
H  H137  1  0.25749752  0.41110554  0.08689670  1  0.148304  0  0.118562  0.119101  0  1.036753  0
H  H138  1  0.24251249  0.41111043  0.41310386  1  0.154662  0  0.11854  0.1191  0  1.036657  0
H  H139  1  0.24252104  0.08888933  0.58689799  1  0.15473  0  0.118561  0.119118  0  1.036579  0
H  H140  1  0.74249932  0.91110920  0.08689748  1  0.148435  0  0.118605  0.119202  0  1.036731  0
H  H141  1  0.74252222  0.58889216  0.91309906  1  0.154861  0  0.118582  0.119135  0  1.036659  0
H  H142  1  0.75748122  0.58888823  0.58689500  1  0.154731  0  0.118585  0.119145  0  1.036506  0
H  H143  1  0.75749644  0.91111122  0.41310784  1  0.154491  0  0.118612  0.119225  0  1.036581  0
H  H144  1  0.96174449  0.10733027  0.94688126  1  0.096476  0  0.099058  0.087869  0  1.074323  0
H  H145  1  0.96173804  0.39266211  0.05311544  1  0.09663  0  0.099093  0.087912  0  1.074386  0
H  H146  1  0.53827180  0.39266395  0.44688442  1  0.096555  0  0.099053  0.087846  0  1.074356  0
H  H147  1  0.53827154  0.10733815  0.55311464  1  0.096651  0  0.099087  0.087913  0  1.074298  0
H  H148  1  0.03825375  0.89266981  0.05311643  1  0.096498  0  0.099063  0.087845  0  1.07434  0
H  H149  1  0.03827831  0.60733939  0.94687954  1  0.097074  0  0.099066  0.087897  0  1.07431  0
H  H150  1  0.46172644  0.60733708  0.55311095  1  0.096614  0  0.099078  0.087932  0  1.0743  0
H  H151  1  0.46173801  0.89266571  0.44688499  1  0.096546  0  0.099094  0.087908  0  1.074288  0
H  H152  1  0.08258907  0.32933983  0.94657709  1  0.10504  0  0.100502  0.155456  0  1.024402  0
H  H153  1  0.08259157  0.17065215  0.05342104  1  0.10507  0  0.100553  0.155492  0  1.024279  0
H  H154  1  0.41741284  0.17065524  0.44657676  1  0.105055  0  0.100551  0.155495  0  1.02437  0
H  H155  1  0.41740819  0.32934612  0.55342541  1  0.104948  0  0.100529  0.155447  0  1.024458  0
H  H156  1  0.91741144  0.67065788  0.05342061  1  0.105172  0  0.100509  0.155419  0  1.024409  0
H  H157  1  0.91741006  0.82934651  0.94657472  1  0.104996  0  0.100547  0.15548  0  1.024365  0
H  H158  1  0.58259106  0.82934484  0.55342325  1  0.105133  0  0.10054  0.155477  0  1.024371  0
H  H159  1  0.58258779  0.67065680  0.44657499  1  0.105087  0  0.10053  0.155465  0  1.024409  0
H  H160  1  0.21784181  0.32189276  0.89626703  1  0.052594  0  0.099702  0.146666  0  0.985255  0
H  H161  1  0.21785151  0.17810041  0.10373234  1  0.052582  0  0.099628  0.146581  0  0.985378  0
H  H162  1  0.28215962  0.17810621  0.39626506  1  0.052493  0  0.099694  0.146636  0  0.985236  0
H  H163  1  0.28215891  0.32189538  0.60373665  1  0.052486  0  0.099658  0.146597  0  0.985196  0
H  H164  1  0.78216095  0.67810637  0.10373183  1  0.052657  0  0.099674  0.146613  0  0.985174  0
H  H165  1  0.78215352  0.82189540  0.89626419  1  0.052529  0  0.099651  0.146602  0  0.985169  0
H  H166  1  0.71784654  0.82189387  0.60373457  1  0.052551  0  0.099662  0.146594  0  0.985262  0
H  H167  1  0.71783707  0.67810469  0.39626337  1  0.05245  0  0.09966  0.146586  0  0.985218  0
H  H168  1  0.27727143  0.31675514  0.96155551  1  0.050328  0  0.095604  0.141037  0  1.017736  0
H  H169  1  0.27727640  0.18323935  0.03844307  1  0.050271  0  0.095615  0.141115  0  1.017657  0
H  H170  1  0.22272903  0.18324132  0.46155355  1  0.050403  0  0.095592  0.141052  0  1.01771  0
H  H171  1  0.22272368  0.31675610  0.53844817  1  0.050456  0  0.09563  0.141079  0  1.017706  0
H  H172  1  0.72272681  0.68324447  0.03844334  1  0.050324  0  0.095599  0.141032  0  1.017696  0
H  H173  1  0.72272863  0.81675835  0.96155230  1  0.050425  0  0.095619  0.141093  0  1.017748  0
H  H174  1  0.77727374  0.81675591  0.53844608  1  0.05037  0  0.095642  0.141098  0  1.017631  0
H  H175  1  0.77727116  0.68324350  0.46155146  1  0.050453  0  0.095596  0.141055  0  1.017737  0
C  C176  1  0.53885147  0.92280764  0.96453582  1  0.024677  0  -0.088129  -0.150833  0  3.967652  0
C  C177  1  0.53882335  0.57718317  0.03547105  1  0.024222  0  -0.088146  -0.151243  0  3.967381  0
C  C178  1  0.96114057  0.57717999  0.46454210  1  0.024882  0  -0.087923  -0.150543  0  3.967266  0
C  C179  1  0.96116798  0.92280868  0.53546821  1  0.024114  0  -0.088095  -0.150967  0  3.967556  0
C  C180  1  0.46116941  0.07718533  0.03545606  1  0.024786  0  -0.08815  -0.150885  0  3.967598  0
C  C181  1  0.46115113  0.42281217  0.96453128  1  0.024496  0  -0.088108  -0.150935  0  3.967556  0
C  C182  1  0.03884975  0.42280919  0.53547302  1  0.023901  0  -0.088061  -0.151008  0  3.967314  0
C  C183  1  0.03883591  0.07718713  0.46453412  1  0.024677  0  -0.088083  -0.151011  0  3.967585  0
C  C184  1  0.62415106  0.97092902  0.94196287  1  -0.153509  0  -0.016099  0.112578  0  3.978614  0
C  C185  1  0.62412577  0.52906828  0.05805267  1  -0.152878  0  -0.016025  0.112775  0  3.978265  0
C  C186  1  0.87584880  0.52905961  0.44196481  1  -0.153641  0  -0.016213  0.112421  0  3.978714  0
C  C187  1  0.87586453  0.97092542  0.55804303  1  -0.153298  0  -0.016036  0.112541  0  3.978731  0
C  C188  1  0.37587321  0.02906110  0.05802707  1  -0.152923  0  -0.016191  0.112509  0  3.978561  0
C  C189  1  0.37584870  0.47092990  0.94195315  1  -0.153198  0  -0.016019  0.112609  0  3.978398  0
C  C190  1  0.12414831  0.47092957  0.55804876  1  -0.153015  0  -0.016021  0.112598  0  3.978462  0
C  C191  1  0.12413598  0.02906944  0.44195621  1  -0.153381  0  -0.016065  0.112563  0  3.978518  0
C  C192  1  0.57252590  0.00418250  0.89894937  1  -0.043764  0  -0.089696  -0.154121  0  3.958407  0
C  C193  1  0.57249276  0.49581812  0.10106618  1  -0.043867  0  -0.089685  -0.154183  0  3.957989  0
C  C194  1  0.92747760  0.49581276  0.39895019  1  -0.043682  0  -0.089664  -0.15399  0  3.958254  0
C  C195  1  0.92749227  0.00418014  0.60105481  1  -0.043321  0  -0.089666  -0.153901  0  3.95831  0
C  C196  1  0.42748366  0.99581236  0.10104523  1  -0.043734  0  -0.089535  -0.153845  0  3.958103  0
C  C197  1  0.42747832  0.50418006  0.89893926  1  -0.04379  0  -0.089768  -0.15404  0  3.958222  0
C  C198  1  0.07251951  0.50417925  0.60106221  1  -0.043798  0  -0.089731  -0.153847  0  3.958205  0
C  C199  1  0.07250597  0.99581898  0.39894288  1  -0.043848  0  -0.08965  -0.153827  0  3.958115  0
C  C200  1  0.43246090  0.98796216  0.87715719  1  0.032336  0  -0.018013  -0.012992  0  3.980243  0
C  C201  1  0.43242118  0.51204068  0.12284978  1  0.031929  0  -0.018073  -0.012879  0  3.97998  0
C  C202  1  0.06754937  0.51203551  0.37716418  1  0.031582  0  -0.018008  -0.013137  0  3.980223  0
C  C203  1  0.06756506  0.98796416  0.62284049  1  0.031448  0  -0.018112  -0.013281  0  3.980326  0
C  C204  1  0.56754074  0.01203697  0.12284050  1  0.032269  0  -0.018122  -0.013188  0  3.980227  0
C  C205  1  0.56754876  0.48796081  0.87715333  1  0.031785  0  -0.018099  -0.013101  0  3.980209  0
C  C206  1  0.93245227  0.48796077  0.62284745  1  0.031941  0  -0.01815  -0.013298  0  3.980337  0
C  C207  1  0.93243092  0.01203639  0.37715758  1  0.031416  0  -0.018135  -0.013428  0  3.980372  0
C  C208  1  0.34794107  0.93827820  0.89818443  1  -0.058732  0  -0.077854  -0.114803  0  3.929031  0
C  C209  1  0.34790539  0.56172336  0.10181969  1  -0.059606  0  -0.077783  -0.115016  0  3.928865  0
C  C210  1  0.15206242  0.56171753  0.39819497  1  -0.058109  0  -0.07776  -0.11461  0  3.928817  0
C  C211  1  0.15209443  0.93828389  0.60181101  1  -0.05909  0  -0.077699  -0.114805  0  3.928914  0
C  C212  1  0.65206283  0.06172235  0.10181481  1  -0.059195  0  -0.07779  -0.114655  0  3.928799  0
C  C213  1  0.65207135  0.43828098  0.89818691  1  -0.059103  0  -0.077742  -0.114716  0  3.928792  0
C  C214  1  0.84792677  0.43827876  0.60181743  1  -0.059119  0  -0.077689  -0.114582  0  3.928881  0
C  C215  1  0.84791287  0.06171855  0.39818901  1  -0.058898  0  -0.077709  -0.114673  0  3.928764  0
C  C216  1  0.40056367  0.90581848  0.94181547  1  0.035785  0  -0.018837  -0.017928  0  3.990819  0
C  C217  1  0.40052983  0.59417351  0.05818473  1  0.037287  0  -0.018873  -0.017499  0  3.990093  0
C  C218  1  0.09943880  0.59416910  0.44182873  1  0.035768  0  -0.019049  -0.018292  0  3.990739  0
C  C219  1  0.09946535  0.90582293  0.55818273  1  0.037174  0  -0.018976  -0.017797  0  3.990706  0
C  C220  1  0.59945042  0.09417828  0.05818106  1  0.036178  0  -0.018849  -0.017889  0  3.990588  0
C  C221  1  0.59944691  0.40582609  0.94181838  1  0.036146  0  -0.01893  -0.017982  0  3.990826  0
C  C222  1  0.90055492  0.40582292  0.55818677  1  0.036771  0  -0.018944  -0.017833  0  3.990721  0
C  C223  1  0.90053968  0.09417572  0.44181922  1  0.036352  0  -0.018926  -0.017759  0  3.990535  0
C  C224  1  0.30978284  0.85224870  0.96391446  1  1.552459  0  0.184915  0.547717  0  4.251985  0
C  C225  1  0.30975634  0.64774440  0.03608013  1  1.551673  0  0.184962  0.54771  0  4.251751  0
C  C226  1  0.19021516  0.64774168  0.46392590  1  1.552873  0  0.185089  0.547787  0  4.252091  0
C  C227  1  0.19024669  0.85225447  0.53608148  1  1.551729  0  0.18485  0.547394  0  4.252052  0
C  C228  1  0.69023577  0.14774853  0.03608323  1  1.55206  0  0.184922  0.547547  0  4.252205  0
C  C229  1  0.69022945  0.35225758  0.96391950  1  1.552321  0  0.185089  0.547883  0  4.251809  0
C  C230  1  0.80976497  0.35225556  0.53608534  1  1.5518  0  0.184852  0.547528  0  4.252159  0
C  C231  1  0.80976400  0.14774608  0.46392047  1  1.551903  0  0.185054  0.547751  0  4.252004  0
C  C232  1  0.37406643  0.02463891  0.83148203  1  1.545417  0  0.184135  0.54424  0  4.258412  0
C  C233  1  0.37403603  0.47536868  0.16852723  1  1.545466  0  0.184061  0.543948  0  4.258799  0
C  C234  1  0.12593827  0.47536446  0.33148678  1  1.54614  0  0.184091  0.544251  0  4.258377  0
C  C235  1  0.12595415  0.02464213  0.66851626  1  1.545816  0  0.184178  0.544273  0  4.258032  0
C  C236  1  0.62592954  0.97536117  0.16851683  1  1.545431  0  0.184145  0.544149  0  4.258563  0
C  C237  1  0.62593844  0.52463376  0.83147627  1  1.545752  0  0.184272  0.54445  0  4.258419  0
C  C238  1  0.87406336  0.52463894  0.66852136  1  1.54603  0  0.184231  0.544291  0  4.258537  0
C  C239  1  0.87403730  0.97536505  0.33147988  1  1.545899  0  0.183991  0.544011  0  4.258641  0
C  C240  1  0.07553334  0.21996428  0.79593413  1  0.361374  0  -0.013853  -0.049164  0  4.082714  0
C  C241  1  0.07554411  0.28004193  0.20406821  1  0.361855  0  -0.013858  -0.0494  0  4.082621  0
C  C242  1  0.42445924  0.28003537  0.29593176  1  0.362065  0  -0.013758  -0.049123  0  4.082538  0
C  C243  1  0.42446384  0.21996835  0.70406814  1  0.362469  0  -0.013819  -0.049293  0  4.082863  0
C  C244  1  0.92445698  0.78003295  0.20406860  1  0.362456  0  -0.013775  -0.049177  0  4.082681  0
C  C245  1  0.92445526  0.71996384  0.79593219  1  0.362031  0  -0.013758  -0.049139  0  4.082351  0
C  C246  1  0.57553900  0.71997229  0.70406361  1  0.361902  0  -0.013839  -0.049193  0  4.082645  0
C  C247  1  0.57552874  0.78003742  0.29593265  1  0.361561  0  -0.013912  -0.049367  0  4.082837  0
C  C248  1  0.94249436  0.23816990  0.81885387  1  0.337614  0  -0.000342  -0.10343  0  3.944743  0
C  C249  1  0.94250406  0.26183341  0.18114658  1  0.336799  0  -0.000167  -0.103002  0  3.944336  0
C  C250  1  0.55750026  0.26182838  0.31885114  1  0.337031  0  -0.000315  -0.103293  0  3.944689  0
C  C251  1  0.55749665  0.23817606  0.68114688  1  0.337451  0  -0.000275  -0.103137  0  3.944527  0
C  C252  1  0.05749596  0.76182449  0.18114847  1  0.337166  0  -0.000272  -0.103309  0  3.944498  0
C  C253  1  0.05749644  0.73817235  0.81885304  1  0.336927  0  -0.000332  -0.103488  0  3.944577  0
C  C254  1  0.44249911  0.73817691  0.68114306  1  0.338241  0  -0.0003  -0.103167  0  3.944554  0
C  C255  1  0.44249141  0.76183160  0.31885313  1  0.33722  0  -0.000142  -0.103003  0  3.944787  0
C  C256  1  0.94162192  0.13361985  0.80645646  1  0.98849  0  0.219955  0.345458  0  3.930659  0
C  C257  1  0.94162789  0.36638441  0.19354476  1  0.988128  0  0.220053  0.345434  0  3.931057  0
C  C258  1  0.55837429  0.36637988  0.30645553  1  0.988424  0  0.219921  0.34546  0  3.930776  0
C  C259  1  0.55837802  0.13362408  0.69354095  1  0.988053  0  0.219791  0.345295  0  3.930633  0
C  C260  1  0.05837519  0.86637691  0.19354394  1  0.987631  0  0.219825  0.345351  0  3.930628  0
C  C261  1  0.05837148  0.63362040  0.80645642  1  0.987935  0  0.219976  0.345275  0  3.930826  0
C  C262  1  0.44163414  0.63362541  0.69353713  1  0.988202  0  0.219721  0.345127  0  3.931061  0
C  C263  1  0.44162022  0.86638215  0.30645674  1  0.988093  0  0.220014  0.345617  0  3.930738  0
C  C264  1  0.89248242  0.06640392  0.80868820  1  -0.032634  0  -0.231639  -0.470089  0  3.932474  0
C  C265  1  0.89248422  0.43360042  0.19130962  1  -0.032643  0  -0.231679  -0.470234  0  3.932646  0
C  C266  1  0.60752522  0.43359343  0.30868941  1  -0.033132  0  -0.231587  -0.47007  0  3.932619  0
C  C267  1  0.60751817  0.06640950  0.69130776  1  -0.033675  0  -0.231566  -0.470107  0  3.932848  0
C  C268  1  0.10752374  0.93359094  0.19131143  1  -0.033041  0  -0.231528  -0.47007  0  3.932584  0
C  C269  1  0.10751741  0.56640487  0.80868846  1  -0.032781  0  -0.2316  -0.470034  0  3.932524  0
C  C270  1  0.39249792  0.56641091  0.69130286  1  -0.033974  0  -0.23158  -0.469889  0  3.932665  0
C  C271  1  0.39248007  0.93359769  0.30868993  1  -0.032824  0  -0.231687  -0.470281  0  3.932663  0
C  C272  1  0.70988290  0.17875513  0.84939771  1  0.271954  0  -0.05494  -0.061083  0  3.844024  0
C  C273  1  0.70989150  0.32124573  0.15060011  1  0.271303  0  -0.054832  -0.061146  0  3.844336  0
C  C274  1  0.79011337  0.32124118  0.34939831  1  0.272064  0  -0.054774  -0.060855  0  3.843876  0
C  C275  1  0.79010867  0.17876096  0.65059809  1  0.27176  0  -0.054845  -0.061033  0  3.843977  0
C  C276  1  0.29010854  0.82123878  0.15059959  1  0.271737  0  -0.054816  -0.060934  0  3.8439  0
C  C277  1  0.29011126  0.67875767  0.84939952  1  0.271747  0  -0.054781  -0.06095  0  3.84387  0
C  C278  1  0.20988713  0.67876126  0.65059629  1  0.271709  0  -0.054858  -0.060871  0  3.843926  0
C  C279  1  0.20988391  0.82124622  0.34939960  1  0.271592  0  -0.054914  -0.061103  0  3.844083  0
C  C280  1  0.61095404  0.23661232  0.83824939  1  -0.051868  0  -0.163112  -0.160873  0  3.918933  0
C  C281  1  0.61096607  0.26338918  0.16175246  1  -0.051986  0  -0.163009  -0.160698  0  3.91872  0
C  C282  1  0.88904389  0.26338686  0.33824798  1  -0.051812  0  -0.163114  -0.160883  0  3.91886  0
C  C283  1  0.88904376  0.23661417  0.66175059  1  -0.051831  0  -0.163098  -0.160873  0  3.918833  0
C  C284  1  0.38904306  0.76338396  0.16174985  1  -0.05192  0  -0.163118  -0.160977  0  3.918957  0
C  C285  1  0.38904462  0.73661137  0.83824756  1  -0.051772  0  -0.163074  -0.160796  0  3.918858  0
C  C286  1  0.11095888  0.73661700  0.66174894  1  -0.051522  0  -0.163106  -0.160974  0  3.918889  0
C  C287  1  0.11095787  0.76338875  0.33825097  1  -0.05205  0  -0.16304  -0.160781  0  3.918725  0
C  C288  1  0.44443591  0.22340992  0.85042061  1  -0.007059  0  -0.163821  -0.167303  0  3.938659  0
C  C289  1  0.44444262  0.27658807  0.14958096  1  -0.006408  0  -0.163832  -0.167501  0  3.938889  0
C  C290  1  0.05556643  0.27658961  0.35041940  1  -0.006572  0  -0.163854  -0.167365  0  3.938708  0
C  C291  1  0.05556803  0.22341236  0.64958204  1  -0.006236  0  -0.163866  -0.167502  0  3.938944  0
C  C292  1  0.55556346  0.77658826  0.14957824  1  -0.006614  0  -0.163818  -0.167278  0  3.938554  0
C  C293  1  0.55556581  0.72340821  0.85041906  1  -0.00668  0  -0.163911  -0.167491  0  3.93893  0
C  C294  1  0.94443634  0.72341425  0.64957945  1  -0.0065  0  -0.163822  -0.167263  0  3.93877  0
C  C295  1  0.94443360  0.77658819  0.35042069  1  -0.006448  0  -0.163831  -0.167339  0  3.93878  0
C  C296  1  0.42057835  0.20372197  0.90668894  1  0.302787  0  -0.052962  -0.050108  0  3.854856  0
C  C297  1  0.42057955  0.29627512  0.09331093  1  0.303392  0  -0.053031  -0.050195  0  3.855008  0
C  C298  1  0.07942704  0.29627792  0.40668863  1  0.302682  0  -0.052979  -0.050071  0  3.855012  0
C  C299  1  0.07943257  0.20371975  0.59331412  1  0.302232  0  -0.053002  -0.050162  0  3.854846  0
C  C300  1  0.57942328  0.79627716  0.09331030  1  0.303057  0  -0.052984  -0.050051  0  3.855012  0
C  C301  1  0.57943114  0.70371974  0.90668792  1  0.302663  0  -0.052983  -0.050144  0  3.855038  0
C  C302  1  0.92056780  0.70372168  0.59331178  1  0.302536  0  -0.052924  -0.049955  0  3.854885  0
C  C303  1  0.92057359  0.79628033  0.40668860  1  0.302574  0  -0.052974  -0.050139  0  3.85503  0
C  C304  1  0.19602714  0.13171702  0.92263835  1  0.298844  0  -0.004737  -0.105198  0  3.944379  0
C  C305  1  0.19602338  0.36827855  0.07735971  1  0.307271  0  -0.004745  -0.105062  0  3.944193  0
C  C306  1  0.30398591  0.36828047  0.42263896  1  0.299186  0  -0.004714  -0.105105  0  3.944167  0
C  C307  1  0.30399240  0.13172013  0.57736288  1  0.300752  0  -0.004673  -0.105038  0  3.94419  0
C  C308  1  0.80397449  0.86828306  0.07736089  1  0.305255  0  -0.004806  -0.105287  0  3.944316  0
C  C309  1  0.80399183  0.63172010  0.92263643  1  0.300718  0  -0.004723  -0.105007  0  3.944222  0
C  C310  1  0.69600780  0.63172008  0.57735950  1  0.300757  0  -0.004706  -0.105  0  3.944284  0
C  C311  1  0.69601603  0.86828184  0.42263984  1  0.299323  0  -0.004721  -0.105173  0  3.944235  0
C  C312  1  0.05039386  0.14156416  0.93910448  1  0.390797  0  -0.01577  -0.040832  0  4.06897  0
C  C313  1  0.05038816  0.35842929  0.06089383  1  0.389073  0  -0.015715  -0.040922  0  4.06905  0
C  C314  1  0.44961783  0.35843234  0.43910796  1  0.390565  0  -0.015707  -0.040806  0  4.069052  0
C  C315  1  0.44961880  0.14156991  0.56089519  1  0.388833  0  -0.015729  -0.040961  0  4.069187  0
C  C316  1  0.94960438  0.85843544  0.06089321  1  0.390796  0  -0.015704  -0.040709  0  4.068966  0
C  C317  1  0.94962253  0.64157031  0.93910270  1  0.388398  0  -0.015669  -0.040875  0  4.069072  0
C  C318  1  0.55038380  0.64156821  0.56089089  1  0.388863  0  -0.015766  -0.041059  0  4.069399  0
C  C319  1  0.55039189  0.85843206  0.43910638  1  0.390736  0  -0.015798  -0.040941  0  4.069279  0
C  C320  1  0.15720556  0.23500879  0.93392087  1  0.943992  0  0.212329  0.329898  0  3.961648  0
C  C321  1  0.15720671  0.26498353  0.06607966  1  0.943741  0  0.21243  0.329887  0  3.961375  0
C  C322  1  0.34279792  0.26498630  0.43392149  1  0.943723  0  0.212314  0.32982  0  3.961462  0
C  C323  1  0.34280506  0.23501329  0.56608370  1  0.943756  0  0.212312  0.329711  0  3.961578  0
C  C324  1  0.84279381  0.76498891  0.06607798  1  0.943898  0  0.212394  0.329991  0  3.9617  0
C  C325  1  0.84279832  0.73501418  0.93391920  1  0.943712  0  0.212348  0.329794  0  3.961572  0
C  C326  1  0.65719353  0.73501141  0.56608046  1  0.943651  0  0.212335  0.329818  0  3.961476  0
C  C327  1  0.65719884  0.76499058  0.43391671  1  0.944233  0  0.212315  0.329823  0  3.961711  0
C  C328  1  0.18534711  0.30427452  0.93476424  1  -0.033507  0  -0.234394  -0.472169  0  3.962175  0
C  C329  1  0.18535115  0.19571917  0.06523530  1  -0.033339  0  -0.234411  -0.47223  0  3.962274  0
C  C330  1  0.31465755  0.19572436  0.43476323  1  -0.03317  0  -0.234443  -0.472204  0  3.962335  0
C  C331  1  0.31465718  0.30427670  0.56523907  1  -0.033117  0  -0.234401  -0.472135  0  3.96213  0
C  C332  1  0.81465566  0.69572697  0.06523461  1  -0.033631  0  -0.234403  -0.472125  0  3.962379  0
C  C333  1  0.81465502  0.80427664  0.93476161  1  -0.033208  0  -0.234401  -0.472139  0  3.96226  0
C  C334  1  0.68534521  0.80427667  0.56523717  1  -0.033232  0  -0.234442  -0.472154  0  3.962061  0
C  C335  1  0.68534219  0.69572290  0.43476095  1  -0.033609  0  -0.234377  -0.472117  0  3.962042  0
Br  Br336  1  0.81857896  0.99138641  0.96966361  1  -0.089231  0  0.045736  -0.051756  0  1.531108  0
Br  Br337  1  0.81856481  0.50862383  0.03035896  1  -0.089516  0  0.0457  -0.051839  0  1.530837  0
Br  Br338  1  0.68141675  0.50861542  0.46966009  1  -0.089356  0  0.04573  -0.051768  0  1.531159  0
Br  Br339  1  0.68141945  0.99136756  0.53034923  1  -0.089403  0  0.045747  -0.051738  0  1.530937  0
Br  Br340  1  0.18146229  0.00859707  0.03031162  1  -0.089433  0  0.045684  -0.051798  0  1.531057  0
Br  Br341  1  0.18140287  0.49137104  0.96964337  1  -0.089508  0  0.045784  -0.051709  0  1.530949  0
Br  Br342  1  0.31858602  0.49136807  0.53035463  1  -0.089427  0  0.045782  -0.051727  0  1.53108  0
Br  Br343  1  0.31858331  0.00862351  0.46965156  1  -0.089384  0  0.045723  -0.051774  0  1.530845  0
N  N344  1  0.07421831  0.15516115  0.78838216  1  -1.201341  0  -0.363996  -0.361685  0  3.491173  0
N  N345  1  0.07422208  0.34484364  0.21162056  1  -1.201269  0  -0.364053  -0.361668  0  3.491436  0
N  N346  1  0.42577725  0.34483805  0.28838009  1  -1.201449  0  -0.364033  -0.361707  0  3.491107  0
N  N347  1  0.42578516  0.15516519  0.71162020  1  -1.201744  0  -0.364037  -0.361695  0  3.49101  0
N  N348  1  0.92578219  0.84483514  0.21162173  1  -1.201498  0  -0.363994  -0.361649  0  3.491096  0
N  N349  1  0.92577503  0.65516118  0.78838023  1  -1.201127  0  -0.36403  -0.361615  0  3.491061  0
N  N350  1  0.57422551  0.65516914  0.71161567  1  -1.201491  0  -0.364043  -0.36163  0  3.491172  0
N  N351  1  0.57421308  0.84483962  0.28838020  1  -1.20099  0  -0.364112  -0.361832  0  3.491199  0
N  N352  1  0.85876753  0.18332618  0.82494203  1  -1.202093  0  -0.239422  -0.006903  0  3.71311  0
N  N353  1  0.85877863  0.31667775  0.17505596  1  -1.20116  0  -0.239486  -0.006838  0  3.713222  0
N  N354  1  0.64122855  0.31667161  0.32494208  1  -1.201878  0  -0.239405  -0.007022  0  3.71306  0
N  N355  1  0.64122627  0.18333268  0.67505454  1  -1.202047  0  -0.239297  -0.006773  0  3.712805  0
N  N356  1  0.14122505  0.81666726  0.17505682  1  -1.201632  0  -0.239383  -0.006887  0  3.712832  0
N  N357  1  0.14122187  0.68332754  0.82494328  1  -1.20169  0  -0.239482  -0.006794  0  3.71291  0
N  N358  1  0.35877648  0.68333273  0.67505019  1  -1.202077  0  -0.239274  -0.006934  0  3.713108  0
N  N359  1  0.35876744  0.81667592  0.32494354  1  -1.201778  0  -0.239438  -0.007071  0  3.713283  0
N  N360  1  0.26254863  0.19099635  0.91983633  1  -1.21685  0  -0.243177  -0.014543  0  3.721167  0
N  N361  1  0.26255012  0.30899959  0.08016371  1  -1.217602  0  -0.243221  -0.014573  0  3.72112  0
N  N362  1  0.23745522  0.30900352  0.41983660  1  -1.21681  0  -0.243164  -0.014592  0  3.721068  0
N  N363  1  0.23746694  0.19099720  0.58016908  1  -1.216823  0  -0.243279  -0.014487  0  3.721109  0
N  N364  1  0.73744734  0.80900420  0.08016330  1  -1.217075  0  -0.243189  -0.014636  0  3.721069  0
N  N365  1  0.73746057  0.69099670  0.91983282  1  -1.216868  0  -0.243227  -0.014654  0  3.72119  0
N  N366  1  0.76253623  0.69099656  0.58016457  1  -1.216848  0  -0.24323  -0.014692  0  3.721058  0
N  N367  1  0.76254262  0.80900335  0.41983597  1  -1.2169  0  -0.243196  -0.014527  0  3.721195  0
N  N368  1  0.02751242  0.20574456  0.94612049  1  -1.218911  0  -0.364917  -0.365689  0  3.479987  0
N  N369  1  0.02751262  0.29424798  0.05387806  1  -1.219011  0  -0.364947  -0.36555  0  3.479666  0
N  N370  1  0.47249965  0.29425145  0.44612033  1  -1.219094  0  -0.364908  -0.365574  0  3.479818  0
N  N371  1  0.47249848  0.20575028  0.55387986  1  -1.219205  0  -0.364913  -0.36554  0  3.479858  0
N  N372  1  0.97248921  0.79425599  0.05387759  1  -1.218876  0  -0.364912  -0.365661  0  3.480006  0
N  N373  1  0.97249806  0.70575020  0.94611847  1  -1.219139  0  -0.364946  -0.365568  0  3.47991  0
N  N374  1  0.52750199  0.70574862  0.55387697  1  -1.219079  0  -0.364913  -0.365518  0  3.480086  0
N  N375  1  0.52750429  0.79425121  0.44611667  1  -1.219285  0  -0.364909  -0.365583  0  3.479985  0
O  O376  1  0.20406321  0.82877650  0.93617606  1  -1.172767  0  -0.335318  -0.556206  0  2.176478  0
O  O377  1  0.20404364  0.67122673  0.06381902  1  -1.172456  0  -0.3353  -0.55635  0  2.176385  0
O  O378  1  0.29591857  0.67122483  0.43618464  1  -1.173254  0  -0.33535  -0.556186  0  2.176552  0
O  O379  1  0.29596316  0.82877729  0.56382070  1  -1.172622  0  -0.335279  -0.556227  0  2.176544  0
O  O380  1  0.79594295  0.17122405  0.06382512  1  -1.172485  0  -0.335346  -0.556234  0  2.176635  0
O  O381  1  0.79594215  0.32877572  0.93618099  1  -1.172475  0  -0.335408  -0.556352  0  2.176464  0
O  O382  1  0.70404798  0.32877572  0.56382311  1  -1.172575  0  -0.335317  -0.556252  0  2.176551  0
O  O383  1  0.70405432  0.17122326  0.43617971  1  -1.172582  0  -0.335383  -0.556308  0  2.176576  0
O  O384  1  0.34296470  0.83123000  0.00887326  1  -1.173618  0  -0.338146  -0.573439  0  2.193091  0
O  O385  1  0.34293901  0.66875593  0.99112154  1  -1.17364  0  -0.338205  -0.573461  0  2.193088  0
O  O386  1  0.15703684  0.66875992  0.50888435  1  -1.173797  0  -0.338257  -0.573552  0  2.193258  0
O  O387  1  0.15705255  0.83123486  0.49112515  1  -1.173797  0  -0.338111  -0.573198  0  2.193081  0
O  O388  1  0.65705165  0.16876818  0.99112598  1  -1.17383  0  -0.338132  -0.573347  0  2.193195  0
O  O389  1  0.65705810  0.33124414  0.00887964  1  -1.173825  0  -0.338191  -0.573467  0  2.193171  0
O  O390  1  0.84294555  0.33123968  0.49112767  1  -1.173593  0  -0.338094  -0.573306  0  2.193282  0
O  O391  1  0.84295814  0.16876474  0.50887758  1  -1.173486  0  -0.338186  -0.573425  0  2.193124  0
O  O392  1  0.24076543  0.01279198  0.81534646  1  -1.149552  0  -0.33516  -0.543843  0  2.164406  0
O  O393  1  0.24073919  0.48721916  0.18466427  1  -1.150001  0  -0.335197  -0.543692  0  2.164358  0
O  O394  1  0.25923499  0.48721427  0.31535166  1  -1.150047  0  -0.335214  -0.543834  0  2.164323  0
O  O395  1  0.25924507  0.01278783  0.68466113  1  -1.149568  0  -0.33532  -0.543961  0  2.164178  0
O  O396  1  0.75922715  0.98720999  0.18465471  1  -1.149445  0  -0.335212  -0.54378  0  2.164426  0
O  O397  1  0.75923868  0.51278613  0.81534194  1  -1.149401  0  -0.335302  -0.543933  0  2.164291  0
O  O398  1  0.74076438  0.51279244  0.68465804  1  -1.149776  0  -0.335252  -0.543864  0  2.164483  0
O  O399  1  0.74073845  0.98721508  0.31534237  1  -1.149876  0  -0.335081  -0.543659  0  2.164401  0
O  O400  1  0.45929482  0.06690050  0.81144256  1  -1.182185  0  -0.336087  -0.572881  0  2.193046  0
O  O401  1  0.45926026  0.43310837  0.18857072  1  -1.181638  0  -0.336049  -0.572802  0  2.193366  0
O  O402  1  0.04071898  0.43310291  0.31144258  1  -1.182137  0  -0.335973  -0.572787  0  2.193154  0
O  O403  1  0.04073780  0.06690667  0.68855373  1  -1.182219  0  -0.336029  -0.572759  0  2.192927  0
O  O404  1  0.54069889  0.93310289  0.18855785  1  -1.182247  0  -0.336031  -0.572835  0  2.193115  0
O  O405  1  0.54070855  0.56689265  0.81143162  1  -1.182374  0  -0.336028  -0.572942  0  2.193239  0
O  O406  1  0.95929284  0.56689717  0.68856363  1  -1.182313  0  -0.336073  -0.572837  0  2.193118  0
O  O407  1  0.95926384  0.93310383  0.31143776  1  -1.182048  0  -0.336068  -0.572811  0  2.193104  0
