# generated using pymatgen
data_Co3H82C88S2(NO)16
_symmetry_space_group_name_H-M   'P 1'
_cell_length_a   10.49525216
_cell_length_b   18.88964257
_cell_length_c   22.98552610
_cell_angle_alpha   97.76675355
_cell_angle_beta   103.22701329
_cell_angle_gamma   89.96718381
_symmetry_Int_Tables_number   1
_chemical_formula_structural   Co3H82C88S2(NO)16
_chemical_formula_sum   'Co6 H164 C176 S4 N32 O32'
_cell_volume   4393.15614334
_cell_formula_units_Z   2
loop_
 _symmetry_equiv_pos_site_id
 _symmetry_equiv_pos_as_xyz
  1  'x, y, z'
loop_
 _atom_site_type_symbol
 _atom_site_label
 _atom_site_symmetry_multiplicity
 _atom_site_fract_x
 _atom_site_fract_y
 _atom_site_fract_z
 _atom_site_occupancy
 _atom_site_pbe_bader_charge
 _atom_site_pbe_bader_spin_density
 _atom_site_pbe_cm5_charge
 _atom_site_pbe_ddec_charge
 _atom_site_pbe_ddec_spin_density
 _atom_site_pbe_ddec_sum_bond_order
 _atom_site_pbe_magmom
Co  Co0  1  0.82942868  0.93057481  0.27962690  1  1.266804  2.603943  0.675404  0.883036  2.824579  2.429939  2.581
Co  Co1  1  0.54966990  0.56945463  0.72021662  1  1.265236  2.603553  0.675331  0.881828  2.823551  2.431834  2.581
Co  Co2  1  0.17062206  0.06939500  0.72041536  1  1.267189  2.60368  0.675616  0.88283  2.824493  2.430813  2.581
Co  Co3  1  0.44492366  0.43002536  0.27994163  1  1.267798  2.605798  0.675625  0.884621  2.827409  2.428489  2.585
Co  Co4  1  0.99570049  0.74974366  0.99990597  1  1.203571  2.558676  0.67192  0.825043  2.737308  2.544114  2.509
Co  Co5  1  0.00399827  0.25045087  0.00041981  1  1.203158  2.55926  0.671104  0.82489  2.738479  2.542858  2.509
H  H6  1  0.59048422  0.93613512  0.50641299  1  0.035441  -4e-06  0.095124  0.092741  -7e-06  0.976902  0.0
H  H7  1  0.49650164  0.95885248  0.43726740  1  0.048807  3e-05  0.093189  0.092599  1.1e-05  0.991149  0.0
H  H8  1  0.04672492  0.05333271  0.34166629  1  0.201373  0.00051  0.139293  0.112786  -1.2e-05  1.036612  0.0
H  H9  1  0.03371873  0.24975114  0.33938949  1  0.125523  0.000314  0.113602  0.106375  0.000138  0.988316  0.0
H  H10  1  0.12979951  0.18063236  0.37013795  1  0.054006  1.8e-05  0.117148  0.101515  2e-06  0.959851  0.0
H  H11  1  0.10946432  0.22168634  0.24335140  1  0.05452  3.7e-05  0.092936  0.091855  -2e-06  0.996931  0.0
H  H12  1  0.23680623  0.24834817  0.30726068  1  0.033426  3.9e-05  0.099428  0.102799  -1.6e-05  0.991479  0.0
H  H13  1  0.71843638  0.35916217  0.35749943  1  0.055798  0.000112  0.106982  0.117179  -8.4e-05  1.016623  0.0
H  H14  1  0.83973856  0.26811019  0.41565820  1  0.062422  -6e-06  0.100928  0.102106  -9e-06  0.996107  0.0
H  H15  1  0.76006176  0.14224121  0.39736127  1  0.060299  1.6e-05  0.092839  0.082164  -5e-06  1.062279  0.0
H  H16  1  0.55837781  0.10158172  0.31703878  1  0.045363  0.000399  0.103339  0.111827  0.000156  1.014386  0.0
H  H17  1  0.30655744  0.28426844  0.19972000  1  0.206183  0.00048  0.139924  0.120322  3.4e-05  1.010951  0.0
H  H18  1  0.26240431  0.15258703  0.18241435  1  0.073595  0.000109  0.11436  0.099406  7e-06  0.978448  0.0
H  H19  1  0.37900087  0.09548112  0.21948043  1  0.063905  0.000176  0.111078  0.094487  6.7e-05  0.970117  0.0
H  H20  1  0.73920323  0.90501838  0.16848736  1  0.626483  -0.000115  0.277716  0.359015  -0.000109  1.005007  0.0
H  H21  1  0.86497422  0.95574039  0.17389799  1  0.586622  0.000545  0.304566  0.373695  0.000264  0.928442  0.0
H  H22  1  0.63313320  0.02395157  0.17735547  1  0.108109  3.6e-05  0.099669  0.107913  -0.000106  1.063828  0.0
H  H23  1  0.54829581  0.12950835  0.12830414  1  0.056879  -2.8e-05  0.094778  0.090644  -3e-05  1.018308  0.0
H  H24  1  0.65960057  0.24837094  0.16059428  1  0.09137  -5e-06  0.100507  0.105474  -4.9e-05  1.010901  0.0
H  H25  1  0.86311437  0.26565122  0.24274716  1  0.092065  0.000365  0.102254  0.110356  0.00013  1.044841  0.0
H  H26  1  0.03135006  0.84601841  0.38866438  1  0.11353  0.000123  0.105344  0.122796  -6e-05  1.035582  0.0
H  H27  1  0.10621308  0.80543999  0.48911496  1  0.06008  -3.1e-05  0.098434  0.099416  -3.3e-05  0.999879  0.0
H  H28  1  0.01596810  0.85561132  0.57553200  1  0.039161  -7e-06  0.090783  0.077589  -2.4e-05  1.066627  0.0
H  H29  1  0.84399974  0.94864669  0.56470087  1  0.125429  0.000438  0.10122  0.119351  0.000174  1.053453  0.0
H  H30  1  0.67995422  0.02674717  0.36060461  1  0.137386  0.000596  0.137616  0.101941  -9e-05  1.017456  0.0
H  H31  1  0.62030734  0.07731467  0.45728368  1  0.052672  5.4e-05  0.112403  0.091389  1.8e-05  0.968035  0.0
H  H32  1  0.71292574  0.05497352  0.52662327  1  0.140608  0.000224  0.112993  0.105588  9.4e-05  1.000896  0.0
H  H33  1  0.44409786  0.94925501  0.30191567  1  0.077953  0.000376  0.106892  0.110814  0.000159  1.014558  0.0
H  H34  1  0.36256029  0.84421646  0.11842263  1  0.128413  0.000575  0.10746  0.114337  0.000247  1.010557  0.0
H  H35  1  0.06266397  0.85283062  0.21878490  1  0.137521  4e-05  0.108732  0.115261  -0.000277  1.052667  0.0
H  H36  1  0.15360233  0.66191673  0.09453842  1  0.098496  7e-05  0.108658  0.123909  -9e-05  1.020413  0.0
H  H37  1  0.21182004  0.56154476  0.15443866  1  0.058905  2.5e-05  0.091946  0.084937  -4.5e-05  1.051024  0.0
H  H38  1  0.06107972  0.45570270  0.13942194  1  0.057117  9.6e-05  0.096089  0.098816  -1.9e-05  1.044674  0.0
H  H39  1  0.84812482  0.44667978  0.06477689  1  0.081368  0.000381  0.107411  0.121215  9.1e-05  1.008296  0.0
H  H40  1  0.72848625  0.65023138  0.94045191  1  0.151082  0.00104  0.147413  0.1248  0.000276  0.973052  0.001
H  H41  1  0.68576908  0.46276023  0.96162842  1  0.05394  0.0003  0.112587  0.093798  0.000114  0.974765  0.0
H  H42  1  0.60561253  0.53391210  0.92669970  1  0.09716  0.000361  0.114049  0.09548  0.000174  0.992816  0.0
H  H43  1  0.53365347  0.58006548  0.02081202  1  0.021843  -6e-06  0.097382  0.093516  -2.6e-05  0.974951  0.0
H  H44  1  0.61233373  0.50942089  0.05705193  1  0.027453  1.1e-05  0.097324  0.097774  5e-06  0.977936  0.0
H  H45  1  0.16595844  0.09136710  0.25042816  1  0.055633  0.000175  0.093789  0.095981  5.6e-05  0.995891  0.0
H  H46  1  0.29564921  0.11919498  0.31264140  1  0.024045  8e-06  0.093185  0.098536  -1e-06  0.986004  0.0
H  H47  1  0.08287862  0.56377480  0.49320025  1  0.036793  -2e-06  0.094997  0.092742  -6e-06  0.976405  0.0
H  H48  1  0.05829724  0.54121293  0.56241090  1  0.068222  3.4e-05  0.093175  0.093175  1.1e-05  0.990882  0.0
H  H49  1  0.70458466  0.44666594  0.65824022  1  0.193695  0.000512  0.138893  0.111789  -1.4e-05  1.036036  0.0
H  H50  1  0.69389666  0.25020669  0.66039287  1  0.12365  0.000305  0.113258  0.106033  0.000131  0.989377  0.0
H  H51  1  0.75889045  0.31930557  0.62960587  1  0.05367  2e-05  0.117942  0.102781  4e-06  0.959893  0.0
H  H52  1  0.86559630  0.27819034  0.75636549  1  0.05654  2.7e-05  0.092789  0.091065  -4e-06  0.995586  0.0
H  H53  1  0.92937181  0.25191831  0.69251695  1  0.037197  -2.7e-05  0.09973  0.103313  -7.8e-05  0.990807  0.0
H  H54  1  0.35772548  0.14085822  0.64176343  1  0.063697  0.000132  0.105787  0.113946  1.9e-05  1.018918  0.0
H  H55  1  0.42139789  0.23200095  0.58410182  1  0.058345  -1.9e-05  0.100516  0.101393  -2.7e-05  0.998305  0.0
H  H56  1  0.36149711  0.35805974  0.60305334  1  0.049448  1.4e-05  0.092873  0.082023  -1e-06  1.062409  0.0
H  H57  1  0.24133431  0.39883314  0.68370599  1  0.034109  0.000436  0.102746  0.111258  0.000171  1.014984  0.0
H  H58  1  0.10557352  0.21589234  0.80037184  1  0.193203  0.000466  0.13901  0.119748  -8.7e-05  1.012758  0.0
H  H59  1  0.07869273  0.34765944  0.81774163  1  0.07457  6e-05  0.113817  0.097905  5e-06  0.978516  0.0
H  H60  1  0.15823455  0.40484190  0.78084698  1  0.063028  9.8e-05  0.110531  0.093434  3.6e-05  0.970699  0.0
H  H61  1  0.57108052  0.59509595  0.83139193  1  0.65133  -0.000111  0.278402  0.360769  -0.000111  1.002548  0.0
H  H62  1  0.69141454  0.54429648  0.82595498  1  0.586108  0.000549  0.303834  0.373297  0.000265  0.929669  0.0
H  H63  1  0.45590026  0.47623861  0.82266689  1  0.100265  3.6e-05  0.099678  0.10777  -0.000104  1.064852  0.0
H  H64  1  0.42077405  0.37071163  0.87188599  1  0.044887  -2.8e-05  0.093906  0.089267  -3e-05  1.017919  0.0
H  H65  1  0.49985240  0.25187403  0.83957465  1  0.086952  3e-06  0.100673  0.105742  -2.8e-05  1.01172  0.0
H  H66  1  0.62023576  0.23443294  0.75709120  1  0.103429  0.000368  0.102184  0.110309  0.000132  1.045783  0.0
H  H67  1  0.64225213  0.65397807  0.61109110  1  0.133801  0.000118  0.105136  0.123535  -5.9e-05  1.034489  0.0
H  H68  1  0.61696290  0.69418306  0.51053592  1  0.058904  -3e-05  0.098572  0.09905  -3e-05  0.999037  0.0
H  H69  1  0.44054800  0.64380713  0.42405661  1  0.042431  -5.2e-05  0.090726  0.07762  -8.5e-05  1.066533  0.0
H  H70  1  0.27895644  0.55119444  0.43499885  1  0.124819  0.000424  0.10134  0.120053  0.000165  1.054829  0.0
H  H71  1  0.31893388  0.47357100  0.63927193  1  0.136334  0.000601  0.137671  0.103286  -8.6e-05  1.015006  0.0
H  H72  1  0.16284103  0.42286876  0.54270093  1  0.060059  5e-05  0.112034  0.090889  1.7e-05  0.969115  0.0
H  H73  1  0.18588068  0.44505295  0.47330942  1  0.135392  0.00023  0.112837  0.106301  9.7e-05  1.001542  0.0
H  H74  1  0.14229068  0.55082380  0.69791631  1  0.076965  0.000378  0.106813  0.111533  0.000161  1.014924  0.0
H  H75  1  0.24413893  0.65586344  0.88140205  1  0.132916  0.000576  0.108165  0.115686  0.000246  1.010179  0.0
H  H76  1  0.84368596  0.64691911  0.78100597  1  0.136627  3.4e-05  0.108955  0.115699  -0.000279  1.053383  0.0
H  H77  1  0.05880097  0.83759505  0.90525789  1  0.124951  6.1e-05  0.1089  0.124232  -9e-05  1.020133  0.0
H  H78  1  0.05693365  0.93801581  0.84539462  1  0.064024  3.4e-05  0.091657  0.084779  -4.1e-05  1.048782  0.0
H  H79  1  0.92135526  0.04395903  0.86053668  1  0.05821  0.000112  0.096069  0.099159  -2e-06  1.043274  0.0
H  H80  1  0.78323677  0.05297447  0.93519264  1  0.088136  0.000391  0.107556  0.120754  0.0001  1.009693  0.0
H  H81  1  0.78749525  0.84912502  0.05914274  1  0.185945  0.001025  0.1471  0.125007  0.000272  0.971846  0.001
H  H82  1  0.72421107  0.03675742  0.03834261  1  0.069399  0.000297  0.112892  0.093495  0.000114  0.974877  0.0
H  H83  1  0.67892345  0.96559147  0.07316172  1  0.063528  0.000373  0.114367  0.095183  0.000178  0.992803  0.0
H  H84  1  0.51227392  0.91989126  0.97910214  1  0.020358  -4e-06  0.097583  0.09369  -2.5e-05  0.973984  0.0
H  H85  1  0.55488928  0.99053349  0.94294341  1  0.024085  1.7e-05  0.096807  0.096822  8e-06  0.97885  0.0
H  H86  1  0.91407503  0.40873944  0.74963074  1  0.015844  4.9e-05  0.092896  0.094943  5e-06  0.997984  0.0
H  H87  1  0.98208446  0.38125329  0.68753065  1  0.065072  1.6e-05  0.093203  0.099669  8e-06  0.986701  0.0
H  H88  1  0.40959997  0.06382829  0.49365366  1  0.034775  -4e-06  0.094957  0.092637  -7e-06  0.977555  0.0
H  H89  1  0.50353577  0.04106553  0.56279248  1  0.04762  3e-05  0.093274  0.092804  1.1e-05  0.99095  0.0
H  H90  1  0.95342936  0.94670643  0.65828690  1  0.209546  0.000507  0.139219  0.112596  -1.2e-05  1.036422  0.0
H  H91  1  0.96633450  0.75027320  0.66060670  1  0.115144  0.000306  0.113559  0.106237  0.000131  0.988064  0.0
H  H92  1  0.87039225  0.81937843  0.62978615  1  0.052994  1.9e-05  0.11723  0.101617  4e-06  0.960054  0.0
H  H93  1  0.89068126  0.77848901  0.75662363  1  0.055146  3e-05  0.092829  0.091607  -3e-06  0.996293  0.0
H  H94  1  0.76319549  0.75188686  0.69275853  1  0.037047  -2.7e-05  0.099997  0.104395  -7.9e-05  0.99032  0.0
H  H95  1  0.28366508  0.64087223  0.64146253  1  0.065093  0.000132  0.10557  0.114525  1.8e-05  1.017399  0.0
H  H96  1  0.16168748  0.73204763  0.58401097  1  0.059748  -1.8e-05  0.10074  0.102357  -2.6e-05  0.995838  0.0
H  H97  1  0.23984838  0.85821562  0.60316200  1  0.064365  1.4e-05  0.092688  0.081368  -0.0  1.064341  0.0
H  H98  1  0.44083020  0.89898372  0.68384004  1  0.041976  0.000435  0.102821  0.111441  0.00017  1.015333  0.0
H  H99  1  0.69447536  0.71599558  0.80013219  1  0.177701  0.000475  0.139641  0.119963  -8.5e-05  1.01302  0.0
H  H100  1  0.73807149  0.84787578  0.81767964  1  0.071083  5.9e-05  0.113691  0.09815  5e-06  0.979875  0.0
H  H101  1  0.62158722  0.90495312  0.78059479  1  0.066336  0.000101  0.110231  0.093416  3.8e-05  0.970688  0.0
H  H102  1  0.26080258  0.09501166  0.83154513  1  0.627135  -0.000118  0.277758  0.359042  -0.000111  1.005062  0.0
H  H103  1  0.13514276  0.04420421  0.82614531  1  0.586857  0.000533  0.304668  0.373785  0.000259  0.928346  0.0
H  H104  1  0.36685656  0.97613850  0.82270320  1  0.106732  3.5e-05  0.099668  0.10785  -0.000107  1.063812  0.0
H  H105  1  0.45176005  0.87055546  0.87172779  1  0.05574  -2.9e-05  0.094634  0.090537  -3e-05  1.018141  0.0
H  H106  1  0.34057199  0.75171297  0.83939699  1  0.09333  3e-06  0.100297  0.10532  -2.8e-05  1.011347  0.0
H  H107  1  0.13711594  0.73440525  0.75714393  1  0.093438  0.000368  0.101839  0.109636  0.000131  1.045666  0.0
H  H108  1  0.96865844  0.15399156  0.61132718  1  0.113161  0.000125  0.105346  0.122938  -5.9e-05  1.035801  0.0
H  H109  1  0.89387005  0.19457853  0.51087747  1  0.061057  -3.3e-05  0.098263  0.099326  -3.7e-05  1.00019  0.0
H  H110  1  0.98412216  0.14436920  0.42445822  1  0.039005  -8e-06  0.09073  0.077494  -2.7e-05  1.066968  0.0
H  H111  1  0.15605359  0.05132369  0.43531353  1  0.125382  0.000438  0.101283  0.119388  0.000174  1.053297  0.0
H  H112  1  0.32009373  0.97327458  0.63941366  1  0.141397  0.000593  0.137801  0.102319  -9e-05  1.017693  0.0
H  H113  1  0.37962567  0.92264252  0.54274753  1  0.052427  5e-05  0.11267  0.091823  1.7e-05  0.968275  0.0
H  H114  1  0.28707259  0.94500252  0.47340307  1  0.1409  0.000224  0.112998  0.105666  9.4e-05  1.001118  0.0
H  H115  1  0.55597980  0.05082895  0.69812674  1  0.079371  0.000377  0.106989  0.111013  0.00016  1.014426  0.0
H  H116  1  0.63746606  0.15586150  0.88162483  1  0.128415  0.000574  0.107566  0.114348  0.000246  1.010568  0.0
H  H117  1  0.93742271  0.14723166  0.78129568  1  0.136143  3.6e-05  0.108817  0.11524  -0.00028  1.052891  0.0
H  H118  1  0.84642765  0.33814790  0.90553248  1  0.099378  7.3e-05  0.108746  0.124233  -8.8e-05  1.020065  0.0
H  H119  1  0.78842800  0.43845309  0.84554122  1  0.059483  3.6e-05  0.091655  0.084223  -4.1e-05  1.050853  0.0
H  H120  1  0.93919164  0.54426985  0.86058960  1  0.057391  0.000114  0.096367  0.099218  -2e-06  1.04417  0.0
H  H121  1  0.15208589  0.55329822  0.93530978  1  0.08213  0.000391  0.107347  0.120991  9.9e-05  1.008298  0.0
H  H122  1  0.27138219  0.34983492  0.05974883  1  0.1923  0.001075  0.147339  0.124375  0.000305  0.972946  0.001
H  H123  1  0.31443576  0.53719050  0.03853421  1  0.052229  0.000295  0.112737  0.094035  0.000111  0.974486  0.0
H  H124  1  0.39449044  0.46598408  0.07343163  1  0.098416  0.000383  0.114339  0.096191  0.000186  0.991849  0.0
H  H125  1  0.46641407  0.41984820  0.97930251  1  0.060067  -4e-06  0.097402  0.093417  -2.5e-05  0.974566  0.0
H  H126  1  0.38774785  0.49051747  0.94308722  1  0.029704  1.7e-05  0.096788  0.097013  8e-06  0.978307  0.0
H  H127  1  0.83456614  0.90886937  0.74956916  1  0.053554  4.6e-05  0.093077  0.095003  5e-06  0.996533  0.0
H  H128  1  0.70468954  0.88109634  0.68740084  1  0.027427  1.6e-05  0.093198  0.098541  8e-06  0.986061  0.0
H  H129  1  0.91587518  0.43586843  0.50622980  1  0.025657  -1e-06  0.095384  0.093135  -8e-06  0.976845  0.0
H  H130  1  0.94036813  0.45841453  0.43703050  1  0.064699  3.4e-05  0.093373  0.093523  1.7e-05  0.990529  0.0
H  H131  1  0.29485680  0.55312441  0.34046055  1  0.202712  0.000495  0.138094  0.112224  -1.9e-05  1.03726  0.0
H  H132  1  0.30683010  0.74972174  0.33891372  1  0.127474  0.000174  0.113132  0.105076  7.9e-05  0.989994  0.0
H  H133  1  0.24248590  0.68057310  0.36985027  1  0.059282  -0.0  0.11683  0.100454  1e-06  0.961455  0.0
H  H134  1  0.13402775  0.72182701  0.24329277  1  0.050239  3.1e-05  0.092846  0.091468  -1e-06  0.995617  0.0
H  H135  1  0.07120990  0.74799943  0.30744705  1  0.038512  -6.1e-05  0.099818  0.103625  -9.5e-05  0.990871  0.0
H  H136  1  0.64240235  0.85898576  0.35837866  1  0.064934  0.000132  0.105933  0.114407  1.9e-05  1.017674  0.0
H  H137  1  0.57859114  0.76775557  0.41591451  1  0.054188  -2e-05  0.100665  0.10141  -2.5e-05  0.998125  0.0
H  H138  1  0.63827791  0.64170111  0.39685715  1  0.048708  2e-06  0.092746  0.081812  -2e-05  1.06192  0.0
H  H139  1  0.75855804  0.60095859  0.31623996  1  0.077264  0.000456  0.102924  0.111703  0.000186  1.014368  0.0
H  H140  1  0.89446668  0.78409454  0.19972688  1  0.193923  0.00047  0.138884  0.119447  -8.3e-05  1.012748  0.0
H  H141  1  0.92113511  0.65227732  0.18221487  1  0.074475  6.1e-05  0.113715  0.097683  7e-06  0.978379  0.0
H  H142  1  0.84180989  0.59510835  0.21920833  1  0.063477  0.000105  0.110454  0.093366  3.9e-05  0.970631  0.0
H  H143  1  0.42886348  0.40532699  0.16932164  1  0.635775  -0.000116  0.276564  0.359681  0.000132  1.004091  0.0
H  H144  1  0.30772751  0.45591151  0.17481921  1  0.59379  0.000358  0.304075  0.373659  2e-05  0.929799  0.0
H  H145  1  0.54437350  0.52371670  0.17645425  1  0.07048  9.7e-05  0.099659  0.108608  -9.9e-05  1.062594  0.0
H  H146  1  0.58086194  0.62954967  0.12767452  1  0.052357  -2e-05  0.095408  0.091295  -2.9e-05  1.018582  0.0
H  H147  1  0.50196163  0.74841019  0.16020100  1  0.081165  4e-06  0.099922  0.104345  -2.1e-05  1.011276  0.0
H  H148  1  0.38103500  0.76563996  0.24248599  1  0.09653  0.00036  0.101979  0.109663  0.000127  1.046769  0.0
H  H149  1  0.35715615  0.34439283  0.38941700  1  0.127137  7.6e-05  0.105614  0.123398  -0.000144  1.033044  0.0
H  H150  1  0.38310769  0.30493774  0.49032877  1  0.060616  -1.6e-05  0.098205  0.098587  -2.3e-05  1.000996  0.0
H  H151  1  0.55962570  0.35588957  0.57642215  1  0.041825  -1.1e-05  0.091642  0.079268  -2.6e-05  1.067458  0.0
H  H152  1  0.72076390  0.44853726  0.56492259  1  0.137547  0.000405  0.101957  0.120385  0.000164  1.052603  0.0
H  H153  1  0.67828141  0.52509934  0.36007328  1  0.128246  0.000666  0.139063  0.105987  5.8e-05  1.011232  0.0
H  H154  1  0.83492046  0.57647135  0.45640930  1  0.048625  8.5e-05  0.11257  0.091976  2.3e-05  0.969113  0.0
H  H155  1  0.81242702  0.55458011  0.52599086  1  0.114486  0.000251  0.11355  0.106868  0.0001  1.000412  0.0
H  H156  1  0.85780122  0.44956130  0.30265427  1  0.115559  0.00038  0.106465  0.110856  0.000176  1.014867  0.0
H  H157  1  0.75487275  0.34510925  0.11913862  1  0.095313  0.000573  0.108057  0.11573  0.000229  1.009828  0.0
H  H158  1  0.15572997  0.35323162  0.21899882  1  0.139073  5.8e-05  0.108362  0.114192  -0.000191  1.054803  0.0
H  H159  1  0.94135145  0.16250626  0.09495833  1  0.123233  6.3e-05  0.108722  0.123796  -8.8e-05  1.020303  0.0
H  H160  1  0.94312865  0.06195943  0.15469704  1  0.061906  3.6e-05  0.091498  0.084433  -4.1e-05  1.048893  0.0
H  H161  1  0.07867093  0.95602443  0.13944044  1  0.05823  0.000112  0.096123  0.099221  -2e-06  1.043391  0.0
H  H162  1  0.21674272  0.94711880  0.06476141  1  0.08937  0.000389  0.107399  0.120282  0.0001  1.009163  0.0
H  H163  1  0.21231223  0.15112046  0.94097003  1  0.178406  0.001022  0.147085  0.124413  0.000271  0.971935  0.001
H  H164  1  0.27553631  0.96340080  0.96166064  1  0.070065  0.000295  0.113044  0.093652  0.000114  0.97498  0.0
H  H165  1  0.32092894  0.03456050  0.92685822  1  0.105887  0.000368  0.114339  0.095638  0.000179  0.992519  0.0
H  H166  1  0.48767982  0.08016567  0.02092598  1  0.019861  -4e-06  0.097365  0.093465  -2.6e-05  0.974049  0.0
H  H167  1  0.44498979  0.00950805  0.05705184  1  0.024984  1.7e-05  0.096612  0.096546  8e-06  0.979102  0.0
H  H168  1  0.08596481  0.59121184  0.25024285  1  0.014938  1.7e-05  0.092898  0.094555  -5.3e-05  0.998637  0.0
H  H169  1  0.01829020  0.61882726  0.31244038  1  0.067027  2e-05  0.093166  0.099747  1.3e-05  0.987187  0.0
C  C170  1  0.54825567  0.98117407  0.48341568  1  -0.039219  0.000293  -0.161175  -0.161217  0.000158  3.932991  0.0
C  C171  1  0.96890376  0.07547510  0.31007073  1  0.982804  0.000678  0.160757  0.134362  -0.000538  3.918373  0.0
C  C172  1  0.07547102  0.19784330  0.32783193  1  0.291268  0.000539  -0.047614  -0.057009  0.000332  3.871098  0.0
C  C173  1  0.16606951  0.20443978  0.28536487  1  -0.026354  0.000157  -0.164288  -0.171744  6.6e-05  3.931381  0.0
C  C174  1  0.52505075  0.20929748  0.29512984  1  0.3126  0.002381  0.093669  0.092002  0.001349  4.000497  0.002
C  C175  1  0.56644605  0.28227472  0.30712350  1  0.383731  0.000954  0.090766  0.149758  -8.6e-05  4.022725  0.0
C  C176  1  0.68218892  0.30402390  0.35002302  1  0.044814  0.001283  -0.086417  -0.13957  0.000344  3.966632  0.001
C  C177  1  0.74935553  0.25251180  0.38189920  1  -0.016153  0.000236  -0.100122  -0.093943  9.7e-05  4.026774  0.0
C  C178  1  0.70410483  0.18064453  0.37124365  1  -0.099331  0.000694  -0.105321  -0.103166  0.000326  4.05829  0.0
C  C179  1  0.59184368  0.15749038  0.32712626  1  0.024156  0.0008  -0.097692  -0.168253  0.000417  4.016957  0.0
C  C180  1  0.38942200  0.27253821  0.23499141  1  0.961792  0.006292  0.166588  0.141527  0.00388  3.878487  0.005
C  C181  1  0.32277379  0.14372592  0.22650744  1  0.295038  0.000835  -0.048648  -0.058411  0.000524  3.88858  0.001
C  C182  1  0.86107081  0.15365150  0.25520326  1  0.31262  0.002901  0.09042  0.085304  0.001595  4.002168  0.002
C  C183  1  0.79713130  0.08536254  0.23811875  1  0.381617  0.001665  0.08156  0.136846  0.000694  4.061477  0.001
C  C184  1  0.68346966  0.07582239  0.19155318  1  -0.129948  0.001316  -0.103588  -0.177199  0.000394  4.008798  0.001
C  C185  1  0.63712727  0.13532188  0.16431924  1  -0.027465  6e-05  -0.105788  -0.10184  0.0  4.054684  0.0
C  C186  1  0.70053358  0.20306404  0.18249450  1  -0.074365  0.00088  -0.096641  -0.080522  0.000412  4.008037  0.0
C  C187  1  0.81413537  0.21336049  0.22834385  1  0.052748  0.0009  -0.091357  -0.151768  0.00047  3.988862  0.001
C  C188  1  0.84419968  0.94807595  0.47011828  1  0.323846  0.003744  0.093908  0.091721  0.002015  3.994821  0.003
C  C189  1  0.89562172  0.92007041  0.42013890  1  0.355687  0.001552  0.089525  0.148411  0.00068  4.027598  0.001
C  C190  1  0.99047251  0.86774991  0.42635747  1  0.081744  0.002059  -0.089442  -0.139972  0.000852  3.959408  0.001
C  C191  1  0.03173513  0.84580342  0.48285209  1  -0.076866  4.4e-05  -0.104364  -0.099728  -8.4e-05  4.034359  0.0
C  C192  1  0.98018442  0.87452787  0.53218287  1  -0.090499  0.001148  -0.105733  -0.098223  0.000563  4.0605  0.001
C  C193  1  0.88506661  0.92623481  0.52693669  1  -0.033573  0.00116  -0.101232  -0.17168  0.00061  4.001565  0.001
C  C194  1  0.74751826  0.99564712  0.38931384  1  1.00802  -0.000718  0.15531  0.115013  -0.001745  3.952759  0.0
C  C195  1  0.65914452  0.03232832  0.48103739  1  0.275075  0.000674  -0.048228  -0.056907  0.000414  3.876333  0.001
C  C196  1  0.37596137  0.92008475  0.26312960  1  0.001242  -6e-06  -0.074704  -0.092094  -0.000264  3.939568  0.0
C  C197  1  0.41686599  0.89900491  0.20963685  1  -0.000807  0.005723  -0.02013  -0.043755  0.00298  3.984648  0.004
C  C198  1  0.33024525  0.86092310  0.15978185  1  -0.063875  0.001392  -0.073311  -0.104914  0.000597  3.938371  0.001
C  C199  1  0.20367225  0.84274960  0.16357182  1  0.040222  0.003749  -0.018089  -0.034119  0.002011  3.997132  0.003
C  C200  1  0.16257864  0.86473271  0.21665811  1  -0.073115  0.0002  -0.07768  -0.107193  -0.000328  3.955736  0.0
C  C201  1  0.24849895  0.90314970  0.26600637  1  -0.207486  0.002475  -0.019363  -0.083149  0.001154  3.985951  0.002
C  C202  1  0.55511609  0.91412986  0.20680786  1  1.549881  0.002269  0.209064  0.572733  0.001062  4.19584  0.001
C  C203  1  0.10966289  0.80073794  0.11176630  1  1.536776  0.000743  0.192793  0.542226  0.000364  4.242949  -0.001
C  C204  1  0.88006264  0.55135913  0.03889327  1  0.330318  0.002963  0.091338  0.084477  0.001467  4.001891  0.002
C  C205  1  0.96547792  0.61183309  0.04734464  1  0.361509  0.002619  0.087561  0.146715  0.001507  4.048386  0.002
C  C206  1  0.08678708  0.61608934  0.08874711  1  -0.021779  0.001426  -0.088683  -0.153152  0.000679  3.96771  0.001
C  C207  1  0.11826329  0.55911957  0.12144224  1  -0.047351  -0.000463  -0.104084  -0.100844  -0.000571  4.040413  0.0
C  C208  1  0.03268621  0.49920332  0.11300048  1  -0.016041  0.000427  -0.101415  -0.087491  0.000171  4.018201  0.0
C  C209  1  0.91216854  0.49391312  0.07144286  1  -0.022601  0.000198  -0.094614  -0.165375  -2.1e-05  3.99715  0.0
C  C210  1  0.79475479  0.62836215  0.97681321  1  1.017926  0.00028  0.165822  0.136118  -0.00078  3.898244  0.001
C  C211  1  0.65489862  0.51809361  0.97034880  1  0.283839  0.000864  -0.048137  -0.059575  0.000556  3.889599  0.001
C  C212  1  0.56142870  0.52394468  0.01298954  1  0.011613  0.000198  -0.156852  -0.161907  9.2e-05  3.927379  0.0
C  C213  1  0.23661605  0.13578614  0.27090689  1  -0.001971  0.000433  -0.165222  -0.17407  0.000227  3.933176  0.0
C  C214  1  0.06397693  0.51880006  0.51630202  1  -0.052469  0.000352  -0.160413  -0.160132  0.000188  3.932529  0.0
C  C215  1  0.65838160  0.42452308  0.68980102  1  0.985895  0.000755  0.162328  0.136641  -0.000497  3.919394  0.0
C  C216  1  0.74703466  0.30214723  0.67193665  1  0.278239  0.000499  -0.049017  -0.05867  0.000309  3.873578  0.0
C  C217  1  0.88015714  0.29565194  0.71444060  1  -0.029911  0.000148  -0.16375  -0.169035  3.9e-05  3.929129  0.0
C  C218  1  0.22860924  0.29099813  0.70515198  1  0.307479  0.002483  0.093987  0.092373  0.001192  4.002898  0.002
C  C219  1  0.25686791  0.21788358  0.69266451  1  0.37615  0.001053  0.087616  0.144151  0.000234  4.026873  0.001
C  C220  1  0.32942484  0.19607442  0.64964136  1  0.039297  0.001138  -0.086871  -0.136944  0.00047  3.968042  0.001
C  C221  1  0.36519458  0.24764462  0.61800191  1  -0.045601  -0.000823  -0.099753  -0.09462  -0.000938  4.029339  -0.001
C  C222  1  0.33142539  0.31963071  0.62904427  1  -0.033867  0.000522  -0.106021  -0.10348  0.000251  4.06241  0.0
C  C223  1  0.26395015  0.34285719  0.67335777  1  0.0143  -2.4e-05  -0.097895  -0.167849  -0.000174  4.018788  0.0
C  C224  1  0.15278018  0.22755049  0.76499281  1  0.971843  -0.002002  0.164794  0.140353  -0.003186  3.87951  -0.001
C  C225  1  0.09515468  0.35654733  0.77370641  1  0.308208  0.000763  -0.048327  -0.055897  0.000438  3.890517  0.001
C  C226  1  0.60549014  0.34641925  0.74464460  1  0.320178  0.002909  0.092221  0.089146  0.00159  4.003151  0.002
C  C227  1  0.55873664  0.41474336  0.76178111  1  0.369643  0.001674  0.081115  0.135777  0.000691  4.064095  0.001
C  C228  1  0.49197989  0.42433757  0.80844475  1  -0.004966  0.001316  -0.103256  -0.176989  0.000401  4.010389  0.001
C  C229  1  0.47325139  0.36486361  0.83576224  1  -0.080583  6.8e-05  -0.104694  -0.099375  -3e-06  4.051885  0.0
C  C230  1  0.51850544  0.29711353  0.81755294  1  -0.065604  0.000877  -0.097998  -0.082937  0.000399  4.010415  0.001
C  C231  1  0.58579689  0.28675093  0.77156495  1  -0.026897  0.000914  -0.091259  -0.152322  0.000459  3.991584  0.001
C  C232  1  0.37355657  0.55203081  0.52968310  1  0.338132  0.003758  0.093093  0.092406  0.002022  3.99033  0.003
C  C233  1  0.47503771  0.58000867  0.57966676  1  0.352292  0.001487  0.087893  0.145833  0.000687  4.030274  0.001
C  C234  1  0.56372353  0.63219678  0.57338598  1  -0.037398  0.002057  -0.089343  -0.141984  0.00084  3.960374  0.001
C  C235  1  0.54866933  0.65392153  0.51681762  1  0.023149  1.4e-05  -0.103441  -0.095913  -8.2e-05  4.033048  0.0
C  C236  1  0.44787661  0.62510594  0.46746588  1  -0.073762  0.001089  -0.106877  -0.101455  0.000504  4.06306  0.001
C  C237  1  0.35777848  0.57362258  0.47278098  1  -0.035388  0.001123  -0.100992  -0.171116  0.000584  3.998602  0.001
C  C238  1  0.35772308  0.50461017  0.61054411  1  1.0149  -0.000736  0.155884  0.115381  -0.001734  3.94976  0.0
C  C239  1  0.17761885  0.46779460  0.51884398  1  0.265439  0.000706  -0.048985  -0.059246  0.000435  3.87876  0.001
C  C240  1  0.11286062  0.57997588  0.73667901  1  0.046583  -9e-06  -0.07339  -0.093072  -0.000254  3.94001  0.0
C  C241  1  0.20730842  0.60108980  0.79018382  1  -0.030374  0.00575  -0.020582  -0.041795  0.002989  3.983452  0.004
C  C242  1  0.17049759  0.63913335  0.84001973  1  -0.085296  0.001421  -0.073846  -0.107743  0.00061  3.938881  0.001
C  C243  1  0.04001584  0.65715610  0.83619475  1  -0.024319  0.003805  -0.019545  -0.035608  0.002025  3.998938  0.003
C  C244  1  0.94580299  0.63511154  0.78311879  1  -0.007576  0.000174  -0.078381  -0.107694  -0.000319  3.959841  0.0
C  C245  1  0.98242529  0.59677407  0.73376964  1  -0.213854  0.002454  -0.019977  -0.083656  0.001141  3.988014  0.002
C  C246  1  0.34848156  0.58606167  0.79307063  1  1.571147  0.002255  0.210145  0.574369  0.001048  4.19499  0.001
C  C247  1  0.99773221  0.69909180  0.88799310  1  1.532457  0.000754  0.193757  0.544753  0.000385  4.242846  -0.001
C  C248  1  0.84085607  0.94818431  0.96093970  1  0.339858  0.002979  0.091412  0.084767  0.001475  4.001465  0.002
C  C249  1  0.91787521  0.88769039  0.95247004  1  0.370045  0.002587  0.089119  0.146737  0.001496  4.046905  0.002
C  C250  1  0.99778219  0.88345094  0.91109125  1  -0.052613  0.001453  -0.089196  -0.152089  0.000679  3.966375  0.001
C  C251  1  0.99651630  0.94045076  0.87842640  1  -0.071277  -0.000459  -0.104281  -0.101922  -0.000571  4.038904  0.0
C  C252  1  0.91942365  0.00041364  0.88691568  1  -0.007784  0.000448  -0.101178  -0.088089  0.000182  4.011208  0.0
C  C253  1  0.84051785  0.00568511  0.92847918  1  -0.025788  0.000206  -0.096411  -0.166084  -1.1e-05  3.994019  0.0
C  C254  1  0.81746197  0.87103855  0.02284653  1  0.97681  0.000268  0.165874  0.135615  -0.000829  3.897708  0.001
C  C255  1  0.68442920  0.98147847  0.02953933  1  0.327583  0.000866  -0.04684  -0.056518  0.00056  3.889642  0.001
C  C256  1  0.54816962  0.97594997  0.98698867  1  -0.007852  0.0002  -0.158485  -0.163187  9.2e-05  3.930072  0.0
C  C257  1  0.96466438  0.36447343  0.72915602  1  -0.018226  3.7e-05  -0.165806  -0.177325  3e-06  3.935978  0.0
C  C258  1  0.45179520  0.01877306  0.51663507  1  -0.012689  0.000292  -0.161113  -0.161056  0.000158  3.93323  0.0
C  C259  1  0.03121414  0.92456695  0.68989722  1  0.976722  0.000743  0.161017  0.134835  -0.000481  3.918917  0.0
C  C260  1  0.92465581  0.80221735  0.67211769  1  0.281883  0.0005  -0.047894  -0.056958  0.000309  3.872181  0.0
C  C261  1  0.83406954  0.79574902  0.71460744  1  -0.029406  0.00015  -0.164163  -0.172402  4e-05  3.930387  0.0
C  C262  1  0.47561930  0.79110957  0.70504282  1  0.292889  0.002487  0.093006  0.09346  0.001189  4.002389  0.002
C  C263  1  0.43520066  0.71796593  0.69245038  1  0.381979  0.001034  0.089376  0.145135  0.000228  4.027247  0.001
C  C264  1  0.31955921  0.69613815  0.64943615  1  0.019945  0.001137  -0.087717  -0.139584  0.00047  3.967045  0.001
C  C265  1  0.25177049  0.74774474  0.61792429  1  -0.038275  -0.000825  -0.101009  -0.095653  -0.000939  4.026683  -0.001
C  C266  1  0.29619641  0.81977316  0.62906734  1  -0.049427  0.000524  -0.105543  -0.102802  0.000252  4.060928  0.0
C  C267  1  0.40807358  0.84299043  0.67337721  1  0.016617  -2.5e-05  -0.098244  -0.169054  -0.000173  4.018788  0.0
C  C268  1  0.61176421  0.72765133  0.76477998  1  0.983187  -0.002025  0.164086  0.13955  -0.003213  3.882416  -0.001
C  C269  1  0.67766516  0.85664875  0.77357321  1  0.295112  0.000766  -0.048559  -0.056947  0.000437  3.890467  0.001
C  C270  1  0.13906949  0.84640206  0.74475256  1  0.307525  0.002897  0.090559  0.085695  0.001591  4.001742  0.002
C  C271  1  0.20292382  0.91470695  0.76189707  1  0.386804  0.001662  0.081542  0.136686  0.000692  4.06193  0.001
C  C272  1  0.31654360  0.92426161  0.80848740  1  -0.132713  0.00133  -0.103654  -0.17752  0.000398  4.00854  0.001
C  C273  1  0.36292256  0.86475595  0.83570853  1  -0.023924  6e-05  -0.105046  -0.100829  -0.0  4.053568  0.0
C  C274  1  0.29961146  0.79700567  0.81748388  1  -0.076668  0.000878  -0.096698  -0.080999  0.000399  4.008009  0.001
C  C275  1  0.18605048  0.78669751  0.77160397  1  0.053223  0.000899  -0.091149  -0.150916  0.00046  3.988175  0.001
C  C276  1  0.15582745  0.05192325  0.52990215  1  0.323791  0.003747  0.094086  0.091874  0.002016  3.994491  0.003
C  C277  1  0.10440093  0.07994008  0.57987973  1  0.356469  0.001562  0.089677  0.148555  0.00069  4.027345  0.001
C  C278  1  0.00954868  0.13225504  0.57364357  1  0.082233  0.002055  -0.089684  -0.140331  0.000849  3.959766  0.001
C  C279  1  0.96833135  0.15420319  0.51714642  1  -0.078978  4.4e-05  -0.104382  -0.099886  -8.4e-05  4.035048  0.0
C  C280  1  0.01988770  0.12547173  0.46781791  1  -0.090155  0.001147  -0.105906  -0.098684  0.000561  4.061034  0.001
C  C281  1  0.11498990  0.07375005  0.47307693  1  -0.033707  0.001158  -0.101515  -0.17171  0.000609  4.001088  0.001
C  C282  1  0.25251060  0.00436542  0.61070921  1  1.003918  -0.000704  0.155351  0.114898  -0.00173  3.951954  0.0
C  C283  1  0.34085092  0.96763704  0.51898731  1  0.273717  0.000671  -0.048559  -0.05771  0.000413  3.876683  0.001
C  C284  1  0.62408376  0.08001743  0.73691276  1  0.002092  7e-06  -0.074421  -0.092004  -0.000251  3.939137  0.0
C  C285  1  0.58317533  0.10111727  0.79039708  1  0.002406  0.005719  -0.020286  -0.043218  0.00298  3.983885  0.004
C  C286  1  0.66978677  0.13918655  0.84026257  1  -0.067291  0.001387  -0.073445  -0.1052  0.000595  3.93842  0.001
C  C287  1  0.79638994  0.15733015  0.83649312  1  0.039669  0.0038  -0.018403  -0.034635  0.002038  3.995974  0.003
C  C288  1  0.83747919  0.13533224  0.78339654  1  -0.070095  0.000205  -0.077907  -0.107304  -0.000323  3.954829  0.0
C  C289  1  0.75155135  0.09693107  0.73403485  1  -0.209072  0.002479  -0.019338  -0.083206  0.001155  3.985034  0.002
C  C290  1  0.44493614  0.08597147  0.79322387  1  1.550088  0.002254  0.20847  0.571113  0.001056  4.197008  0.001
C  C291  1  0.89046422  0.19935767  0.88830892  1  1.536941  0.000768  0.193166  0.543204  0.000404  4.242286  -0.001
C  C292  1  0.12004352  0.44864578  0.96121495  1  0.311531  0.002988  0.091709  0.084217  0.001476  4.001926  0.002
C  C293  1  0.03452000  0.38821876  0.95280142  1  0.365431  0.00261  0.088299  0.147582  0.001509  4.047641  0.002
C  C294  1  0.91329415  0.38395090  0.91133637  1  -0.077401  0.001435  -0.088758  -0.153758  0.000681  3.968448  0.001
C  C295  1  0.88193288  0.44087795  0.87858089  1  0.00888  -0.000447  -0.104  -0.100221  -0.000557  4.041251  0.0
C  C296  1  0.96756398  0.50077549  0.88701969  1  -0.033625  0.000446  -0.101896  -0.088317  0.00018  4.017999  0.0
C  C297  1  0.08801868  0.50607158  0.92863046  1  0.008997  0.000206  -0.094894  -0.165057  -5e-06  3.996232  0.0
C  C298  1  0.20513617  0.37170632  0.02338573  1  0.979948  0.000351  0.166653  0.137617  -0.000721  3.898204  0.001
C  C299  1  0.34523570  0.48184883  0.02980039  1  0.324176  0.000871  -0.048126  -0.059429  0.000561  3.886899  0.001
C  C300  1  0.43866996  0.47597883  0.98714220  1  -0.044747  0.000205  -0.156968  -0.161648  9.4e-05  3.927453  0.0
C  C301  1  0.76376502  0.86449119  0.72911206  1  -0.006945  3.6e-05  -0.165379  -0.173884  1e-06  3.931887  0.0
C  C302  1  0.93457954  0.48086497  0.48311098  1  -0.024259  0.000584  -0.161516  -0.161957  0.00032  3.934824  0.0
C  C303  1  0.34112402  0.57524463  0.30890576  1  0.971499  -0.005926  0.156138  0.124757  -0.007212  3.924435  -0.004
C  C304  1  0.25370680  0.69778562  0.32744212  1  0.278837  0.000622  -0.04799  -0.055383  0.000321  3.874964  0.001
C  C305  1  0.12011478  0.70430309  0.28529970  1  -0.028655  -0.000133  -0.164541  -0.170835  -0.000195  3.9318  0.0
C  C306  1  0.77145609  0.70886976  0.29489532  1  0.303428  0.002477  0.094445  0.092644  0.001187  4.002958  0.002
C  C307  1  0.74320605  0.78198300  0.30742092  1  0.3771  0.001043  0.088211  0.144856  0.000224  4.028027  0.001
C  C308  1  0.67064594  0.80376427  0.35044492  1  0.030867  0.001129  -0.087224  -0.137582  0.000465  3.967626  0.001
C  C309  1  0.63478483  0.75214365  0.38200781  1  -0.031148  -0.000816  -0.099877  -0.09428  -0.000928  4.029302  -0.001
C  C310  1  0.66849765  0.68015055  0.37091515  1  -0.034617  0.000517  -0.10599  -0.103752  0.000236  4.062494  0.0
C  C311  1  0.73601817  0.65694746  0.32661135  1  -0.029187  -6e-06  -0.098356  -0.168637  -0.000159  4.019823  0.0
C  C312  1  0.84726988  0.77240498  0.23509605  1  0.971932  -0.001973  0.165053  0.140379  -0.003148  3.880907  -0.001
C  C313  1  0.90487566  0.64341099  0.22629487  1  0.307477  0.000741  -0.047973  -0.055182  0.000425  3.889306  0.001
C  C314  1  0.39510048  0.65357853  0.25459942  1  0.31796  0.00264  0.091216  0.087359  0.001232  4.004314  0.002
C  C315  1  0.44145110  0.58519144  0.23724227  1  0.354101  0.001214  0.081557  0.138259  0.000206  4.056111  0.001
C  C316  1  0.50855474  0.57569786  0.19071389  1  -0.035913  0.001375  -0.102901  -0.17673  0.000449  4.003793  0.001
C  C317  1  0.52797951  0.63527981  0.16366825  1  -0.044924  -0.001205  -0.10733  -0.104114  -0.001338  4.054068  -0.001
C  C318  1  0.48279849  0.70304804  0.18198570  1  -0.088267  0.000566  -0.096245  -0.079058  0.000235  4.007208  0.0
C  C319  1  0.41525826  0.71332713  0.22786545  1  0.055667  -0.000222  -0.094355  -0.156121  -0.000413  3.993045  0.0
C  C320  1  0.62584267  0.44684978  0.47019193  1  0.330281  0.003111  0.09294  0.091679  0.001733  3.988882  0.002
C  C321  1  0.52460060  0.41824970  0.42036568  1  0.339526  0.001996  0.088433  0.148058  0.000857  4.028005  0.002
C  C322  1  0.43596110  0.36625677  0.42695688  1  -0.018405  0.001694  -0.090864  -0.143964  0.000585  3.959911  0.001
C  C323  1  0.45123282  0.34509102  0.48373167  1  -0.064137  0.000697  -0.102256  -0.093901  0.000365  4.03297  0.0
C  C324  1  0.55216731  0.37427224  0.53289186  1  -0.023242  0.000821  -0.108072  -0.105482  0.000392  4.064358  0.0
C  C325  1  0.64191224  0.42577588  0.52726690  1  -0.032693  0.001701  -0.100383  -0.169085  0.000878  3.996249  0.001
C  C326  1  0.64052025  0.49385586  0.38898479  1  1.011445  0.003079  0.157642  0.117922  0.00159  3.94528  0.002
C  C327  1  0.82065006  0.53167114  0.48048894  1  0.286994  0.00068  -0.04955  -0.060707  0.000441  3.878984  0.0
C  C328  1  0.88723245  0.42074154  0.26375711  1  -0.039577  -0.001085  -0.074328  -0.093674  -0.00144  3.940561  -0.001
C  C329  1  0.79240200  0.39988690  0.21033893  1  -0.022129  0.006353  -0.020676  -0.041584  0.003216  3.979111  0.005
C  C330  1  0.82886080  0.36172326  0.16042919  1  -0.05936  6.1e-05  -0.074306  -0.108675  -0.000584  3.937635  0.0
C  C331  1  0.95922054  0.34332493  0.16411852  1  -0.033004  0.004013  -0.019468  -0.033848  0.002139  3.993831  0.003
C  C332  1  0.05378663  0.36525385  0.21710739  1  0.010441  -0.001032  -0.079109  -0.109257  -0.001545  3.962085  -0.001
C  C333  1  0.01753527  0.40374286  0.26648648  1  -0.182373  0.002545  -0.020536  -0.084283  0.001147  3.990797  0.002
C  C334  1  0.65109250  0.41481022  0.20820559  1  1.56164  -0.000787  0.204967  0.56773  -0.001466  4.202526  0.0
C  C335  1  0.00140647  0.30132758  0.11226897  1  1.537217  0.000747  0.19191  0.541247  0.000391  4.243055  -0.001
C  C336  1  0.15915848  0.05195250  0.03913911  1  0.334241  0.002968  0.09141  0.085207  0.001464  4.001976  0.002
C  C337  1  0.08221284  0.11245432  0.04769409  1  0.379813  0.002563  0.088695  0.145797  0.001486  4.047849  0.002
C  C338  1  0.00233638  0.11664746  0.08908382  1  -0.055459  0.001462  -0.088911  -0.151916  0.000689  3.965594  0.001
C  C339  1  0.00355250  0.05958429  0.12167572  1  -0.069022  -0.00046  -0.104476  -0.101574  -0.000575  4.038602  0.0
C  C340  1  0.08059832  0.99961486  0.11311329  1  -0.007898  0.00045  -0.101147  -0.08837  0.000183  4.011285  0.0
C  C341  1  0.15948351  0.99440137  0.07154468  1  -0.026176  0.000203  -0.095857  -0.165023  -1.4e-05  3.993411  0.0
C  C342  1  0.18243271  0.12916822  0.97727173  1  0.987755  0.00019  0.166331  0.137332  -0.000885  3.897339  0.001
C  C343  1  0.31541959  0.01865808  0.97047500  1  0.285517  0.000875  -0.046442  -0.056408  0.000562  3.887065  0.001
C  C344  1  0.45171175  0.02411396  0.01301233  1  0.016587  0.000196  -0.157954  -0.162688  9.1e-05  3.929057  0.0
C  C345  1  0.03554475  0.63551938  0.27075583  1  -0.018149  3.1e-05  -0.166145  -0.177827  -1.1e-05  3.937478  0.0
S  S346  1  0.19334733  0.92625958  0.33375793  1  3.17501  0.003449  0.500499  1.166558  0.002566  6.227116  0.006
S  S347  1  0.85951821  0.57362912  0.66597646  1  3.199689  0.003305  0.50188  1.169313  0.002565  6.224115  0.006
S  S348  1  0.80668902  0.07385256  0.66626936  1  3.173907  0.003451  0.500643  1.16724  0.002571  6.225931  0.006
S  S349  1  0.14021838  0.42656574  0.33430671  1  3.19826  0.003727  0.504785  1.17308  0.002869  6.218608  0.006
N  N350  1  0.86738160  0.03774206  0.27401056  1  -1.214301  0.050147  -0.359699  -0.388745  0.026541  3.557887  0.04
N  N351  1  0.96939269  0.14516824  0.30112682  1  -1.264135  0.004224  -0.244327  -0.024107  0.002054  3.731982  0.003
N  N352  1  0.47687982  0.32061693  0.26965251  1  -1.190338  0.052341  -0.351048  -0.358804  0.027938  3.508187  0.04
N  N353  1  0.41402065  0.20497492  0.24818065  1  -1.234368  0.006981  -0.24456  -0.029582  0.003331  3.733439  0.005
N  N354  1  0.83250848  0.95151340  0.37013612  1  -1.200228  0.062325  -0.354108  -0.364097  0.033284  3.571105  0.051
N  N355  1  0.75071203  0.99627356  0.44875947  1  -1.241927  0.004473  -0.241459  -0.018658  0.002188  3.741433  0.003
N  N356  1  0.90838642  0.65899169  0.00796405  1  -1.206955  0.059983  -0.358176  -0.360898  0.031472  3.624315  0.039
N  N357  1  0.77234450  0.56389031  0.99383441  1  -1.22448  0.004659  -0.240075  -0.024637  0.002137  3.729018  0.004
N  N358  1  0.59307243  0.46232207  0.72588817  1  -1.203547  0.050182  -0.360641  -0.389606  0.026596  3.561012  0.04
N  N359  1  0.66761553  0.35481177  0.69864974  1  -1.235213  0.004259  -0.245296  -0.026061  0.002076  3.734218  0.003
N  N360  1  0.20464025  0.17950964  0.73002519  1  -1.196976  0.050191  -0.350832  -0.359565  0.027279  3.515893  0.04
N  N361  1  0.16500658  0.29533727  0.75215773  1  -1.231479  0.001573  -0.246686  -0.032022  0.000373  3.731608  0.001
N  N362  1  0.46200646  0.54862871  0.62969676  1  -1.222514  0.062473  -0.354369  -0.364078  0.033286  3.572042  0.05
N  N363  1  0.30137902  0.50395809  0.55108702  1  -1.252985  0.00448  -0.240157  -0.018321  0.002191  3.74  0.003
N  N364  1  0.90008399  0.84046422  0.99175634  1  -1.202778  0.060007  -0.358202  -0.36049  0.031497  3.626454  0.039
N  N365  1  0.77812300  0.93558997  0.00591603  1  -1.231241  0.004641  -0.239856  -0.024748  0.00213  3.727693  0.004
N  N366  1  0.13265883  0.96231727  0.72600456  1  -1.216933  0.050227  -0.359728  -0.388485  0.026576  3.558967  0.04
N  N367  1  0.03079589  0.85486719  0.69879767  1  -1.242088  0.004288  -0.244442  -0.024834  0.00209  3.73328  0.003
N  N368  1  0.52508297  0.67958727  0.72976172  1  -1.189694  0.050214  -0.350411  -0.357279  0.027264  3.516296  0.04
N  N369  1  0.58636060  0.79544789  0.75203602  1  -1.22124  0.001556  -0.245792  -0.033072  0.000367  3.733922  0.001
N  N370  1  0.16752407  0.04850826  0.62988632  1  -1.201368  0.062366  -0.354176  -0.364194  0.033297  3.570285  0.051
N  N371  1  0.24929418  0.00372084  0.55126026  1  -1.240518  0.004483  -0.241299  -0.018257  0.002193  3.740916  0.003
N  N372  1  0.09145668  0.34110584  0.99225556  1  -1.208101  0.060142  -0.359112  -0.361883  0.031531  3.62465  0.039
N  N373  1  0.22769438  0.43611816  0.00630966  1  -1.226762  0.004686  -0.240087  -0.024808  0.002148  3.728603  0.004
N  N374  1  0.40606729  0.53740339  0.27265917  1  -1.20671  0.053565  -0.358472  -0.3872  0.02865  3.560007  0.044
N  N375  1  0.33278447  0.64515946  0.30045187  1  -1.255624  0.000158  -0.244274  -0.023184  -0.000738  3.734753  0.0
N  N376  1  0.79540113  0.82041165  0.27008417  1  -1.197321  0.050219  -0.350769  -0.359827  0.027296  3.516422  0.04
N  N377  1  0.83507916  0.70460764  0.24789647  1  -1.229668  0.001573  -0.24706  -0.031933  0.000376  3.732483  0.001
N  N378  1  0.53695615  0.44925140  0.37012486  1  -1.192049  0.060708  -0.354065  -0.364557  0.032327  3.567665  0.048
N  N379  1  0.69710729  0.49505350  0.44843979  1  -1.219863  0.007712  -0.239311  -0.017202  0.003769  3.737427  0.006
N  N380  1  0.09992753  0.15974246  0.00844409  1  -1.207567  0.05997  -0.357876  -0.360888  0.031475  3.626094  0.039
N  N381  1  0.22178621  0.06457901  0.99413662  1  -1.231126  0.004595  -0.240827  -0.026411  0.002106  3.727131  0.004
O  O382  1  0.63128970  0.94439291  0.25567081  1  -1.166383  0.082771  -0.318736  -0.57001  0.042131  2.383318  0.07
O  O383  1  0.58832532  0.89640733  0.15706183  1  -1.16946  0.008275  -0.3279  -0.55632  0.003654  2.155741  0.007
O  O384  1  0.99590702  0.78484547  0.11574376  1  -1.163968  0.038207  -0.318173  -0.554164  0.018714  2.143098  0.032
O  O385  1  0.15230565  0.78252252  0.06334376  1  -1.140432  0.102956  -0.333109  -0.541406  0.051604  2.289128  0.081
O  O386  1  0.04931481  0.91778020  0.31339663  1  -1.327068  0.02901  -0.342181  -0.638746  0.015657  2.387286  0.021
O  O387  1  0.25154062  0.87437222  0.37336101  1  -1.330018  0.004846  -0.352038  -0.600512  0.002376  2.127272  0.004
O  O388  1  0.23873716  0.00039996  0.35744977  1  -1.340918  0.001954  -0.355888  -0.613292  0.000895  2.157163  0.002
O  O389  1  0.83949586  0.90992177  0.18334732  1  -1.214106  0.05273  -0.567694  -0.742982  0.027455  2.137721  0.042
O  O390  1  0.37573366  0.55570719  0.74423125  1  -1.16316  0.08294  -0.319674  -0.571088  0.042275  2.385351  0.07
O  O391  1  0.43150793  0.60388690  0.84279911  1  -1.188788  0.008277  -0.327763  -0.557111  0.00366  2.154436  0.007
O  O392  1  0.87992561  0.71491938  0.88398009  1  -1.167527  0.038162  -0.318865  -0.555357  0.018648  2.143532  0.032
O  O393  1  0.08882852  0.71727166  0.93644243  1  -1.135663  0.102941  -0.333101  -0.542752  0.051581  2.291226  0.081
O  O394  1  0.73579035  0.58193387  0.68628497  1  -1.348429  0.029034  -0.343548  -0.640236  0.015577  2.383131  0.021
O  O395  1  0.87780188  0.62558568  0.62640306  1  -1.329845  0.004803  -0.352278  -0.601372  0.002357  2.12663  0.004
O  O396  1  0.88161681  0.49953600  0.64229018  1  -1.342969  0.001974  -0.355231  -0.613101  0.000906  2.158004  0.002
O  O397  1  0.65639988  0.59011329  0.81647941  1  -1.230904  0.052832  -0.56721  -0.743726  0.027467  2.137187  0.042
O  O398  1  0.36882405  0.05564664  0.74436760  1  -1.166392  0.082754  -0.318598  -0.569533  0.042117  2.383931  0.07
O  O399  1  0.41169696  0.10372906  0.84295880  1  -1.17038  0.008251  -0.327611  -0.555701  0.003643  2.155651  0.007
O  O400  1  0.00413574  0.21530023  0.88426659  1  -1.164493  0.037578  -0.318272  -0.554295  0.018415  2.143112  0.031
O  O401  1  0.84790807  0.21750582  0.93677090  1  -1.140584  0.102921  -0.333311  -0.5422  0.051578  2.289656  0.081
O  O402  1  0.95072798  0.08227827  0.68663459  1  -1.327544  0.028962  -0.342128  -0.638866  0.015636  2.387074  0.021
O  O403  1  0.74857020  0.12582185  0.62672102  1  -1.329059  0.00485  -0.352061  -0.601086  0.002377  2.127387  0.004
O  O404  1  0.76119760  0.99974725  0.64251399  1  -1.340493  0.001948  -0.35599  -0.613436  0.000892  2.157078  0.002
O  O405  1  0.16051542  0.09005931  0.81672092  1  -1.215378  0.052856  -0.567959  -0.743231  0.027506  2.137489  0.042
O  O406  1  0.62494238  0.44387289  0.25744519  1  -1.165647  0.070236  -0.315799  -0.569533  0.035943  2.378888  0.061
O  O407  1  0.56745274  0.39725727  0.15837369  1  -1.188488  0.000545  -0.333368  -0.563958  -0.000794  2.157676  0.0
O  O408  1  0.11920534  0.28541135  0.11631955  1  -1.165536  0.038214  -0.318022  -0.554492  0.018617  2.144073  0.032
O  O409  1  0.91048483  0.28332080  0.06371449  1  -1.133958  0.102952  -0.332012  -0.540547  0.051632  2.289035  0.081
O  O410  1  0.26450621  0.41842442  0.31428512  1  -1.348144  0.034227  -0.345264  -0.642139  0.018412  2.399895  0.024
O  O411  1  0.12204407  0.37427090  0.37356935  1  -1.32793  0.005687  -0.350573  -0.599962  0.002822  2.129142  0.005
O  O412  1  0.11869649  0.50056983  0.35825556  1  -1.345439  0.003037  -0.352969  -0.610386  0.001416  2.160079  0.003
O  O413  1  0.34260316  0.40996853  0.18401767  1  -1.222567  0.056033  -0.566668  -0.744582  0.029094  2.144739  0.045
