# generated using pymatgen
data_ZnH15C25N7O4
_symmetry_space_group_name_H-M   'P 1'
_cell_length_a   16.26469478
_cell_length_b   17.73531957
_cell_length_c   19.36446365
_cell_angle_alpha   89.99985863
_cell_angle_beta   89.99987395
_cell_angle_gamma   103.29304126
_symmetry_Int_Tables_number   1
_chemical_formula_structural   ZnH15C25N7O4
_chemical_formula_sum   'Zn8 H120 C200 N56 O32'
_cell_volume   5436.20150199
_cell_formula_units_Z   8
loop_
 _symmetry_equiv_pos_site_id
 _symmetry_equiv_pos_as_xyz
  1  'x, y, z'
loop_
 _atom_site_type_symbol
 _atom_site_label
 _atom_site_symmetry_multiplicity
 _atom_site_fract_x
 _atom_site_fract_y
 _atom_site_fract_z
 _atom_site_occupancy
 _atom_site_pbe_bader_charge
 _atom_site_pbe_bader_spin_density
 _atom_site_pbe_cm5_charge
 _atom_site_pbe_ddec_charge
 _atom_site_pbe_ddec_spin_density
 _atom_site_pbe_ddec_sum_bond_order
 _atom_site_pbe_magmom
Zn  Zn0  1  0.57884692  0.08571920  0.65804960  1  1.314301  0  0.68364  0.815453  0  2.311593  0
Zn  Zn1  1  0.42115289  0.91428249  0.15804528  1  1.314456  0  0.683644  0.815431  0  2.311653  0
Zn  Zn2  1  0.40744146  0.11780468  0.52281076  1  1.3178  0  0.683477  0.815756  0  2.340341  0
Zn  Zn3  1  0.59255716  0.88219572  0.02280929  1  1.317752  0  0.683486  0.815801  0  2.34023  0
Zn  Zn4  1  0.91826675  0.16304225  0.15763719  1  1.317122  0  0.681648  0.811538  0  2.305649  0
Zn  Zn5  1  0.08173135  0.83695480  0.65763711  1  1.316993  0  0.68164  0.811488  0  2.305661  0
Zn  Zn6  1  0.09085316  0.13183948  0.02306986  1  1.318534  0  0.685264  0.819002  0  2.351568  0
Zn  Zn7  1  0.90914690  0.86815920  0.52306970  1  1.318544  0  0.685252  0.818966  0  2.351525  0
H  H8  1  0.75838899  0.18842219  0.98299144  1  0.093737  0  0.099434  0.100804  0  1.035593  0
H  H9  1  0.24161600  0.81157385  0.48299182  1  0.093915  0  0.099426  0.100815  0  1.035492  0
H  H10  1  0.66687294  0.17147655  0.87717348  1  0.071472  0  0.103277  0.106275  0  1.014543  0
H  H11  1  0.33313413  0.82852449  0.37717366  1  0.071313  0  0.103316  0.106235  0  1.01457  0
H  H12  1  0.83887737  0.05711549  0.77505340  1  0.091465  0  0.099698  0.099591  0  1.020324  0
H  H13  1  0.16113047  0.94288764  0.27505260  1  0.091505  0  0.099688  0.099565  0  1.020223  0
H  H14  1  0.92942197  0.07305868  0.88157677  1  0.090655  0  0.103561  0.108098  0  1.016594  0
H  H15  1  0.07058434  0.92694177  0.38157928  1  0.090809  0  0.103524  0.108036  0  1.016665  0
H  H16  1  0.25709938  0.15964042  0.68900652  1  0.078852  0  0.099298  0.098712  0  1.046248  0
H  H17  1  0.74289566  0.84035707  0.18900641  1  0.078629  0  0.099361  0.098797  0  1.04623  0
H  H18  1  0.17472426  0.17439427  0.79563334  1  0.097596  0  0.103169  0.109681  0  1.007654  0
H  H19  1  0.82527432  0.82560117  0.29563053  1  0.097666  0  0.103118  0.109608  0  1.007656  0
H  H20  1  0.34158523  0.07112033  0.91632087  1  0.068913  0  0.100086  0.100081  0  1.019962  0
H  H21  1  0.65841863  0.92888055  0.41631762  1  0.06893  0  0.100092  0.100067  0  1.01993  0
H  H22  1  0.42207491  0.05378390  0.80873973  1  0.101174  0  0.104927  0.113276  0  1.005091  0
H  H23  1  0.57792623  0.94621731  0.30873969  1  0.1013  0  0.104906  0.113231  0  1.005138  0
H  H24  1  0.06094704  0.16541489  0.31104787  1  0.106737  0  0.106292  0.114255  0  1.008547  0
H  H25  1  0.93905080  0.83458281  0.81104773  1  0.10676  0  0.10628  0.114238  0  1.008531  0
H  H26  1  0.14099385  0.14170898  0.41717728  1  0.083926  0  0.096055  0.083075  0  1.063011  0
H  H27  1  0.85900383  0.85828662  0.91717672  1  0.08369  0  0.096085  0.083095  0  1.063024  0
H  H28  1  0.34146035  0.09955537  0.28991051  1  0.096962  0  0.101348  0.105347  0  1.030768  0
H  H29  1  0.65853887  0.90044530  0.78991282  1  0.096795  0  0.101357  0.105359  0  1.030756  0
H  H30  1  0.25882385  0.11719429  0.18392674  1  0.077989  0  0.098708  0.099055  0  1.043926  0
H  H31  1  0.74117581  0.88280962  0.68392841  1  0.077972  0  0.098716  0.09911  0  1.04389  0
H  H32  1  0.55336106  0.14334201  0.37333937  1  0.084919  0  0.105  0.113266  0  1.012796  0
H  H33  1  0.44663829  0.85666011  0.87333391  1  0.084718  0  0.104995  0.113217  0  1.012855  0
H  H34  1  0.64412620  0.15517955  0.26660459  1  0.082929  0  0.096885  0.087708  0  1.055781  0
H  H35  1  0.35587310  0.84482120  0.76660036  1  0.082864  0  0.09689  0.087715  0  1.055735  0
H  H36  1  0.85078752  0.11667087  0.38840900  1  0.091436  0  0.099227  0.101504  0  1.038518  0
H  H37  1  0.14921396  0.88333008  0.88840868  1  0.091444  0  0.099253  0.101492  0  1.038534  0
H  H38  1  0.75861303  0.09917374  0.49406708  1  0.10184  0  0.098361  0.099372  0  1.04103  0
H  H39  1  0.24139036  0.90082860  0.99406552  1  0.101699  0  0.098388  0.099418  0  1.040936  0
H  H40  1  0.19286888  0.76664942  0.22186256  1  0.105075  0  0.115202  0.086888  0  1.018244  0
H  H41  1  0.80712955  0.23334974  0.72186301  1  0.10506  0  0.115215  0.086879  0  1.018181  0
H  H42  1  0.09806570  0.63952225  0.03848410  1  0.083843  0  0.110558  0.111751  0  1.006261  0
H  H43  1  0.90192986  0.36047575  0.53848254  1  0.083858  0  0.11055  0.111773  0  1.006291  0
H  H44  1  0.20817396  0.53729295  0.20820532  1  0.100121  0  0.116189  0.091623  0  0.981933  0
H  H45  1  0.79182527  0.46270683  0.70820527  1  0.10014  0  0.116181  0.091594  0  0.981898  0
H  H46  1  0.19340773  0.87111484  0.15764016  1  0.553683  0  0.304768  0.298671  0  1.011398  0
H  H47  1  0.80659372  0.12888340  0.65764292  1  0.553682  0  0.304714  0.29866  0  1.011391  0
H  H48  1  0.98793568  0.84818652  0.93471079  1  0.079445  0  0.111255  0.129491  0  0.998417  0
H  H49  1  0.01206277  0.15181250  0.43471054  1  0.079462  0  0.111266  0.129508  0  0.998466  0
H  H50  1  0.00204495  0.99228767  0.94085425  1  0.079168  0  0.114532  0.092564  0  1.011008  0
H  H51  1  0.99795608  0.00771193  0.44085608  1  0.079176  0  0.114545  0.092636  0  1.010919  0
H  H52  1  0.15518068  0.01843176  0.11429528  1  0.140142  0  0.120788  0.110227  0  1.017317  0
H  H53  1  0.84481982  0.98156720  0.61429808  1  0.140023  0  0.120789  0.110254  0  1.017293  0
H  H54  1  0.06919331  0.52194634  0.99365402  1  0.478317  0  0.34272  0.305079  0  0.892244  0
H  H55  1  0.93080528  0.47805133  0.49365284  1  0.478313  0  0.34273  0.305093  0  0.892308  0
H  H56  1  0.02127021  0.37581703  0.91071158  1  0.086959  0  0.114035  0.13225  0  0.982128  0
H  H57  1  0.97873018  0.62418209  0.41070945  1  0.086902  0  0.114048  0.132288  0  0.982101  0
H  H58  1  0.03566861  0.23875267  0.92248897  1  0.118425  0  0.121241  0.099271  0  0.99023  0
H  H59  1  0.96433419  0.76124644  0.42248810  1  0.118393  0  0.121247  0.099273  0  0.990216  0
H  H60  1  0.16281182  0.27960783  0.10942678  1  0.125222  0  0.124008  0.109196  0  0.994269  0
H  H61  1  0.83718781  0.72038998  0.60942502  1  0.125256  0  0.124019  0.109289  0  0.99423  0
H  H62  1  0.27950371  0.47260432  0.70233675  1  0.074158  0  0.114699  0.089262  0  0.985207  0
H  H63  1  0.72048800  0.52739482  0.20233895  1  0.074156  0  0.114679  0.089219  0  0.985245  0
H  H64  1  0.40942925  0.62587954  0.54261708  1  0.083165  0  0.110029  0.107281  0  1.0121  0
H  H65  1  0.59057033  0.37411734  0.04261832  1  0.083158  0  0.11003  0.107313  0  1.012107  0
H  H66  1  0.26444991  0.70247671  0.70270676  1  0.098669  0  0.116526  0.088886  0  0.993123  0
H  H67  1  0.73554639  0.29752364  0.20271256  1  0.098742  0  0.116515  0.088892  0  0.993058  0
H  H68  1  0.43050512  0.51869789  0.49379218  1  0.473648  0  0.343097  0.306297  0  0.891153  0
H  H69  1  0.56949498  0.48130095  0.99379044  1  0.473598  0  0.34312  0.306357  0  0.891073  0
H  H70  1  0.48675207  0.39430691  0.41414431  1  0.099888  0  0.11451  0.132993  0  0.980596  0
H  H71  1  0.51324858  0.60569336  0.91414188  1  0.099867  0  0.114546  0.133071  0  0.980599  0
H  H72  1  0.47740767  0.25208417  0.42828946  1  0.127618  0  0.121093  0.100586  0  0.990427  0
H  H73  1  0.52258910  0.74791543  0.92828979  1  0.127582  0  0.12108  0.100527  0  0.990431  0
H  H74  1  0.35944386  0.24059961  0.61883863  1  0.153811  0  0.120185  0.107894  0  1.019786  0
H  H75  1  0.64055525  0.75939874  0.11883735  1  0.153862  0  0.120185  0.107889  0  1.019815  0
H  H76  1  0.29222663  0.81631327  0.65076146  1  0.580364  0  0.309183  0.301803  0  1.004325  0
H  H77  1  0.70777067  0.18368553  0.15076343  1  0.580354  0  0.309193  0.301856  0  1.004333  0
H  H78  1  0.49664067  0.87599097  0.42727760  1  0.080325  0  0.111976  0.130086  0  0.993486  0
H  H79  1  0.50335836  0.12401560  0.92727784  1  0.080273  0  0.112003  0.130113  0  0.993485  0
H  H80  1  0.47778372  0.01207627  0.43074217  1  0.114937  0  0.117271  0.09343  0  1.005755  0
H  H81  1  0.52221352  0.98792795  0.93073988  1  0.114934  0  0.117283  0.093487  0  1.005744  0
H  H82  1  0.32437799  0.97332275  0.60480490  1  0.119602  0  0.123802  0.110169  0  0.997048  0
H  H83  1  0.67562036  0.02667737  0.10480162  1  0.119611  0  0.123808  0.110232  0  0.997125  0
H  H84  1  0.68571638  0.72535651  0.46447924  1  0.111516  0  0.116564  0.090725  0  1.00229  0
H  H85  1  0.31427965  0.27464816  0.96448208  1  0.111464  0  0.116597  0.09077  0  1.002208  0
H  H86  1  0.58354586  0.59240177  0.64302407  1  0.10033  0  0.109973  0.110365  0  1.00623  0
H  H87  1  0.41645606  0.40760347  0.14302195  1  0.100386  0  0.109978  0.110347  0  1.006324  0
H  H88  1  0.69107634  0.49315172  0.47003917  1  0.118742  0  0.116281  0.091543  0  0.981571  0
H  H89  1  0.30892502  0.50685473  0.97003684  1  0.118617  0  0.116294  0.091562  0  0.981487  0
H  H90  1  0.68087477  0.82732496  0.52672872  1  0.58567  0  0.30674  0.301583  0  1.010968  0
H  H91  1  0.31912296  0.17267946  0.02672939  1  0.585645  0  0.306768  0.301588  0  1.011025  0
H  H92  1  0.47919221  0.80444673  0.75181651  1  0.085389  0  0.111277  0.129317  0  0.990318  0
H  H93  1  0.52080577  0.19555348  0.25181571  1  0.085499  0  0.111264  0.129307  0  0.990366  0
H  H94  1  0.49256222  0.94850437  0.74444664  1  0.101506  0  0.116153  0.096154  0  1.006716  0
H  H95  1  0.50743730  0.05149703  0.24444310  1  0.101576  0  0.116117  0.096075  0  1.006805  0
H  H96  1  0.64432868  0.97332332  0.57018190  1  0.152127  0  0.122119  0.114282  0  1.008727  0
H  H97  1  0.35566691  0.02668036  0.07018025  1  0.151708  0  0.122114  0.114247  0  1.008758  0
H  H98  1  0.54861227  0.47358649  0.68309661  1  0.454089  0  0.341613  0.305312  0  0.893023  0
H  H99  1  0.45138526  0.52641625  0.18309622  1  0.454151  0  0.34159  0.305274  0  0.893036  0
H  H100  1  0.50446516  0.32816638  0.76688225  1  0.101182  0  0.116026  0.136499  0  0.978495  0
H  H101  1  0.49553106  0.67183433  0.26688506  1  0.101196  0  0.116023  0.136537  0  0.978469  0
H  H102  1  0.52305962  0.19244376  0.75621904  1  0.102001  0  0.119321  0.095618  0  1.011725  0
H  H103  1  0.47694198  0.80755879  0.25622003  1  0.101919  0  0.119362  0.095618  0  1.011747  0
H  H104  1  0.65459253  0.23583022  0.57132865  1  0.125188  0  0.124135  0.107794  0  0.992961  0
H  H105  1  0.34541238  0.76417645  0.07132843  1  0.125178  0  0.124148  0.107842  0  0.993062  0
H  H106  1  0.80118160  0.51916889  0.97553974  1  0.103763  0  0.11339  0.087743  0  0.987636  0
H  H107  1  0.19881500  0.48083055  0.47554096  1  0.103762  0  0.11338  0.087747  0  0.98772  0
H  H108  1  0.92046489  0.66941167  0.14116778  1  0.090075  0  0.110156  0.10743  0  1.009414  0
H  H109  1  0.07953702  0.33058317  0.64116835  1  0.090322  0  0.110182  0.107461  0  1.009457  0
H  H110  1  0.77728242  0.74640880  0.98000593  1  0.095096  0  0.115313  0.085455  0  1.007398  0
H  H111  1  0.22272424  0.25359421  0.48000453  1  0.095441  0  0.115295  0.085428  0  1.00741  0
H  H112  1  0.95362392  0.56416985  0.18369525  1  0.471745  0  0.342562  0.305793  0  0.892403  0
H  H113  1  0.04637367  0.43582538  0.68369720  1  0.47166  0  0.342524  0.305799  0  0.892293  0
H  H114  1  0.00953502  0.43911377  0.26235687  1  0.065516  0  0.113304  0.131312  0  0.981627  0
H  H115  1  0.99046676  0.56088182  0.76236036  1  0.065559  0  0.1133  0.131288  0  0.981723  0
H  H116  1  0.99570021  0.29588700  0.24938596  1  0.109948  0  0.123029  0.105044  0  0.983656  0
H  H117  1  0.00430284  0.70410865  0.74938994  1  0.109864  0  0.123084  0.105104  0  0.983619  0
H  H118  1  0.86952987  0.28415303  0.06242816  1  0.165723  0  0.121557  0.112454  0  1.0071  0
H  H119  1  0.13046779  0.71584376  0.56242982  1  0.165346  0  0.121589  0.112458  0  1.007028  0
H  H120  1  0.80352923  0.85926063  0.03098233  1  0.562368  0  0.30772  0.300247  0  1.00834  0
H  H121  1  0.19647361  0.14073690  0.53098157  1  0.562409  0  0.307741  0.300223  0  1.008444  0
H  H122  1  0.99563240  0.91952274  0.26131018  1  0.080359  0  0.112552  0.133387  0  0.990109  0
H  H123  1  0.00436754  0.08047803  0.76130991  1  0.080408  0  0.112584  0.133483  0  0.990033  0
H  H124  1  0.97931657  0.05631801  0.25390586  1  0.104862  0  0.114203  0.089095  0  1.031321  0
H  H125  1  0.02068195  0.94367930  0.75390669  1  0.104823  0  0.114225  0.089151  0  1.031248  0
H  H126  1  0.83419735  0.01625769  0.07539607  1  0.125057  0  0.12316  0.109775  0  0.998684  0
H  H127  1  0.16580321  0.98373851  0.57539704  1  0.125361  0  0.123186  0.109772  0  0.998756  0
C  C128  1  0.89904406  0.13386145  0.00375020  1  1.557536  0  0.215404  0.576626  0  4.214454  0
C  C129  1  0.10095750  0.86613558  0.50374847  1  1.557573  0  0.215348  0.576442  0  4.214515  0
C  C130  1  0.84799677  0.13011479  0.93885594  1  -0.02822  0  -0.020539  -0.038395  0  3.975308  0
C  C131  1  0.15200783  0.86988429  0.43885739  1  -0.028176  0  -0.020376  -0.038165  0  3.975046  0
C  C132  1  0.77522983  0.15968117  0.93725510  1  -0.047464  0  -0.087533  -0.093862  0  3.976966  0
C  C133  1  0.22477567  0.84031908  0.43725442  1  -0.047877  0  -0.087568  -0.093936  0  3.976679  0
C  C134  1  0.72470149  0.15049196  0.87859771  1  -0.024709  0  -0.08426  -0.089051  0  3.962487  0
C  C135  1  0.27530661  0.84951083  0.37859588  1  -0.024159  0  -0.084296  -0.08887  0  3.962474  0
C  C136  1  0.74696900  0.11263570  0.82038905  1  -0.075872  0  -0.015636  -0.024169  0  3.969868  0
C  C137  1  0.25304129  0.88736788  0.32038820  1  -0.076449  0  -0.015763  -0.0247  0  3.970311  0
C  C138  1  0.82192885  0.08628515  0.82063482  1  -0.030164  0  -0.08613  -0.103658  0  3.991133  0
C  C139  1  0.17808027  0.91371611  0.32063612  1  -0.030109  0  -0.085997  -0.103259  0  3.990896  0
C  C140  1  0.87185151  0.09459045  0.87972083  1  -0.026104  0  -0.086623  -0.095615  0  3.971433  0
C  C141  1  0.12815589  0.90540943  0.37972276  1  -0.02603  0  -0.08668  -0.095737  0  3.97154  0
C  C142  1  0.68943899  0.09969900  0.75932055  1  1.558327  0  0.200208  0.560868  0  4.212857  0
C  C143  1  0.31056712  0.90030185  0.25932008  1  1.558471  0  0.200257  0.560976  0  4.213035  0
C  C144  1  0.39017408  0.09406264  0.67803225  1  1.568901  0  0.217196  0.579163  0  4.212197  0
C  C145  1  0.60982443  0.90593897  0.17803069  1  1.568632  0  0.217264  0.579179  0  4.211996  0
C  C146  1  0.34347193  0.10505577  0.74263205  1  -0.002717  0  -0.020984  -0.041534  0  3.975201  0
C  C147  1  0.65652703  0.89494332  0.24262888  1  -0.002562  0  -0.020926  -0.041476  0  3.974979  0
C  C148  1  0.27481319  0.14031345  0.73900327  1  -0.025926  0  -0.08752  -0.094257  0  3.979795  0
C  C149  1  0.72518257  0.85968504  0.23899850  1  -0.025863  0  -0.087632  -0.09442  0  3.979691  0
C  C150  1  0.22948351  0.14889839  0.79806561  1  -0.025065  0  -0.084651  -0.092203  0  3.973221  0
C  C151  1  0.77051266  0.85109991  0.29806284  1  -0.025095  0  -0.084546  -0.092021  0  3.973029  0
C  C152  1  0.25347470  0.12377059  0.86197030  1  -0.032726  0  -0.015627  -0.024425  0  3.979611  0
C  C153  1  0.74652613  0.87622986  0.36197010  1  -0.032698  0  -0.015646  -0.024603  0  3.97963  0
C  C154  1  0.32383649  0.09069073  0.86626784  1  -0.083881  0  -0.089316  -0.106573  0  3.988426  0
C  C155  1  0.67616398  0.90931086  0.36626718  1  -0.083905  0  -0.089378  -0.106507  0  3.988323  0
C  C156  1  0.36821488  0.08069451  0.80675519  1  -0.062451  0  -0.085349  -0.094538  0  3.970078  0
C  C157  1  0.63178675  0.91930613  0.30675459  1  -0.062558  0  -0.085268  -0.094449  0  3.969882  0
C  C158  1  0.20181299  0.13037838  0.92433923  1  1.556662  0  0.199866  0.563559  0  4.212993  0
C  C159  1  0.79818989  0.86962362  0.42433740  1  1.556559  0  0.19989  0.563686  0  4.212884  0
C  C160  1  0.10926573  0.15709616  0.17768447  1  1.571338  0  0.213229  0.574635  0  4.217841  0
C  C161  1  0.89073394  0.84290257  0.67768492  1  1.571919  0  0.213309  0.574723  0  4.21771  0
C  C162  1  0.15604383  0.14341244  0.24147552  1  -0.089309  0  -0.018589  -0.037985  0  3.977589  0
C  C163  1  0.84395507  0.85658897  0.74147603  1  -0.089217  0  -0.018575  -0.03794  0  3.977511  0
C  C164  1  0.12215950  0.15025090  0.30719645  1  -0.050768  0  -0.087742  -0.10266  0  3.970842  0
C  C165  1  0.87783864  0.84974797  0.80719639  1  -0.050732  0  -0.087709  -0.102607  0  3.970718  0
C  C166  1  0.16687134  0.13787093  0.36577227  1  -0.026939  0  -0.090008  -0.10301  0  3.995421  0
C  C167  1  0.83312742  0.86212602  0.86577330  1  -0.026946  0  -0.090078  -0.103068  0  3.995448  0
C  C168  1  0.24666775  0.12111523  0.35952314  1  -0.072443  0  -0.014501  -0.021883  0  3.969608  0
C  C169  1  0.75333253  0.87888291  0.85952428  1  -0.072274  0  -0.014473  -0.02195  0  3.969669  0
C  C170  1  0.27974303  0.11320220  0.29385696  1  -0.014101  0  -0.082627  -0.085055  0  3.955953  0
C  C171  1  0.72025742  0.88679847  0.79385814  1  -0.013909  0  -0.082666  -0.085081  0  3.956103  0
C  C172  1  0.23416445  0.12333236  0.23530747  1  0.003415  0  -0.088305  -0.092506  0  3.965213  0
C  C173  1  0.76583551  0.87667081  0.73530808  1  0.003299  0  -0.088313  -0.092584  0  3.965281  0
C  C174  1  0.29860878  0.11486283  0.42192503  1  1.549954  0  0.201477  0.563506  0  4.2043  0
C  C175  1  0.70139040  0.88513393  0.92192678  1  1.549861  0  0.201499  0.563613  0  4.204212  0
C  C176  1  0.59907096  0.11868814  0.50393012  1  1.562932  0  0.212327  0.570859  0  4.231914  0
C  C177  1  0.40093013  0.88131466  0.00392591  1  1.562311  0  0.21229  0.570796  0  4.231932  0
C  C178  1  0.65157856  0.12192527  0.43990557  1  -0.124542  0  -0.018294  -0.037023  0  3.976754  0
C  C179  1  0.34842440  0.87807725  0.93990128  1  -0.124635  0  -0.018351  -0.037059  0  3.976824  0
C  C180  1  0.61853428  0.13717767  0.37574940  1  -0.000387  0  -0.088485  -0.104763  0  3.974092  0
C  C181  1  0.38146691  0.86282447  0.87574560  1  -0.000273  0  -0.08841  -0.104559  0  3.974229  0
C  C182  1  0.66893183  0.14436941  0.31697416  1  -0.074492  0  -0.089882  -0.104578  0  3.995553  0
C  C183  1  0.33106881  0.85563234  0.81697254  1  -0.074512  0  -0.089903  -0.104659  0  3.995541  0
C  C184  1  0.75326586  0.13863974  0.32184177  1  -0.019207  0  -0.014649  -0.022242  0  3.965712  0
C  C185  1  0.24673429  0.86136256  0.82184029  1  -0.019334  0  -0.014724  -0.022374  0  3.965826  0
C  C186  1  0.78548716  0.12183828  0.38565091  1  -0.007022  0  -0.082646  -0.082328  0  3.951473  0
C  C187  1  0.21451263  0.87816323  0.88564790  1  -0.007078  0  -0.08267  -0.082178  0  3.951433  0
C  C188  1  0.73459862  0.11249516  0.44414213  1  -0.002611  0  -0.087891  -0.091743  0  3.962378  0
C  C189  1  0.26540248  0.88750733  0.94413849  1  -0.002304  0  -0.087933  -0.091896  0  3.962312  0
C  C190  1  0.80959219  0.15109099  0.25995927  1  1.54621  0  0.198811  0.563182  0  4.206642  0
C  C191  1  0.19040562  0.84890861  0.75995845  1  1.546318  0  0.198907  0.563268  0  4.206725  0
C  C192  1  0.18067202  0.71359022  0.19123333  1  0.509997  0  0.048075  0.061551  0  3.929539  0
C  C193  1  0.81932712  0.28640904  0.69123364  1  0.509995  0  0.04811  0.061657  0  3.929366  0
C  C194  1  0.14314803  0.71116538  0.12552744  1  -0.05339  0  -0.000424  -0.022129  0  4.012083  0
C  C195  1  0.85685182  0.28883353  0.62552716  1  -0.053388  0  -0.000406  -0.022198  0  4.011983  0
C  C196  1  0.12752521  0.64097879  0.08925852  1  0.0825  0  -0.067254  -0.113052  0  3.917859  0
C  C197  1  0.87247263  0.35901907  0.58925753  1  0.082661  0  -0.067362  -0.113141  0  3.917962  0
C  C198  1  0.15042546  0.57696880  0.11883389  1  -0.043624  0  -0.009106  -0.038355  0  4.051625  0
C  C199  1  0.84957181  0.42302953  0.61883176  1  -0.043786  0  -0.009092  -0.038399  0  4.051681  0
C  C200  1  0.18887096  0.58639333  0.18454854  1  0.535419  0  0.04822  0.063841  0  3.945632  0
C  C201  1  0.81112869  0.41360539  0.68454754  1  0.535491  0  0.04824  0.063916  0  3.9456  0
C  C202  1  0.11967657  0.77821951  0.09453918  1  1.001253  0  0.225609  0.311535  0  4.036189  0
C  C203  1  0.88032448  0.22177894  0.59454056  1  1.00148  0  0.225635  0.311525  0  4.03594  0
C  C204  1  0.11232274  0.89890013  0.07788070  1  0.336249  0  0.098  0.103581  0  4.038554  0
C  C205  1  0.88767803  0.10109953  0.57788337  1  0.336246  0  0.097959  0.103552  0  4.038582  0
C  C206  1  0.06488700  0.84924209  0.02701960  1  0.420973  0  0.09864  0.17733  0  4.082031  0
C  C207  1  0.93511380  0.15075717  0.52702103  1  0.421026  0  0.098708  0.177435  0  4.081868  0
C  C208  1  0.02383963  0.88270589  0.97579671  1  -0.018603  0  -0.087422  -0.199833  0  3.961187  0
C  C209  1  0.97615929  0.11729300  0.47579627  1  -0.018581  0  -0.087406  -0.199874  0  3.961108  0
C  C210  1  0.03246182  0.96235687  0.97874067  1  0.517814  0  0.029436  0.06721  0  3.962456  0
C  C211  1  0.96753757  0.03764144  0.47874197  1  0.517862  0  0.029431  0.06717  0  3.962389  0
C  C212  1  0.11879540  0.97836790  0.07691647  1  0.561871  0  0.045549  0.011307  0  3.926726  0
C  C213  1  0.88120598  0.02163177  0.57691882  1  0.561937  0  0.045582  0.011232  0  3.926755  0
C  C214  1  0.13564922  0.50150232  0.08541401  1  0.977728  0  0.226754  0.309284  0  4.04322  0
C  C215  1  0.86434693  0.49849610  0.58541168  1  0.977954  0  0.226815  0.309421  0  4.043184  0
C  C216  1  0.12900785  0.38102794  0.06516159  1  0.450361  0  0.09143  0.101095  0  4.075377  0
C  C217  1  0.87098809  0.61896940  0.56515949  1  0.450568  0  0.091318  0.100981  0  4.075322  0
C  C218  1  0.08822825  0.40796247  0.00851453  1  0.337371  0  0.110123  0.180822  0  4.050811  0
C  C219  1  0.91177159  0.59203510  0.50851138  1  0.337261  0  0.110257  0.181143  0  4.05074  0
C  C220  1  0.05329514  0.35797051  0.95511301  1  0.033604  0  -0.090626  -0.220096  0  3.9929  0
C  C221  1  0.94670509  0.64202846  0.45511090  1  0.033599  0  -0.090629  -0.220185  0  3.992896  0
C  C222  1  0.06083026  0.28178873  0.96187237  1  0.484059  0  0.038553  0.087711  0  3.956316  0
C  C223  1  0.93917146  0.71821139  0.46187114  1  0.484219  0  0.038497  0.08757  0  3.956347  0
C  C224  1  0.13296901  0.30339770  0.06701868  1  0.56218  0  0.056939  0.048459  0  3.897163  0
C  C225  1  0.86703028  0.69660083  0.56701590  1  0.562412  0  0.056923  0.048286  0  3.897215  0
C  C226  1  0.29737592  0.52970520  0.67824098  1  0.571496  0  0.049796  0.069668  0  3.941247  0
C  C227  1  0.70261785  0.47029462  0.17824283  1  0.571556  0  0.049788  0.069639  0  3.941386  0
C  C228  1  0.34830586  0.53919902  0.61840348  1  0.01259  0  -0.009936  -0.044705  0  4.041616  0
C  C229  1  0.65168997  0.46080103  0.11840441  1  0.012528  0  -0.009913  -0.044648  0  4.041755  0
C  C230  1  0.36966287  0.61264857  0.58843972  1  0.027938  0  -0.062036  -0.09416  0  3.902821  0
C  C231  1  0.63033540  0.38735103  0.08844138  1  0.027981  0  -0.062039  -0.094227  0  3.902894  0
C  C232  1  0.33960131  0.67315008  0.61803255  1  0.00132  0  0.003886  -0.01193  0  4.001464  0
C  C233  1  0.66039719  0.32684827  0.11803429  1  0.001346  0  0.003856  -0.011927  0  4.001454  0
C  C234  1  0.28948232  0.65718520  0.67770171  1  0.476967  0  0.051008  0.064048  0  3.925662  0
C  C235  1  0.71051495  0.34281640  0.17770538  1  0.4769  0  0.050959  0.063972  0  3.925719  0
C  C236  1  0.37395196  0.47214129  0.58965448  1  0.971928  0  0.223276  0.302932  0  4.059154  0
C  C237  1  0.62604678  0.52785773  0.08965169  1  0.971944  0  0.223266  0.302881  0  4.059372  0
C  C238  1  0.38928072  0.35614309  0.57302826  1  0.430655  0  0.083761  0.094497  0  4.09682  0
C  C239  1  0.61071979  0.64385543  0.07302524  1  0.430439  0  0.083795  0.094571  0  4.09663  0
C  C240  1  0.42464430  0.39924048  0.51406863  1  0.334632  0  0.105597  0.177739  0  4.053342  0
C  C241  1  0.57535702  0.60075825  0.01406577  1  0.334866  0  0.105649  0.177837  0  4.053079  0
C  C242  1  0.45829158  0.36373453  0.46013635  1  0.060286  0  -0.090428  -0.218337  0  3.986499  0
C  C243  1  0.54170953  0.63626559  0.96013431  1  0.060239  0  -0.09053  -0.21861  0  3.986729  0
C  C244  1  0.45313671  0.28479703  0.46791048  1  0.432644  0  0.04122  0.094169  0  3.938073  0
C  C245  1  0.54686163  0.71520188  0.96790928  1  0.4326  0  0.041271  0.094379  0  3.938  0
C  C246  1  0.38694229  0.27712424  0.57567031  1  0.508626  0  0.051453  0.028781  0  3.902566  0
C  C247  1  0.61305759  0.72287426  0.07566865  1  0.50871  0  0.051461  0.028734  0  3.902446  0
C  C248  1  0.36168245  0.74961973  0.58627788  1  1.029934  0  0.227222  0.311369  0  4.032983  0
C  C249  1  0.63831705  0.25037988  0.08627984  1  1.030377  0  0.22726  0.311407  0  4.032991  0
C  C250  1  0.36853020  0.87329735  0.56845901  1  0.395852  0  0.099509  0.104318  0  4.031924  0
C  C251  1  0.63146930  0.12670464  0.06845920  1  0.395785  0  0.099472  0.104249  0  4.032049  0
C  C252  1  0.41772620  0.84394092  0.51890173  1  0.448823  0  0.101098  0.174085  0  4.089254  0
C  C253  1  0.58227450  0.15606298  0.01890246  1  0.448762  0  0.101102  0.174233  0  4.08914  0
C  C254  1  0.45931625  0.89465499  0.46780907  1  0.025215  0  -0.084913  -0.196541  0  3.958996  0
C  C255  1  0.54068360  0.10535029  0.96780929  1  0.025921  0  -0.084965  -0.196681  0  3.959093  0
C  C256  1  0.44908215  0.97015333  0.46987825  1  0.417483  0  0.031343  0.073774  0  3.95994  0
C  C257  1  0.55091756  0.02985137  0.96987655  1  0.41718  0  0.031356  0.073682  0  3.960208  0
C  C258  1  0.36173996  0.94984981  0.56741372  1  0.558553  0  0.052991  0.033485  0  3.917483  0
C  C259  1  0.63825954  0.05015218  0.06741097  1  0.558681  0  0.053014  0.033493  0  3.917691  0
C  C260  1  0.67020663  0.67077832  0.49293505  1  0.558364  0  0.050046  0.061742  0  3.930267  0
C  C261  1  0.32979115  0.32922628  0.99293567  1  0.558267  0  0.050049  0.061874  0  3.930341  0
C  C262  1  0.63129918  0.66667710  0.55820310  1  -0.016269  0  -0.002407  -0.022434  0  4.012691  0
C  C263  1  0.36869933  0.33332838  0.05820279  1  -0.015868  0  -0.00237  -0.022569  0  4.012919  0
C  C264  1  0.61329853  0.59513114  0.59227747  1  -0.048769  0  -0.066012  -0.110412  0  3.911145  0
C  C265  1  0.38670096  0.40487365  0.09227748  1  -0.048761  0  -0.066065  -0.110352  0  3.91135  0
C  C266  1  0.63488903  0.53139186  0.56096966  1  -0.052836  0  -0.009205  -0.037702  0  4.048716  0
C  C267  1  0.36511057  0.46861305  0.06096957  1  -0.052912  0  -0.009125  -0.037751  0  4.048667  0
C  C268  1  0.67357110  0.54220014  0.49539692  1  0.557028  0  0.050528  0.066813  0  3.942579  0
C  C269  1  0.32642942  0.45780564  0.99539622  1  0.557013  0  0.050511  0.066839  0  3.942533  0
C  C270  1  0.60923658  0.73359801  0.59069607  1  1.027617  0  0.227675  0.315587  0  4.032708  0
C  C271  1  0.39076154  0.26640620  0.09069587  1  1.027119  0  0.227654  0.315655  0  4.032806  0
C  C272  1  0.60233014  0.85426745  0.60783868  1  0.406727  0  0.097178  0.103743  0  4.043461  0
C  C273  1  0.39766793  0.14573670  0.10783823  1  0.407411  0  0.097181  0.103733  0  4.043328  0
C  C274  1  0.55578968  0.80479098  0.65920555  1  0.42148  0  0.09911  0.180002  0  4.077395  0
C  C275  1  0.44420978  0.19521187  0.15920542  1  0.420794  0  0.099128  0.180128  0  4.077276  0
C  C276  1  0.51492315  0.83861191  0.71038590  1  0.012532  0  -0.086091  -0.199175  0  3.954477  0
C  C277  1  0.48507511  0.16138901  0.21038474  1  0.012487  0  -0.086029  -0.199158  0  3.954431  0
C  C278  1  0.52288622  0.91821384  0.70675080  1  0.43177  0  0.029937  0.063471  0  3.96082  0
C  C279  1  0.47711082  0.08178708  0.20674776  1  0.431852  0  0.029996  0.063645  0  3.960786  0
C  C280  1  0.60855043  0.93363588  0.60812364  1  0.515419  0  0.046542  0.010981  0  3.926529  0
C  C281  1  0.39144688  0.06636769  0.10812235  1  0.515609  0  0.046577  0.011055  0  3.926399  0
C  C282  1  0.61973046  0.45533450  0.59331458  1  0.996361  0  0.225794  0.307664  0  4.046383  0
C  C283  1  0.38026779  0.54467028  0.09331376  1  0.99608  0  0.225819  0.307717  0  4.045984  0
C  C284  1  0.61588567  0.33544752  0.61405426  1  0.406158  0  0.09122  0.100794  0  4.070059  0
C  C285  1  0.38411683  0.66455724  0.11405471  1  0.406297  0  0.09111  0.100688  0  4.070317  0
C  C286  1  0.57274216  0.36131917  0.66981672  1  0.342285  0  0.109966  0.182635  0  4.054319  0
C  C287  1  0.42725802  0.63868422  0.16981818  1  0.342674  0  0.110014  0.182612  0  4.054362  0
C  C288  1  0.53795664  0.31105362  0.72303904  1  0.012478  0  -0.091697  -0.223017  0  3.990927  0
C  C289  1  0.46204336  0.68894959  0.22304084  1  0.012394  0  -0.091648  -0.223041  0  3.990676  0
C  C290  1  0.54775479  0.23554747  0.71686906  1  0.495185  0  0.039685  0.090903  0  3.954873  0
C  C291  1  0.45224770  0.76445579  0.21687018  1  0.495063  0  0.039701  0.091017  0  3.954719  0
C  C292  1  0.62222143  0.25839593  0.61288312  1  0.5761  0  0.056374  0.051694  0  3.892345  0
C  C293  1  0.37778381  0.74161002  0.11288341  1  0.57621  0  0.056438  0.051693  0  3.89238  0
C  C294  1  0.81611360  0.57547427  0.00120852  1  0.543548  0  0.047952  0.065731  0  3.943558  0
C  C295  1  0.18388605  0.42452506  0.50120919  1  0.543922  0  0.047954  0.065709  0  3.943737  0
C  C296  1  0.86464729  0.58424224  0.06234416  1  0.032389  0  -0.009434  -0.043396  0  4.041358  0
C  C297  1  0.13535449  0.41575633  0.56234546  1  0.031999  0  -0.009433  -0.043413  0  4.041433  0
C  C298  1  0.88281970  0.65678957  0.09417505  1  -0.03787  0  -0.060461  -0.091054  0  3.899547  0
C  C299  1  0.11718320  0.34320891  0.59417604  1  -0.037974  0  -0.060576  -0.091218  0  3.899591  0
C  C300  1  0.85174585  0.71700817  0.06513573  1  0.01276  0  0.003571  -0.012452  0  3.999206  0
C  C301  1  0.14826023  0.28299044  0.56513525  1  0.012589  0  0.003636  -0.012357  0  3.998905  0
C  C302  1  0.80358113  0.70153187  0.00436727  1  0.526876  0  0.051908  0.06503  0  3.922788  0
C  C303  1  0.19642448  0.29846925  0.50436666  1  0.526387  0  0.05191  0.065034  0  3.922852  0
C  C304  1  0.89062087  0.51698995  0.09035274  1  0.937942  0  0.222813  0.302161  0  4.059185  0
C  C305  1  0.10937965  0.48300620  0.59035445  1  0.938062  0  0.222922  0.302372  0  4.059001  0
C  C306  1  0.90397167  0.40035919  0.10686041  1  0.425739  0  0.085056  0.094117  0  4.100312  0
C  C307  1  0.09602571  0.59963687  0.60686240  1  0.426101  0  0.085077  0.094044  0  4.100353  0
C  C308  1  0.94278130  0.44370915  0.16460838  1  0.331009  0  0.106524  0.180101  0  4.052553  0
C  C309  1  0.05721491  0.55628786  0.66460951  1  0.331062  0  0.106456  0.180179  0  4.052411  0
C  C310  1  0.97793734  0.40813344  0.21762974  1  0.058578  0  -0.090218  -0.217941  0  3.988872  0
C  C311  1  0.02205993  0.59186341  0.71763188  1  0.058288  0  -0.090208  -0.21794  0  3.988862  0
C  C312  1  0.97051422  0.32880572  0.21046620  1  0.495434  0  0.040689  0.092143  0  3.937772  0
C  C313  1  0.02948602  0.67119060  0.71047021  1  0.49546  0  0.040704  0.09211  0  3.937626  0
C  C314  1  0.89964574  0.32098274  0.10459554  1  0.519737  0  0.052492  0.02994  0  3.898118  0
C  C315  1  0.10035301  0.67901392  0.60459837  1  0.518792  0  0.052453  0.029974  0  3.89787  0
C  C316  1  0.87084531  0.79295806  0.09801028  1  1.007999  0  0.225787  0.308455  0  4.036118  0
C  C317  1  0.12915977  0.20703927  0.59801001  1  1.008243  0  0.225827  0.308424  0  4.035987  0
C  C318  1  0.87624733  0.91654993  0.11497730  1  0.389361  0  0.099662  0.103501  0  4.031877  0
C  C319  1  0.12375282  0.08344498  0.61497525  1  0.389633  0  0.099622  0.103299  0  4.031772  0
C  C320  1  0.92287199  0.88734680  0.16659813  1  0.453393  0  0.101476  0.174868  0  4.090892  0
C  C321  1  0.07712840  0.11264967  0.66659559  1  0.453329  0  0.101602  0.175113  0  4.090669  0
C  C322  1  0.96134794  0.93824847  0.21872548  1  0.048946  0  -0.085454  -0.194875  0  3.95109  0
C  C323  1  0.03865145  0.06174955  0.71872313  1  0.04875  0  -0.085513  -0.1951  0  3.951169  0
C  C324  1  0.95217724  0.01398120  0.21470320  1  0.400458  0  0.029192  0.068447  0  3.964728  0
C  C325  1  0.04782141  0.98601625  0.71470181  1  0.400678  0  0.029219  0.068456  0  3.964651  0
C  C326  1  0.86985495  0.99324729  0.11441898  1  0.552731  0  0.052981  0.034553  0  3.911005  0
C  C327  1  0.13014486  0.00674878  0.61441813  1  0.552299  0  0.052997  0.034676  0  3.91088  0
N  N328  1  0.20325422  0.65265730  0.22013167  1  -1.201065  0  -0.333195  -0.273961  0  3.336325  0
N  N329  1  0.79674531  0.34734130  0.72013292  1  -1.201095  0  -0.333178  -0.273978  0  3.336317  0
N  N330  1  0.07839714  0.00878711  0.02759531  1  -1.242648  0  -0.326639  -0.224289  0  3.550197  0
N  N331  1  0.92160427  0.99121215  0.52759639  1  -1.242724  0  -0.326701  -0.224311  0  3.550257  0
N  N332  1  0.14595107  0.85175872  0.12036421  1  -1.262037  0  -0.370007  -0.305641  0  3.552626  0
N  N333  1  0.85405051  0.14823965  0.62036684  1  -1.26213  0  -0.369966  -0.305548  0  3.552382  0
N  N334  1  0.07056585  0.77411221  0.03847623  1  -1.126595  0  -0.345641  -0.427229  0  3.164185  0
N  N335  1  0.92943382  0.22588757  0.53847802  1  -1.12677  0  -0.345714  -0.427287  0  3.163981  0
N  N336  1  0.09868245  0.25512780  0.01622779  1  -1.23982  0  -0.321814  -0.241074  0  3.545483  0
N  N337  1  0.90131901  0.74487150  0.51622535  1  -1.24013  0  -0.321783  -0.240875  0  3.545463  0
N  N338  1  0.15784818  0.44016814  0.11175354  1  -1.142663  0  -0.332922  -0.398911  0  3.192824  0
N  N339  1  0.84214699  0.55982903  0.61175060  1  -1.142905  0  -0.3329  -0.398914  0  3.192832  0
N  N340  1  0.09378703  0.48490485  0.02258299  1  -1.250694  0  -0.375291  -0.319498  0  3.551953  0
N  N341  1  0.90620981  0.51509322  0.52258003  1  -1.250767  0  -0.375358  -0.319699  0  3.552121  0
N  N342  1  0.26878745  0.58699135  0.70736181  1  -1.183596  0  -0.333231  -0.272532  0  3.336246  0
N  N343  1  0.73120726  0.41301012  0.20736580  1  -1.183633  0  -0.333154  -0.272416  0  3.336298  0
N  N344  1  0.41798602  0.24268484  0.52339673  1  -1.225818  0  -0.321396  -0.227599  0  3.527026  0
N  N345  1  0.58201219  0.75731381  0.02339608  1  -1.225814  0  -0.321458  -0.227698  0  3.526972  0
N  N346  1  0.35897549  0.40280313  0.61909871  1  -1.15957  0  -0.340348  -0.409646  0  3.192273  0
N  N347  1  0.64102410  0.59719465  0.11909625  1  -1.159713  0  -0.340352  -0.409617  0  3.192521  0
N  N348  1  0.41467127  0.47295472  0.52634517  1  -1.231264  0  -0.376747  -0.325745  0  3.570876  0
N  N349  1  0.58532987  0.52704339  0.02634246  1  -1.231134  0  -0.376804  -0.32584  0  3.570843  0
N  N350  1  0.40292237  0.99736478  0.51857623  1  -1.233669  0  -0.327599  -0.23814  0  3.567989  0
N  N351  1  0.59707743  0.00263795  0.01857366  1  -1.233893  0  -0.327586  -0.238082  0  3.568173  0
N  N352  1  0.33372395  0.81197485  0.61044892  1  -1.306276  0  -0.372276  -0.315277  0  3.584256  0
N  N353  1  0.66627561  0.18802527  0.11044993  1  -1.306289  0  -0.372277  -0.315374  0  3.584374  0
N  N354  1  0.41225473  0.76654132  0.53099717  1  -1.17751  0  -0.348487  -0.425664  0  3.156228  0
N  N355  1  0.58774455  0.23346195  0.03099926  1  -1.178038  0  -0.348511  -0.425694  0  3.156183  0
N  N356  1  0.69065755  0.60994791  0.46201248  1  -1.194383  0  -0.334736  -0.277033  0  3.33544  0
N  N357  1  0.30934417  0.39005742  0.96201248  1  -1.194136  0  -0.33482  -0.277186  0  3.335559  0
N  N358  1  0.56823307  0.96428127  0.65733441  1  -1.22981  0  -0.327926  -0.223124  0  3.55988  0
N  N359  1  0.43176516  0.03572157  0.15733260  1  -1.229704  0  -0.328  -0.22327  0  3.559852  0
N  N360  1  0.63516650  0.80716171  0.56493537  1  -1.306249  0  -0.368764  -0.305781  0  3.559081  0
N  N361  1  0.36483137  0.19284374  0.06493591  1  -1.306224  0  -0.368758  -0.305806  0  3.559229  0
N  N362  1  0.56124850  0.72958642  0.64747539  1  -1.167074  0  -0.347894  -0.429365  0  3.155321  0
N  N363  1  0.43875025  0.27041587  0.14747509  1  -1.166967  0  -0.347963  -0.429499  0  3.155325  0
N  N364  1  0.58757469  0.20958966  0.66324556  1  -1.222718  0  -0.321882  -0.243167  0  3.537586  0
N  N365  1  0.41243209  0.79041556  0.16324567  1  -1.22281  0  -0.322011  -0.24327  0  3.53748  0
N  N366  1  0.64436945  0.39490796  0.56761291  1  -1.144057  0  -0.3316  -0.397632  0  3.188177  0
N  N367  1  0.35563177  0.60509867  0.06761251  1  -1.144193  0  -0.331585  -0.397601  0  3.187961  0
N  N368  1  0.57660301  0.43787261  0.65550639  1  -1.221471  0  -0.376735  -0.322196  0  3.557041  0
N  N369  1  0.42339538  0.56213081  0.15550752  1  -1.221408  0  -0.376755  -0.322136  0  3.556905  0
N  N370  1  0.78626963  0.63236793  0.97277580  1  -1.186822  0  -0.331449  -0.268982  0  3.331617  0
N  N371  1  0.21373185  0.36763389  0.47277674  1  -1.186792  0  -0.331424  -0.268929  0  3.331773  0
N  N372  1  0.93210295  0.28656668  0.15614823  1  -1.247912  0  -0.322951  -0.228576  0  3.543152  0
N  N373  1  0.06789597  0.71342865  0.65615155  1  -1.246064  0  -0.322979  -0.2286  0  3.543044  0
N  N374  1  0.87284925  0.44723314  0.06158880  1  -1.130184  0  -0.340041  -0.409723  0  3.193791  0
N  N375  1  0.12715012  0.55276309  0.56159239  1  -1.130555  0  -0.340095  -0.409734  0  3.193741  0
N  N376  1  0.93391082  0.51777506  0.15242000  1  -1.237898  0  -0.37764  -0.325155  0  3.572959  0
N  N377  1  0.06608797  0.48221971  0.65242024  1  -1.237984  0  -0.37767  -0.325356  0  3.572778  0
N  N378  1  0.90923507  0.04133670  0.16362149  1  -1.241665  0  -0.327043  -0.235455  0  3.554537  0
N  N379  1  0.09076362  0.95866034  0.66362009  1  -1.24179  0  -0.327102  -0.235481  0  3.554489  0
N  N380  1  0.84374743  0.85513118  0.07241180  1  -1.283907  0  -0.371926  -0.315857  0  3.590498  0
N  N381  1  0.15625575  0.14486563  0.57241162  1  -1.284106  0  -0.371937  -0.31577  0  3.590477  0
N  N382  1  0.91841976  0.81000037  0.15500586  1  -1.1519  0  -0.347322  -0.42397  0  3.150874  0
N  N383  1  0.08158156  0.18999730  0.65500520  1  -1.151835  0  -0.347422  -0.424062  0  3.15066  0
O  O384  1  0.96499566  0.10748868  0.00088616  1  -1.198393  0  -0.319676  -0.572332  0  2.464396  0
O  O385  1  0.03500639  0.89250779  0.50088346  1  -1.198384  0  -0.319687  -0.57225  0  2.464478  0
O  O386  1  0.87097362  0.16059645  0.05790042  1  -1.17577  0  -0.312712  -0.549301  0  2.370574  0
O  O387  1  0.12902488  0.83939863  0.55789973  1  -1.175847  0  -0.312667  -0.549222  0  2.370418  0
O  O388  1  0.61098338  0.09443150  0.76855146  1  -1.170111  0  -0.316614  -0.537307  0  2.217929  0
O  O389  1  0.38902427  0.90557338  0.26855135  1  -1.170438  0  -0.316673  -0.537372  0  2.21796  0
O  O390  1  0.71987726  0.09458544  0.69884067  1  -1.191957  0  -0.322809  -0.572979  0  2.259277  0
O  O391  1  0.28012864  0.90541387  0.19883973  1  -1.191848  0  -0.322824  -0.572926  0  2.259295  0
O  O392  1  0.36243589  0.11638167  0.62168728  1  -1.181223  0  -0.313229  -0.549324  0  2.396839  0
O  O393  1  0.63755945  0.88361894  0.12168572  1  -1.181135  0  -0.313303  -0.549382  0  2.396689  0
O  O394  1  0.45249768  0.06276608  0.68347415  1  -1.199036  0  -0.320528  -0.569529  0  2.433818  0
O  O395  1  0.54750259  0.93723785  0.18347315  1  -1.198975  0  -0.320566  -0.569507  0  2.433715  0
O  O396  1  0.23476709  0.13278963  0.98445705  1  -1.199761  0  -0.32469  -0.576828  0  2.256244  0
O  O397  1  0.76523468  0.86721099  0.48445477  1  -1.19968  0  -0.324629  -0.576801  0  2.256131  0
O  O398  1  0.12454249  0.13218984  0.91601736  1  -1.163792  0  -0.318667  -0.540908  0  2.234796  0
O  O399  1  0.87545905  0.86781159  0.41601590  1  -1.163797  0  -0.318719  -0.540999  0  2.234794  0
O  O400  1  0.13959677  0.14029084  0.12037949  1  -1.177137  0  -0.312311  -0.547513  0  2.404723  0
O  O401  1  0.86040282  0.85970693  0.62037945  1  -1.177671  0  -0.312381  -0.547592  0  2.404715  0
O  O402  1  0.04515930  0.18563680  0.18469580  1  -1.202291  0  -0.318633  -0.567605  0  2.423098  0
O  O403  1  0.95483870  0.81436016  0.68469619  1  -1.202301  0  -0.318652  -0.56762  0  2.423064  0
O  O404  1  0.26563446  0.11193057  0.48220301  1  -1.198397  0  -0.327335  -0.575792  0  2.247843  0
O  O405  1  0.73436499  0.88806541  0.98220468  1  -1.198341  0  -0.327336  -0.575846  0  2.247863  0
O  O406  1  0.37629462  0.11492864  0.41380442  1  -1.16504  0  -0.317263  -0.538776  0  2.230638  0
O  O407  1  0.62370438  0.88506988  0.91380630  1  -1.164976  0  -0.317264  -0.538798  0  2.230599  0
O  O408  1  0.53350303  0.14555695  0.49950606  1  -1.197066  0  -0.320291  -0.570528  0  2.455472  0
O  O409  1  0.46649761  0.85444419  0.99950212  1  -1.196328  0  -0.320298  -0.57048  0  2.455359  0
O  O410  1  0.62603712  0.09225881  0.55865407  1  -1.182147  0  -0.310896  -0.547246  0  2.380332  0
O  O411  1  0.37396501  0.90774382  0.05864934  1  -1.182052  0  -0.310806  -0.547183  0  2.38041  0
O  O412  1  0.88848007  0.15771533  0.26835911  1  -1.173459  0  -0.317415  -0.541907  0  2.231352  0
O  O413  1  0.11151717  0.84228192  0.76835948  1  -1.173551  0  -0.317465  -0.541964  0  2.231409  0
O  O414  1  0.77810670  0.15463234  0.19964263  1  -1.20188  0  -0.328863  -0.579832  0  2.246631  0
O  O415  1  0.22189022  0.84536802  0.69964020  1  -1.201877  0  -0.328815  -0.579762  0  2.246618  0
