# generated using pymatgen
data_Co3H12C15N2O11
_symmetry_space_group_name_H-M   'P 1'
_cell_length_a   15.07305331
_cell_length_b   16.57336471
_cell_length_c   23.97691405
_cell_angle_alpha   89.99860482
_cell_angle_beta   89.99951644
_cell_angle_gamma   89.99930920
_symmetry_Int_Tables_number   1
_chemical_formula_structural   Co3H12C15N2O11
_chemical_formula_sum   'Co24 H96 C120 N16 O88'
_cell_volume   5989.70190491
_cell_formula_units_Z   8
loop_
 _symmetry_equiv_pos_site_id
 _symmetry_equiv_pos_as_xyz
  1  'x, y, z'
loop_
 _atom_site_type_symbol
 _atom_site_label
 _atom_site_symmetry_multiplicity
 _atom_site_fract_x
 _atom_site_fract_y
 _atom_site_fract_z
 _atom_site_occupancy
 _atom_site_pbe_bader_charge
 _atom_site_pbe_bader_spin_density
 _atom_site_pbe_cm5_charge
 _atom_site_pbe_ddec_charge
 _atom_site_pbe_ddec_spin_density
 _atom_site_pbe_ddec_sum_bond_order
 _atom_site_pbe_magmom
Co  Co0  1  0.29406474  0.46158659  0.89185948  1  1.295522  2.597798  0.656862  0.889646  2.790522  2.527828  2.583
Co  Co1  1  0.20592951  0.53839501  0.39187396  1  1.296051  2.59778  0.656922  0.889683  2.790661  2.527947  2.583
Co  Co2  1  0.79406574  0.03840960  0.10813660  1  1.295905  2.597788  0.656868  0.889767  2.79056  2.52747  2.583
Co  Co3  1  0.70594803  0.96161694  0.60812293  1  1.296082  2.597701  0.657004  0.889711  2.790634  2.528255  2.583
Co  Co4  1  0.16215241  0.67122434  0.30620639  1  1.332877  2.652794  0.644598  1.039532  2.842405  2.379278  2.637
Co  Co5  1  0.33784100  0.32877053  0.80619266  1  1.332921  2.652805  0.644853  1.039719  2.842521  2.380185  2.637
Co  Co6  1  0.66215893  0.82877361  0.69379365  1  1.332946  2.65285  0.644666  1.039606  2.842529  2.379761  2.638
Co  Co7  1  0.83784108  0.17122940  0.19380110  1  1.332961  2.65273  0.64459  1.039417  2.842358  2.379512  2.637
Co  Co8  1  0.98628149  0.54308026  0.31897132  1  1.373964  2.686579  0.663305  1.085002  2.87767  2.316078  2.671
Co  Co9  1  0.51372082  0.45687851  0.81897383  1  1.373698  2.686585  0.663353  1.085073  2.877486  2.31618  2.671
Co  Co10  1  0.48629400  0.95692319  0.68101950  1  1.374257  2.686573  0.663333  1.085125  2.87758  2.315986  2.671
Co  Co11  1  0.01373626  0.04310506  0.18101747  1  1.373938  2.686581  0.663235  1.084713  2.877525  2.315778  2.671
Co  Co12  1  0.70022330  0.49686208  0.17078116  1  1.265885  2.575926  0.638335  0.865008  2.764486  2.513224  2.562
Co  Co13  1  0.79974783  0.50310915  0.67078097  1  1.264925  2.575806  0.638127  0.864671  2.764227  2.512482  2.561
Co  Co14  1  0.20020865  0.00312367  0.82921750  1  1.265823  2.575649  0.638223  0.864782  2.764154  2.513321  2.561
Co  Co15  1  0.29978047  0.99688669  0.32921834  1  1.265621  2.575915  0.638385  0.865084  2.764465  2.513359  2.562
Co  Co16  1  0.90025225  0.51557276  0.18093399  1  1.3207  2.633786  0.635325  1.014791  2.825011  2.426923  2.621
Co  Co17  1  0.59973997  0.48441019  0.68096437  1  1.320775  2.633689  0.635243  1.014681  2.824886  2.426646  2.621
Co  Co18  1  0.40022274  0.98442017  0.81905019  1  1.32047  2.633729  0.635296  1.014767  2.825028  2.426567  2.621
Co  Co19  1  0.09976320  0.01559477  0.31905943  1  1.320538  2.63367  0.635232  1.014655  2.824922  2.426857  2.621
Co  Co20  1  0.87565340  0.34864241  0.14570699  1  1.344431  2.671483  0.657454  1.053558  2.870851  2.429421  2.656
Co  Co21  1  0.62431807  0.65138340  0.64569147  1  1.344406  2.671759  0.657713  1.053968  2.871141  2.429911  2.657
Co  Co22  1  0.37565437  0.15135831  0.85430075  1  1.344606  2.67173  0.657675  1.053938  2.871159  2.429932  2.657
Co  Co23  1  0.12434968  0.84866384  0.35429167  1  1.344236  2.671539  0.65755  1.053706  2.870884  2.429009  2.656
H  H24  1  0.42889058  0.59600101  0.88662338  1  0.160204  0.001582  0.119409  0.096665  0.000364  1.053092  0.001
H  H25  1  0.07109843  0.40400672  0.38661706  1  0.159593  0.001582  0.119461  0.096768  0.000363  1.052932  0.001
H  H26  1  0.92891188  0.90398798  0.11338818  1  0.160545  0.001582  0.119499  0.096833  0.000364  1.052905  0.001
H  H27  1  0.57110514  0.09599553  0.61336477  1  0.159341  0.001583  0.119418  0.096788  0.000364  1.053011  0.001
H  H28  1  0.43235217  0.74500420  0.87101877  1  0.083921  0.00119  0.114251  0.125306  0.000545  0.996487  0.0
H  H29  1  0.06763904  0.25501494  0.37101248  1  0.083924  0.001189  0.114336  0.125331  0.000545  0.996576  0.0
H  H30  1  0.93235798  0.75499863  0.12898067  1  0.083798  0.001189  0.114286  0.125341  0.000545  0.996534  0.0
H  H31  1  0.56765949  0.24500425  0.62898230  1  0.084125  0.00119  0.114275  0.125209  0.000545  0.996704  0.0
H  H32  1  0.14685132  0.74231475  0.86856678  1  0.102336  0.001211  0.107703  0.11639  0.000548  1.004236  0.0
H  H33  1  0.35314191  0.25768517  0.36857978  1  0.102494  0.001211  0.107698  0.11644  0.000548  1.004175  0.0
H  H34  1  0.64685242  0.75769423  0.13141708  1  0.102572  0.00121  0.107689  0.116552  0.000547  1.004116  0.0
H  H35  1  0.85315108  0.24229709  0.63143393  1  0.10266  0.001211  0.10774  0.116403  0.000548  1.004133  0.0
H  H36  1  0.15442002  0.59224472  0.88436071  1  0.092064  0.001945  0.114697  0.085596  0.00049  1.010557  0.001
H  H37  1  0.34557367  0.40775645  0.38436956  1  0.092116  0.001948  0.114744  0.085658  0.000491  1.010412  0.001
H  H38  1  0.65443725  0.90775995  0.11563353  1  0.092078  0.001947  0.114635  0.085422  0.00049  1.010486  0.001
H  H39  1  0.84558106  0.09223253  0.61563209  1  0.091862  0.001949  0.114698  0.085591  0.000491  1.010376  0.001
H  H40  1  0.27313081  0.54511286  0.00292417  1  0.107317  0.001956  0.119119  0.088667  0.000579  0.988973  0.001
H  H41  1  0.22688128  0.45488304  0.50292685  1  0.107129  0.001958  0.119108  0.088667  0.00058  0.988934  0.001
H  H42  1  0.77312428  0.95489111  0.99707611  1  0.107226  0.001956  0.11912  0.088683  0.000579  0.988957  0.001
H  H43  1  0.72686501  0.04512233  0.49708085  1  0.107101  0.001959  0.119148  0.088685  0.00058  0.989053  0.001
H  H44  1  0.16363686  0.54664525  0.08245721  1  0.112003  0.001323  0.115682  0.128963  0.00063  0.981137  0.001
H  H45  1  0.33637151  0.45330803  0.58244681  1  0.111321  0.001323  0.115634  0.128989  0.00063  0.981085  0.001
H  H46  1  0.66363872  0.95334303  0.91755367  1  0.112059  0.001322  0.115666  0.128923  0.00063  0.98131  0.001
H  H47  1  0.83635828  0.04666476  0.41754487  1  0.111748  0.001324  0.115662  0.129006  0.000631  0.981016  0.001
H  H48  1  0.01394029  0.36576752  0.99422867  1  0.105746  0.001209  0.116341  0.13266  0.000559  0.981526  0.001
H  H49  1  0.48608244  0.63420444  0.49422545  1  0.106523  0.001209  0.116304  0.132612  0.000559  0.98151  0.001
H  H50  1  0.51392613  0.13422571  0.00577765  1  0.106139  0.00121  0.116362  0.132733  0.000559  0.981401  0.001
H  H51  1  0.98606248  0.86578091  0.50576453  1  0.105784  0.00121  0.116371  0.132717  0.000559  0.981585  0.001
H  H52  1  0.12470330  0.37727772  0.91578115  1  0.104129  0.001665  0.11913  0.093461  0.000238  0.993676  0.001
H  H53  1  0.37530390  0.62271872  0.41579456  1  0.1047  0.001665  0.119241  0.093599  0.000238  0.993898  0.001
H  H54  1  0.62468692  0.12272334  0.08421708  1  0.104211  0.001664  0.119206  0.093551  0.000237  0.994023  0.001
H  H55  1  0.87530462  0.87728292  0.58421686  1  0.104352  0.001668  0.11917  0.093472  0.000238  0.993722  0.001
H  H56  1  0.77784951  0.19834781  0.02976991  1  0.095624  0.012471  0.114065  0.02338  0.005097  0.958935  0.006
H  H57  1  0.72216465  0.80164710  0.52978679  1  0.095576  0.012469  0.114193  0.023426  0.005097  0.959035  0.006
H  H58  1  0.27783963  0.30163528  0.97020040  1  0.09641  0.01247  0.114259  0.023618  0.005098  0.95893  0.006
H  H59  1  0.22215025  0.69835080  0.47023253  1  0.09554  0.012465  0.114085  0.023264  0.005095  0.959096  0.006
H  H60  1  0.66905950  0.26753354  0.23388721  1  0.103494  0.010764  0.112873  0.026237  0.004222  0.992824  0.006
H  H61  1  0.83089618  0.73249883  0.73389759  1  0.103377  0.010758  0.112867  0.026324  0.004221  0.992637  0.006
H  H62  1  0.16909773  0.23247005  0.76610578  1  0.103704  0.010759  0.112818  0.026075  0.004221  0.992672  0.006
H  H63  1  0.33093337  0.76754313  0.26612283  1  0.10363  0.010756  0.112899  0.026306  0.004219  0.992758  0.006
H  H64  1  0.52917713  0.41333085  0.13376922  1  0.101635  0.001904  0.117387  0.087723  0.000489  0.989909  0.001
H  H65  1  0.97082435  0.58664531  0.63377172  1  0.100995  0.001903  0.117446  0.087856  0.00049  0.989946  0.001
H  H66  1  0.02917813  0.08665557  0.86622159  1  0.100732  0.001904  0.117482  0.087813  0.00049  0.990042  0.001
H  H67  1  0.47082575  0.91333839  0.36623461  1  0.101118  0.001904  0.117452  0.087842  0.00049  0.989968  0.001
H  H68  1  0.43534011  0.40568085  0.04691724  1  0.096293  0.001362  0.111768  0.122219  0.000664  0.993213  0.0
H  H69  1  0.06466939  0.59430747  0.54693093  1  0.096262  0.001361  0.111816  0.122238  0.000664  0.993303  0.0
H  H70  1  0.93533431  0.09431137  0.95306517  1  0.096208  0.001362  0.111793  0.122173  0.000664  0.993391  0.0
H  H71  1  0.56467084  0.90569758  0.45308422  1  0.09631  0.001362  0.111783  0.122257  0.000664  0.993264  0.0
H  H72  1  0.63399150  0.54706400  0.96301715  1  0.130324  0.001075  0.11796  0.133234  0.000521  0.983124  0.0
H  H73  1  0.86602612  0.45290961  0.46302763  1  0.130265  0.001074  0.117963  0.133239  0.000521  0.98322  0.0
H  H74  1  0.13397094  0.95291857  0.03697387  1  0.130385  0.001076  0.117986  0.133305  0.000522  0.983154  0.0
H  H75  1  0.36601614  0.04708277  0.53697850  1  0.130079  0.001075  0.11798  0.133313  0.000521  0.983216  0.0
H  H76  1  0.71511383  0.55698521  0.05456258  1  0.097112  0.001993  0.117159  0.085111  0.000425  0.999191  0.001
H  H77  1  0.78490531  0.44299434  0.55456848  1  0.097486  0.001992  0.117193  0.085057  0.000424  0.999317  0.001
H  H78  1  0.21510240  0.94300552  0.94543093  1  0.097561  0.001993  0.11717  0.084976  0.000424  0.999379  0.001
H  H79  1  0.28488648  0.05699169  0.44543724  1  0.097035  0.001994  0.117147  0.085003  0.000425  0.99929  0.001
H  H80  1  0.55991381  0.62805963  0.16393176  1  0.126857  0.001441  0.118495  0.092759  0.00031  1.005148  0.001
H  H81  1  0.94008462  0.37193116  0.66394930  1  0.127169  0.00144  0.118525  0.092722  0.00031  1.005085  0.001
H  H82  1  0.05991010  0.87194186  0.83605464  1  0.12773  0.001441  0.118486  0.092752  0.00031  1.005105  0.001
H  H83  1  0.44007760  0.12806101  0.33607061  1  0.126997  0.001442  0.11854  0.092754  0.00031  1.005051  0.001
H  H84  1  0.41131102  0.66149647  0.20691113  1  0.091131  0.001287  0.111294  0.120659  0.000602  0.998754  0.0
H  H85  1  0.08869301  0.33849587  0.70691233  1  0.091035  0.001286  0.111407  0.120842  0.000602  0.99882  0.0
H  H86  1  0.91131011  0.83851866  0.79308133  1  0.091335  0.001287  0.11136  0.120722  0.000602  0.998739  0.0
H  H87  1  0.58867795  0.16149291  0.29309694  1  0.091007  0.001287  0.111315  0.12067  0.000602  0.998732  0.0
H  H88  1  0.45345961  0.46538015  0.32134274  1  0.090325  0.000931  0.109332  0.118703  0.000397  1.008211  0.0
H  H89  1  0.04653757  0.53460635  0.82134837  1  0.090376  0.000931  0.109318  0.11863  0.000397  1.008169  0.0
H  H90  1  0.95347422  0.03462937  0.67865416  1  0.090112  0.000932  0.109366  0.118612  0.000397  1.008274  0.0
H  H91  1  0.54653794  0.96538563  0.17866939  1  0.090515  0.000932  0.109459  0.11889  0.000397  1.008062  0.0
H  H92  1  0.59671313  0.43676143  0.27161185  1  0.120542  0.001984  0.116499  0.086251  0.000702  1.023851  0.001
H  H93  1  0.90328451  0.56321228  0.77162803  1  0.120967  0.001981  0.116443  0.086183  0.000701  1.024058  0.001
H  H94  1  0.09672691  0.06323632  0.72837943  1  0.120595  0.001985  0.116493  0.086255  0.000702  1.023883  0.001
H  H95  1  0.40328082  0.93676914  0.22839284  1  0.120402  0.001986  0.116461  0.086242  0.000703  1.024018  0.001
H  H96  1  0.72172164  0.50221395  0.30630809  1  0.082996  0.012151  0.109544  0.012411  0.004908  0.979477  0.006
H  H97  1  0.77825961  0.49776940  0.80630102  1  0.082712  0.012153  0.109667  0.012571  0.004907  0.979642  0.006
H  H98  1  0.22170956  0.99778093  0.69370039  1  0.082718  0.012155  0.109519  0.012369  0.004909  0.979541  0.006
H  H99  1  0.27827541  0.00221428  0.19369848  1  0.082418  0.012156  0.109579  0.012378  0.004909  0.979591  0.006
H  H100  1  0.93962883  0.76932632  0.37272207  1  0.103547  0.01182  0.11812  0.036204  0.004766  0.966356  0.007
H  H101  1  0.56036944  0.23064503  0.87271230  1  0.104154  0.011819  0.118106  0.036065  0.004767  0.966484  0.007
H  H102  1  0.43963046  0.73066255  0.62728567  1  0.10415  0.011822  0.118136  0.036144  0.004768  0.966217  0.007
H  H103  1  0.06036469  0.26935432  0.12726875  1  0.103198  0.011829  0.118039  0.036035  0.00477  0.966367  0.007
H  H104  1  0.02505526  0.64159570  0.16496489  1  0.13133  0.011222  0.120794  0.042094  0.004431  0.989855  0.007
H  H105  1  0.47494536  0.35838484  0.66498622  1  0.131729  0.011232  0.120793  0.042027  0.004435  0.989826  0.007
H  H106  1  0.52506678  0.85840375  0.83501628  1  0.13161  0.011226  0.12077  0.041888  0.004433  0.989776  0.007
H  H107  1  0.97493597  0.14160393  0.33503059  1  0.131508  0.011226  0.120731  0.041924  0.004433  0.989885  0.007
H  H108  1  0.98728521  0.31310389  0.25784278  1  0.09552  0.010726  0.117769  0.034346  0.004082  0.97484  0.006
H  H109  1  0.51267878  0.68686789  0.75785561  1  0.096052  0.010733  0.11774  0.034414  0.004086  0.974429  0.006
H  H110  1  0.48732768  0.18690466  0.74214185  1  0.09514  0.010726  0.117669  0.034284  0.004081  0.974668  0.006
H  H111  1  0.01272498  0.81310394  0.24215148  1  0.095532  0.010729  0.117789  0.034417  0.004083  0.974725  0.006
H  H112  1  0.81491811  0.46675671  0.09151820  1  0.613094  0.000996  0.311556  0.396373  0.000893  0.895799  0.001
H  H113  1  0.68504082  0.53323481  0.59153271  1  0.613405  0.00099  0.3116  0.396227  0.000891  0.896179  0.001
H  H114  1  0.31493649  0.03325976  0.90847318  1  0.613349  0.000996  0.311677  0.396614  0.000889  0.895658  0.001
H  H115  1  0.18507014  0.96675685  0.40848306  1  0.613451  0.000997  0.311493  0.396322  0.000895  0.896001  0.001
H  H116  1  0.14386524  0.51867568  0.29371696  1  0.597163  0.000485  0.30903  0.395198  0.000102  0.892333  0.001
H  H117  1  0.35616218  0.48133653  0.79371767  1  0.596027  0.000486  0.308977  0.395199  0.000101  0.892362  0.001
H  H118  1  0.64387820  0.98133877  0.70627275  1  0.597035  0.000484  0.30898  0.395157  0.000102  0.892353  0.001
H  H119  1  0.85613757  0.01868371  0.20628100  1  0.597319  0.000485  0.309102  0.395223  0.000102  0.892369  0.001
C  C120  1  0.36780521  0.63045549  0.88317201  1  0.453652  -0.005397  0.045885  0.097978  -0.006363  3.932238  -0.003
C  C121  1  0.13218651  0.36955840  0.38317679  1  0.453735  -0.005407  0.045714  0.097733  -0.006374  3.931952  -0.003
C  C122  1  0.86782028  0.86954624  0.11682610  1  0.453643  -0.005393  0.045596  0.097665  -0.006363  3.932081  -0.003
C  C123  1  0.63219205  0.13044077  0.61681514  1  0.45467  -0.005407  0.045682  0.097644  -0.006374  3.931733  -0.003
C  C124  1  0.36942616  0.71318476  0.87417015  1  -0.031688  0.004231  -0.077371  -0.131963  0.001882  3.932602  0.004
C  C125  1  0.13056170  0.28682582  0.37417091  1  -0.031775  0.004233  -0.077401  -0.131855  0.001882  3.932112  0.004
C  C126  1  0.86943291  0.78680910  0.12582754  1  -0.031888  0.004235  -0.077374  -0.131966  0.001884  3.93215  0.004
C  C127  1  0.63057531  0.21317156  0.62582770  1  -0.032435  0.004238  -0.077367  -0.131669  0.001884  3.932302  0.004
C  C128  1  0.28970219  0.75522143  0.86823389  1  -0.011975  -9.1e-05  -0.000888  0.01374  -0.002721  3.946848  0.001
C  C129  1  0.21028906  0.24478393  0.36824077  1  -0.012058  -9.8e-05  -0.000733  0.013792  -0.002728  3.946728  0.001
C  C130  1  0.78970810  0.74477392  0.13176089  1  -0.012485  -7.9e-05  -0.000746  0.013995  -0.002709  3.94642  0.001
C  C131  1  0.71029739  0.25520654  0.63176451  1  -0.012095  -0.000106  -0.000871  0.013582  -0.002734  3.946918  0.001
C  C132  1  0.21040929  0.71159335  0.87254611  1  0.013499  0.005052  -0.084609  -0.150606  0.002278  3.969565  0.004
C  C133  1  0.28958124  0.28840100  0.37255851  1  0.013748  0.005054  -0.084817  -0.150869  0.002279  3.969526  0.004
C  C134  1  0.71041601  0.78840588  0.12744242  1  0.013867  0.005049  -0.084727  -0.151244  0.002278  3.969251  0.004
C  C135  1  0.78959286  0.21158196  0.62745261  1  0.013638  0.00506  -0.08471  -0.150679  0.002281  3.969409  0.004
C  C136  1  0.21427031  0.62883026  0.88138405  1  0.423809  -0.005402  0.038774  0.081219  -0.006518  3.972038  -0.003
C  C137  1  0.28572209  0.37116800  0.38139591  1  0.424185  -0.00541  0.038885  0.081243  -0.006525  3.971545  -0.003
C  C138  1  0.71428799  0.87117074  0.11860738  1  0.423595  -0.005393  0.038995  0.08182  -0.006508  3.971028  -0.003
C  C139  1  0.78572895  0.12882043  0.61860897  1  0.423775  -0.005411  0.038864  0.081269  -0.006527  3.971949  -0.003
C  C140  1  0.29116455  0.84441293  0.85672498  1  1.578349  -0.001311  0.214771  0.581627  -0.002049  4.178263  0.0
C  C141  1  0.20879766  0.15559344  0.35672419  1  1.579549  -0.001315  0.215096  0.582107  -0.002053  4.177694  0.0
C  C142  1  0.79119537  0.65558482  0.14328272  1  1.579797  -0.001306  0.214882  0.581753  -0.002044  4.178507  0.0
C  C143  1  0.70882191  0.34439523  0.64327442  1  1.578917  -0.001311  0.21467  0.581643  -0.002048  4.178152  0.0
C  C144  1  0.21375291  0.50753423  0.00239706  1  0.483391  -0.012123  0.043648  0.082314  -0.013414  3.962528  -0.007
C  C145  1  0.28626183  0.49246351  0.50240045  1  0.482474  -0.012117  0.043709  0.082255  -0.013406  3.962947  -0.007
C  C146  1  0.71374522  0.99247160  0.99760646  1  0.483166  -0.012121  0.043622  0.082243  -0.013412  3.962745  -0.007
C  C147  1  0.78624739  0.00754362  0.49760401  1  0.482395  -0.012139  0.043668  0.082326  -0.01343  3.962917  -0.007
C  C148  1  0.15372563  0.50759171  0.04643041  1  -0.063055  0.006793  -0.079356  -0.147929  0.002697  3.95309  0.006
C  C149  1  0.34628786  0.49238517  0.54643307  1  -0.061112  0.006788  -0.079447  -0.148133  0.002695  3.953221  0.006
C  C150  1  0.65371919  0.99240151  0.95357427  1  -0.062075  0.006794  -0.079287  -0.147816  0.002698  3.953237  0.006
C  C151  1  0.84626937  0.00760682  0.45356983  1  -0.061736  0.006799  -0.079432  -0.148039  0.0027  3.953033  0.006
C  C152  1  0.08069765  0.45563589  0.04408586  1  -0.040385  -0.010468  0.001439  0.020919  -0.013327  3.950044  -0.005
C  C153  1  0.41932914  0.54432900  0.54409435  1  -0.03954  -0.010457  0.001592  0.021209  -0.01332  3.949869  -0.005
C  C154  1  0.58067854  0.04435117  0.95591677  1  -0.039481  -0.010475  0.001456  0.02082  -0.013334  3.950088  -0.005
C  C155  1  0.91930069  0.95565165  0.45590933  1  -0.040202  -0.010496  0.001638  0.021311  -0.013357  3.949834  -0.005
C  C156  1  0.06989548  0.40717095  0.99674601  1  -0.011913  0.006304  -0.079655  -0.147383  0.002658  3.954246  0.005
C  C157  1  0.43011925  0.59280997  0.49675713  1  -0.013291  0.006304  -0.079765  -0.147574  0.002658  3.954867  0.005
C  C158  1  0.56988125  0.09281985  0.00325668  1  -0.01309  0.006308  -0.07975  -0.147495  0.00266  3.95435  0.005
C  C159  1  0.93010806  0.90718142  0.50325150  1  -0.01184  0.006316  -0.079774  -0.147612  0.002663  3.954357  0.005
C  C160  1  0.13115207  0.41268383  0.95383119  1  0.465654  -0.011556  0.041675  0.080555  -0.013022  3.971884  -0.006
C  C161  1  0.36885926  0.58731731  0.45384356  1  0.465045  -0.011543  0.041838  0.080777  -0.013007  3.972251  -0.006
C  C162  1  0.63114131  0.08731897  0.04617118  1  0.465259  -0.011555  0.041652  0.080568  -0.01302  3.971957  -0.006
C  C163  1  0.86884941  0.91268923  0.54616748  1  0.46553  -0.01157  0.041659  0.080632  -0.013037  3.971908  -0.006
C  C164  1  0.01445931  0.44934221  0.09050658  1  1.590192  -0.004305  0.212485  0.576406  -0.00548  4.199784  -0.003
C  C165  1  0.48556686  0.55063070  0.59051878  1  1.590462  -0.004328  0.212758  0.576773  -0.005506  4.198982  -0.003
C  C166  1  0.51444074  0.05064860  0.90949307  1  1.58979  -0.004314  0.212702  0.576695  -0.005494  4.199255  -0.003
C  C167  1  0.98553447  0.94935163  0.40948622  1  1.58965  -0.0043  0.21266  0.576423  -0.005476  4.19998  -0.003
C  C168  1  0.79570810  0.22089942  0.07185599  1  1.536482  -0.000807  0.159984  0.521105  -0.00247  4.162206  -0.001
C  C169  1  0.70427630  0.77911874  0.57186459  1  1.535208  -0.000791  0.160156  0.521519  -0.002472  4.161056  -0.001
C  C170  1  0.29572429  0.27910821  0.92812256  1  1.534039  -0.000813  0.159989  0.520977  -0.002491  4.16153  -0.001
C  C171  1  0.20428340  0.72088659  0.42814732  1  1.535384  -0.000804  0.160082  0.521531  -0.002476  4.161705  -0.001
C  C172  1  0.70767926  0.31401493  0.21131250  1  1.524061  -0.011042  0.160013  0.515936  -0.014271  4.14887  -0.008
C  C173  1  0.79230260  0.68600676  0.71131386  1  1.524287  -0.010972  0.160034  0.516206  -0.014187  4.148319  -0.008
C  C174  1  0.20770453  0.18599970  0.78869446  1  1.524253  -0.01102  0.160072  0.516554  -0.014242  4.147937  -0.008
C  C175  1  0.29231565  0.81402415  0.28868674  1  1.524037  -0.011029  0.160037  0.515909  -0.014257  4.148499  -0.008
C  C176  1  0.54911609  0.44333860  0.09525645  1  0.460277  -0.011176  0.042662  0.083259  -0.012482  3.964023  -0.006
C  C177  1  0.95088989  0.55664374  0.59525873  1  0.46125  -0.01117  0.042644  0.083222  -0.012475  3.96373  -0.006
C  C178  1  0.04911564  0.05665665  0.90473634  1  0.461138  -0.011185  0.042522  0.083129  -0.012493  3.963828  -0.006
C  C179  1  0.45089171  0.94335345  0.40474521  1  0.461116  -0.011176  0.042637  0.08312  -0.012482  3.964084  -0.006
C  C180  1  0.49791381  0.43857787  0.04711240  1  -0.001943  0.004824  -0.080255  -0.145366  0.001823  3.958522  0.004
C  C181  1  0.00210166  0.56140260  0.54711572  1  -0.002357  0.004821  -0.080275  -0.145495  0.001821  3.958271  0.004
C  C182  1  0.99790248  0.06141246  0.95287927  1  -0.002153  0.004825  -0.080189  -0.145352  0.001822  3.958305  0.004
C  C183  1  0.50209604  0.93859348  0.45288851  1  -0.002232  0.004823  -0.080218  -0.145474  0.001822  3.95844  0.004
C  C184  1  0.52788118  0.47635231  0.99840331  1  -0.038519  -0.008853  0.002552  0.016752  -0.011574  3.943045  -0.004
C  C185  1  0.97213530  0.52362910  0.49840620  1  -0.037562  -0.008847  0.00261  0.017016  -0.011569  3.942629  -0.004
C  C186  1  0.02786015  0.02362809  0.00158917  1  -0.037667  -0.008863  0.002538  0.016957  -0.011587  3.942754  -0.004
C  C187  1  0.47212542  0.97636967  0.50159929  1  -0.038034  -0.00886  0.002563  0.017099  -0.011584  3.942673  -0.004
C  C188  1  0.60860053  0.51796872  0.00050285  1  -0.058245  0.005279  -0.075227  -0.136877  0.002146  3.944589  0.005
C  C189  1  0.89141867  0.48201153  0.50050962  1  -0.058452  0.005267  -0.075376  -0.13715  0.002139  3.944723  0.005
C  C190  1  0.10858056  0.98201835  0.99948996  1  -0.058423  0.005278  -0.075368  -0.137267  0.002144  3.944473  0.005
C  C191  1  0.39140229  0.01798299  0.49949679  1  -0.05808  0.005277  -0.07534  -0.137374  0.002144  3.944619  0.005
C  C192  1  0.65414502  0.52201384  0.05072643  1  0.487842  -0.011478  0.041796  0.084551  -0.012836  3.963217  -0.007
C  C193  1  0.84587085  0.47797067  0.55073309  1  0.486836  -0.011479  0.041901  0.084766  -0.012838  3.963381  -0.007
C  C194  1  0.15413905  0.97797998  0.94926615  1  0.487368  -0.011498  0.04187  0.084866  -0.012858  3.962935  -0.007
C  C195  1  0.34585907  0.02202253  0.44927148  1  0.487738  -0.011484  0.041852  0.084835  -0.012842  3.963012  -0.007
C  C196  1  0.47554113  0.47418680  0.94504464  1  1.593195  -0.001843  0.220676  0.581721  -0.003223  4.176131  0.001
C  C197  1  0.02445970  0.52581344  0.44504027  1  1.592799  -0.001855  0.220701  0.581596  -0.003239  4.175681  0.001
C  C198  1  0.97552576  0.02580799  0.05495340  1  1.593145  -0.001861  0.220635  0.58143  -0.003241  4.176127  0.001
C  C199  1  0.52445820  0.97420835  0.55495966  1  1.593079  -0.001854  0.220771  0.581932  -0.003234  4.175849  0.001
C  C200  1  0.53302409  0.59343372  0.19869348  1  0.54296  -0.002722  0.047001  0.088394  -0.003948  3.945941  -0.001
C  C201  1  0.96697651  0.40655644  0.69870904  1  0.543279  -0.002691  0.046905  0.088372  -0.003918  3.946203  -0.001
C  C202  1  0.03302372  0.90657530  0.80129599  1  0.54208  -0.002715  0.047038  0.088435  -0.003943  3.945964  -0.001
C  C203  1  0.46696976  0.09342820  0.30131365  1  0.543862  -0.002724  0.047207  0.088672  -0.003951  3.94554  -0.001
C  C204  1  0.45153601  0.61199787  0.22284719  1  -0.143059  0.001623  -0.080172  -0.147161  0.000246  3.95313  0.002
C  C205  1  0.04847379  0.38799149  0.72285443  1  -0.142995  0.001605  -0.080238  -0.14734  0.000234  3.953429  0.002
C  C206  1  0.95153133  0.88801742  0.77714673  1  -0.142699  0.001615  -0.080336  -0.147384  0.000238  3.953389  0.002
C  C207  1  0.54846291  0.11198868  0.27716463  1  -0.142946  0.001621  -0.080321  -0.147274  0.000244  3.953183  0.002
C  C208  1  0.42082956  0.56537606  0.26754399  1  -0.000604  0.002027  0.000895  0.018948  -0.000621  3.943651  0.003
C  C209  1  0.07918427  0.43461716  0.76754487  1  -0.001394  0.002083  0.00092  0.018741  -0.000573  3.943995  0.003
C  C210  1  0.92082355  0.93464138  0.73245135  1  -0.00199  0.002041  0.000938  0.018752  -0.000612  3.943342  0.003
C  C211  1  0.57917396  0.06536931  0.23247279  1  -0.000809  0.002028  0.000763  0.018879  -0.00062  3.943624  0.003
C  C212  1  0.47491843  0.50251372  0.28642462  1  -0.001231  0.001043  -0.081866  -0.143003  -0.000348  3.961367  0.002
C  C213  1  0.02509383  0.49747280  0.78642764  1  -0.001346  0.001032  -0.08169  -0.142575  -0.000356  3.961062  0.002
C  C214  1  0.97492510  0.99749829  0.71357377  1  0.000413  0.001036  -0.081902  -0.142789  -0.000353  3.96131  0.002
C  C215  1  0.52507862  0.00251065  0.21359071  1  -0.00061  0.001042  -0.081924  -0.143137  -0.000349  3.96126  0.002
C  C216  1  0.55468025  0.48720908  0.25958789  1  0.42266  -0.002003  0.041662  0.080098  -0.002871  3.975097  -0.001
C  C217  1  0.94531755  0.51277169  0.75959969  1  0.422666  -0.001975  0.041534  0.079868  -0.002843  3.975161  -0.001
C  C218  1  0.05468657  0.01279395  0.74040654  1  0.421874  -0.001995  0.041702  0.080007  -0.002864  3.975297  -0.001
C  C219  1  0.44531369  0.98721169  0.24042262  1  0.42223  -0.001998  0.041779  0.080112  -0.002867  3.97573  -0.001
C  C220  1  0.78926077  0.51107570  0.28894739  1  1.54509  -0.005138  0.160025  0.522958  -0.007067  4.178351  -0.004
C  C221  1  0.71071408  0.48890706  0.78895917  1  1.545641  -0.005123  0.159956  0.522804  -0.007046  4.179541  -0.004
C  C222  1  0.28926184  0.98893957  0.71105072  1  1.54503  -0.005128  0.159902  0.522969  -0.007055  4.178965  -0.004
C  C223  1  0.21073882  0.01109366  0.21105487  1  1.545752  -0.005147  0.16  0.522964  -0.007075  4.178822  -0.004
C  C224  1  0.97819081  0.72021091  0.35302510  1  1.536427  -0.007498  0.159777  0.517998  -0.010047  4.161452  -0.006
C  C225  1  0.52180241  0.27976235  0.85301930  1  1.537022  -0.007498  0.159774  0.518203  -0.010045  4.161388  -0.006
C  C226  1  0.47820282  0.77978297  0.64697535  1  1.537428  -0.007487  0.159818  0.518263  -0.010036  4.162058  -0.006
C  C227  1  0.02182060  0.22022294  0.14697071  1  1.538202  -0.00749  0.159936  0.51817  -0.010035  4.162106  -0.006
C  C228  1  0.33215448  0.58001462  0.29469772  1  1.60334  -0.006694  0.212052  0.574631  -0.008171  4.188969  -0.004
C  C229  1  0.16786363  0.41998127  0.79469796  1  1.603456  -0.006701  0.212041  0.574619  -0.008183  4.188905  -0.004
C  C230  1  0.83215102  0.92000923  0.70529141  1  1.604176  -0.006701  0.212221  0.575208  -0.008182  4.18944  -0.004
C  C231  1  0.66784221  0.08001690  0.20531547  1  1.603075  -0.006695  0.211869  0.574301  -0.008172  4.189334  -0.004
C  C232  1  0.04065970  0.63099831  0.20928549  1  1.51051  -0.007517  0.158256  0.515126  -0.010092  4.128505  -0.006
C  C233  1  0.45928659  0.36897222  0.70930339  1  1.508513  -0.007528  0.158482  0.515529  -0.010102  4.127883  -0.006
C  C234  1  0.54069158  0.86900338  0.79069726  1  1.508599  -0.007526  0.158364  0.515468  -0.010097  4.128458  -0.006
C  C235  1  0.95931575  0.13102336  0.29070892  1  1.509229  -0.007514  0.158338  0.515549  -0.010081  4.128406  -0.006
C  C236  1  0.97890294  0.37937054  0.25571937  1  1.562632  -0.007007  0.164065  0.5299  -0.009443  4.138646  -0.005
C  C237  1  0.52108894  0.62059468  0.75572201  1  1.561514  -0.006992  0.164133  0.529756  -0.009436  4.139709  -0.004
C  C238  1  0.47892503  0.12063689  0.74427365  1  1.561096  -0.00699  0.164143  0.530158  -0.009428  4.138663  -0.004
C  C239  1  0.02109973  0.87937887  0.24426585  1  1.562178  -0.006991  0.163961  0.529746  -0.009428  4.139314  -0.004
N  N240  1  0.29158402  0.58810839  0.88611624  1  -1.213805  0.059477  -0.328293  -0.258915  0.031326  3.581784  0.052
N  N241  1  0.20841694  0.41189333  0.38612574  1  -1.214016  0.059476  -0.328403  -0.258849  0.031325  3.58185  0.052
N  N242  1  0.79159923  0.91188935  0.11388062  1  -1.213851  0.059485  -0.328289  -0.258964  0.03133  3.581771  0.052
N  N243  1  0.70842508  0.08810078  0.61386996  1  -1.213947  0.05952  -0.328315  -0.258745  0.031348  3.582024  0.052
N  N244  1  0.20288371  0.46121909  0.95660701  1  -1.206725  0.059558  -0.330766  -0.248846  0.032363  3.603983  0.048
N  N245  1  0.29712559  0.53878074  0.45661433  1  -1.206548  0.059569  -0.330937  -0.24898  0.032366  3.603992  0.048
N  N246  1  0.70288027  0.03878412  0.04339539  1  -1.206678  0.059561  -0.330836  -0.24895  0.032364  3.603961  0.048
N  N247  1  0.79711646  0.96122237  0.54339167  1  -1.206862  0.0596  -0.330952  -0.249079  0.032386  3.604612  0.048
N  N248  1  0.62573597  0.48529702  0.09773578  1  -1.225461  0.053352  -0.328314  -0.248836  0.028075  3.59794  0.049
N  N249  1  0.87426733  0.51468523  0.59774250  1  -1.224786  0.0533  -0.32846  -0.249003  0.028048  3.598123  0.049
N  N250  1  0.12573810  0.01469678  0.90225660  1  -1.2255  0.053334  -0.328419  -0.24881  0.028066  3.598057  0.049
N  N251  1  0.37426928  0.98531341  0.40226309  1  -1.225221  0.053347  -0.328403  -0.248811  0.028073  3.597878  0.049
N  N252  1  0.58387540  0.53132022  0.21602303  1  -1.208719  0.04801  -0.320113  -0.244075  0.026153  3.550771  0.039
N  N253  1  0.91611967  0.46866088  0.71604074  1  -1.20863  0.047967  -0.320013  -0.243893  0.02613  3.550762  0.039
N  N254  1  0.08388306  0.96868160  0.78396741  1  -1.208895  0.047988  -0.320179  -0.24398  0.026142  3.550748  0.039
N  N255  1  0.41611464  0.03132190  0.28398097  1  -1.21023  0.048032  -0.320246  -0.244128  0.026162  3.551215  0.039
O  O256  1  0.81079003  0.45437352  0.13109013  1  -1.187095  0.229183  -0.557396  -0.885246  0.123638  2.415702  0.203
O  O257  1  0.68918495  0.54563713  0.63109607  1  -1.187313  0.229113  -0.557422  -0.884923  0.123582  2.415512  0.203
O  O258  1  0.31078225  0.04564059  0.86890461  1  -1.187271  0.229159  -0.557476  -0.885599  0.123627  2.415688  0.203
O  O259  1  0.18922160  0.95438346  0.36891384  1  -1.187257  0.229163  -0.557253  -0.885148  0.123627  2.415745  0.203
O  O260  1  0.12299445  0.55418526  0.32329683  1  -1.173975  0.216798  -0.554883  -0.895317  0.117645  2.379167  0.189
O  O261  1  0.37699276  0.44578246  0.82328385  1  -1.172297  0.216783  -0.554928  -0.895364  0.117645  2.379471  0.189
O  O262  1  0.62301491  0.94580950  0.67670008  1  -1.173784  0.216812  -0.554858  -0.895199  0.117653  2.378906  0.189
O  O263  1  0.87700922  0.05419773  0.17670595  1  -1.174048  0.216745  -0.555014  -0.895347  0.117622  2.379198  0.189
O  O264  1  0.36788670  0.87620453  0.85404860  1  -1.15652  0.059167  -0.311683  -0.563379  0.030592  2.381981  0.051
O  O265  1  0.13207621  0.12381642  0.35404584  1  -1.157347  0.059158  -0.311729  -0.56348  0.030592  2.382361  0.051
O  O266  1  0.86792189  0.62380927  0.14596620  1  -1.157349  0.059169  -0.31166  -0.563383  0.030599  2.382503  0.051
O  O267  1  0.63210265  0.37618818  0.64594526  1  -1.156901  0.059091  -0.311646  -0.56343  0.03055  2.381757  0.051
O  O268  1  0.21711101  0.88030476  0.85108862  1  -1.156952  0.062516  -0.305557  -0.561106  0.03239  2.369632  0.055
O  O269  1  0.28285327  0.11968673  0.35108388  1  -1.1571  0.062527  -0.305861  -0.561476  0.032403  2.369161  0.055
O  O270  1  0.71714753  0.61968113  0.14892031  1  -1.15738  0.062501  -0.305682  -0.561242  0.032385  2.369549  0.055
O  O271  1  0.78287829  0.38029027  0.64891727  1  -1.156759  0.062528  -0.305531  -0.561047  0.032398  2.369364  0.055
O  O272  1  0.00449986  0.50930779  0.12270958  1  -1.152274  0.059411  -0.304789  -0.553031  0.030381  2.332928  0.053
O  O273  1  0.49555506  0.49068510  0.62271940  1  -1.153111  0.05941  -0.304816  -0.553121  0.030386  2.33352  0.053
O  O274  1  0.50445268  0.99069672  0.87729213  1  -1.152299  0.059375  -0.304718  -0.552945  0.030364  2.333199  0.053
O  O275  1  0.99550705  0.00931310  0.37728520  1  -1.15231  0.059388  -0.304865  -0.553084  0.030369  2.333202  0.053
O  O276  1  0.97312218  0.38219786  0.09250611  1  -1.155144  0.065365  -0.312005  -0.570556  0.033629  2.394948  0.056
O  O277  1  0.52684802  0.61781113  0.59251378  1  -1.155136  0.065441  -0.312245  -0.570868  0.033669  2.394585  0.056
O  O278  1  0.47313481  0.11781989  0.90749027  1  -1.155264  0.065439  -0.312277  -0.570906  0.033666  2.394428  0.056
O  O279  1  0.02685923  0.88219796  0.40748490  1  -1.154794  0.065374  -0.312151  -0.570699  0.033635  2.394953  0.056
O  O280  1  0.81692758  0.29393328  0.07612610  1  -1.151405  0.073682  -0.309185  -0.498095  0.037866  2.319199  0.062
O  O281  1  0.68303089  0.70608835  0.57614062  1  -1.150872  0.073729  -0.309305  -0.498197  0.037896  2.31913  0.062
O  O282  1  0.31696138  0.20606868  0.92385568  1  -1.150325  0.073774  -0.309035  -0.497904  0.037917  2.319389  0.062
O  O283  1  0.18306163  0.79391842  0.42387140  1  -1.151328  0.073665  -0.309165  -0.498096  0.037858  2.318977  0.062
O  O284  1  0.79148144  0.16865529  0.11123557  1  -1.175059  0.098355  -0.314846  -0.562692  0.051504  2.591847  0.087
O  O285  1  0.70850642  0.83137537  0.61123951  1  -1.174065  0.098384  -0.314981  -0.563023  0.051531  2.591457  0.087
O  O286  1  0.29150874  0.33135420  0.88874134  1  -1.174303  0.0984  -0.315163  -0.562855  0.05153  2.59165  0.087
O  O287  1  0.20851142  0.66862871  0.38876695  1  -1.173882  0.098376  -0.314935  -0.56298  0.051524  2.591516  0.087
O  O288  1  0.78678689  0.29276316  0.19795671  1  -1.157157  0.103442  -0.307941  -0.542252  0.055507  2.563365  0.089
O  O289  1  0.71319715  0.70727469  0.69793811  1  -1.157017  0.103545  -0.308179  -0.542874  0.055556  2.562816  0.089
O  O290  1  0.28680705  0.20727715  0.80206360  1  -1.157223  0.103588  -0.308126  -0.54277  0.055579  2.563154  0.089
O  O291  1  0.21320167  0.79278425  0.30203747  1  -1.157383  0.103438  -0.308046  -0.542403  0.055498  2.563184  0.089
O  O292  1  0.67098029  0.38035007  0.20087117  1  -1.169512  0.060881  -0.303659  -0.513082  0.031531  2.441906  0.055
O  O293  1  0.82897717  0.61967622  0.70088721  1  -1.16967  0.060743  -0.303505  -0.512943  0.031466  2.441893  0.055
O  O294  1  0.17103682  0.11966557  0.79913849  1  -1.169784  0.060823  -0.303475  -0.513087  0.031504  2.442161  0.055
O  O295  1  0.32901242  0.88036455  0.29912947  1  -1.169498  0.06088  -0.30374  -0.513202  0.031533  2.441594  0.055
O  O296  1  0.51641091  0.49537134  0.90125515  1  -1.149459  0.060662  -0.29892  -0.539997  0.030764  2.3694  0.051
O  O297  1  0.98358233  0.50462496  0.40125580  1  -1.149038  0.060687  -0.298926  -0.539874  0.030776  2.369294  0.051
O  O298  1  0.01641204  0.00463151  0.09874073  1  -1.149241  0.060723  -0.298909  -0.539909  0.030794  2.369415  0.051
O  O299  1  0.48359080  0.99540808  0.59875130  1  -1.149152  0.060706  -0.298943  -0.540105  0.030786  2.369454  0.051
O  O300  1  0.39416025  0.45371276  0.94913313  1  -1.16057  0.073724  -0.312752  -0.560942  0.037968  2.369158  0.064
O  O301  1  0.10583257  0.54631147  0.44911589  1  -1.161021  0.073769  -0.312716  -0.560824  0.037986  2.369448  0.064
O  O302  1  0.89415329  0.04629801  0.05087577  1  -1.161138  0.073735  -0.312618  -0.560616  0.037971  2.36959  0.064
O  O303  1  0.60583537  0.95372692  0.55087486  1  -1.161341  0.073764  -0.312737  -0.56104  0.037988  2.369457  0.064
O  O304  1  0.79317933  0.51907197  0.23574322  1  -1.166743  0.097193  -0.318481  -0.560011  0.051251  2.612798  0.089
O  O305  1  0.70680951  0.48086318  0.73575933  1  -1.165777  0.09713  -0.31847  -0.560107  0.051221  2.612989  0.089
O  O306  1  0.29316652  0.98091489  0.76425154  1  -1.166503  0.097174  -0.318484  -0.559951  0.051242  2.613123  0.089
O  O307  1  0.20683277  0.01908750  0.26425640  1  -1.166685  0.097189  -0.318487  -0.560047  0.051249  2.61337  0.089
O  O308  1  0.85244282  0.51276723  0.32262002  1  -1.148492  0.061678  -0.298226  -0.489332  0.031725  2.385537  0.052
O  O309  1  0.64754285  0.48725296  0.82263758  1  -1.149366  0.061696  -0.298252  -0.489262  0.031734  2.386271  0.052
O  O310  1  0.35243906  0.98729259  0.67737860  1  -1.148527  0.061634  -0.298093  -0.489414  0.031698  2.385698  0.052
O  O311  1  0.14757002  0.01280336  0.17737470  1  -1.148447  0.061704  -0.29818  -0.489167  0.03174  2.385589  0.052
O  O312  1  0.94170765  0.65286158  0.34702708  1  -1.147785  0.065188  -0.30442  -0.505094  0.033404  2.391515  0.057
O  O313  1  0.55827770  0.34711792  0.84703622  1  -1.148334  0.06522  -0.304481  -0.505233  0.033418  2.391155  0.057
O  O314  1  0.44174256  0.84714054  0.65295605  1  -1.148532  0.065172  -0.304503  -0.505272  0.033393  2.391796  0.057
O  O315  1  0.05832788  0.15288507  0.15295486  1  -1.148518  0.065196  -0.304479  -0.504882  0.033402  2.391325  0.057
O  O316  1  0.05752928  0.73883162  0.33838455  1  -1.16523  0.10365  -0.313682  -0.573821  0.055125  2.628416  0.093
O  O317  1  0.44247166  0.26114643  0.83837725  1  -1.165802  0.103698  -0.313564  -0.573658  0.055148  2.628647  0.093
O  O318  1  0.55752254  0.76115239  0.66161980  1  -1.165976  0.103676  -0.313707  -0.573898  0.055148  2.62942  0.093
O  O319  1  0.94248720  0.23882520  0.16161679  1  -1.166167  0.103652  -0.31361  -0.573927  0.055119  2.628959  0.093
O  O320  1  0.31569530  0.53791025  0.33774452  1  -1.169431  0.057371  -0.306056  -0.56577  0.029733  2.411741  0.051
O  O321  1  0.18432224  0.46209679  0.83774105  1  -1.169663  0.05742  -0.306105  -0.56579  0.029767  2.411692  0.051
O  O322  1  0.81568920  0.96212222  0.66224928  1  -1.170238  0.057403  -0.306032  -0.565758  0.029754  2.412483  0.051
O  O323  1  0.68429200  0.03790723  0.16226604  1  -1.168877  0.057372  -0.30596  -0.565681  0.029735  2.411381  0.051
O  O324  1  0.28152818  0.63228470  0.27229587  1  -1.157824  0.057235  -0.311211  -0.565252  0.029328  2.338492  0.05
O  O325  1  0.21848559  0.36770654  0.77230798  1  -1.157932  0.057264  -0.311151  -0.56502  0.029342  2.33904  0.05
O  O326  1  0.78153240  0.86772582  0.72768478  1  -1.157785  0.057247  -0.311325  -0.56562  0.029333  2.339006  0.05
O  O327  1  0.71846450  0.13228685  0.22770560  1  -1.157791  0.057213  -0.311153  -0.565061  0.029312  2.339018  0.05
O  O328  1  0.10350058  0.67050497  0.23029645  1  -1.152539  0.081699  -0.308809  -0.505544  0.042458  2.391045  0.07
O  O329  1  0.39644609  0.32946422  0.73028615  1  -1.152311  0.081686  -0.309006  -0.505695  0.04245  2.391753  0.07
O  O330  1  0.60353260  0.82949061  0.76970432  1  -1.15191  0.081687  -0.308817  -0.505585  0.042448  2.391382  0.07
O  O331  1  0.89648828  0.17054532  0.26971147  1  -1.152214  0.081667  -0.308908  -0.505789  0.042435  2.391513  0.07
O  O332  1  0.99133720  0.57825262  0.23393045  1  -1.156931  0.107898  -0.308007  -0.56783  0.058053  2.535215  0.094
O  O333  1  0.50860720  0.42171518  0.73395987  1  -1.155609  0.107904  -0.307981  -0.568057  0.058064  2.534679  0.094
O  O334  1  0.49136430  0.92174775  0.76604991  1  -1.155982  0.107855  -0.308094  -0.56797  0.058037  2.534948  0.094
O  O335  1  0.00863894  0.07827750  0.26606025  1  -1.156342  0.107895  -0.307923  -0.567831  0.058046  2.534452  0.094
O  O336  1  0.01186741  0.42207140  0.29345286  1  -1.164308  0.059128  -0.297119  -0.509071  0.030289  2.392123  0.053
O  O337  1  0.48811556  0.57786902  0.79343457  1  -1.163404  0.059087  -0.29712  -0.508952  0.030282  2.392938  0.053
O  O338  1  0.51190628  0.07791400  0.70655430  1  -1.163247  0.059137  -0.297221  -0.509366  0.030292  2.392174  0.053
O  O339  1  0.98814531  0.92206804  0.20652538  1  -1.164017  0.059103  -0.297107  -0.508895  0.030274  2.392406  0.053
O  O340  1  0.93471625  0.40544469  0.21354870  1  -1.180709  0.109553  -0.319565  -0.576094  0.05841  2.649157  0.099
O  O341  1  0.56531070  0.59456486  0.71356198  1  -1.181087  0.10947  -0.319664  -0.576175  0.058366  2.649261  0.099
O  O342  1  0.43470826  0.09457831  0.78643412  1  -1.180013  0.109495  -0.319416  -0.576101  0.058378  2.648875  0.099
O  O343  1  0.06527745  0.90546493  0.28643566  1  -1.18045  0.109556  -0.319397  -0.576064  0.058401  2.648946  0.099
