# generated using pymatgen
data_Zn2H24C19N2O7
_symmetry_space_group_name_H-M   'P 1'
_cell_length_a   13.05553792
_cell_length_b   20.12074338
_cell_length_c   20.11942008
_cell_angle_alpha   83.97163274
_cell_angle_beta   71.08977950
_cell_angle_gamma   71.06502713
_symmetry_Int_Tables_number   1
_chemical_formula_structural   Zn2H24C19N2O7
_chemical_formula_sum   'Zn16 H192 C152 N16 O56'
_cell_volume   4729.30699181
_cell_formula_units_Z   8
loop_
 _symmetry_equiv_pos_site_id
 _symmetry_equiv_pos_as_xyz
  1  'x, y, z'
loop_
 _atom_site_type_symbol
 _atom_site_label
 _atom_site_symmetry_multiplicity
 _atom_site_fract_x
 _atom_site_fract_y
 _atom_site_fract_z
 _atom_site_occupancy
 _atom_site_pbe_bader_charge
 _atom_site_pbe_bader_spin_density
 _atom_site_pbe_cm5_charge
 _atom_site_pbe_ddec_charge
 _atom_site_pbe_ddec_spin_density
 _atom_site_pbe_ddec_sum_bond_order
 _atom_site_pbe_magmom
Zn  Zn0  1  0.43782291  0.15922414  0.11159687  1  1.291476  0  0.681287  0.83756  0  2.277331  0
Zn  Zn1  1  0.20869885  0.34079978  0.38847181  1  1.295109  0  0.681173  0.837547  0  2.274036  0
Zn  Zn2  1  0.54955412  0.88848843  0.65908523  1  1.29117  0  0.680803  0.837641  0  2.276006  0
Zn  Zn3  1  0.59690489  0.61152198  0.84091322  1  1.293587  0  0.681675  0.838079  0  2.276246  0
Zn  Zn4  1  0.56217750  0.84077346  0.88840238  1  1.291535  0  0.681295  0.837536  0  2.277359  0
Zn  Zn5  1  0.79130357  0.65919992  0.61152762  1  1.295074  0  0.681157  0.837502  0  2.274105  0
Zn  Zn6  1  0.45044444  0.11151233  0.34091835  1  1.291295  0  0.680789  0.837562  0  2.276086  0
Zn  Zn7  1  0.40309357  0.38847982  0.15908669  1  1.293563  0  0.681696  0.838076  0  2.276294  0
Zn  Zn8  1  0.26613192  0.20076393  0.02986054  1  1.277686  0  0.686509  0.845214  0  2.30466  0
Zn  Zn9  1  0.99703566  0.29924150  0.47026833  1  1.278719  0  0.686162  0.844932  0  2.305178  0
Zn  Zn10  1  0.29639749  0.97012011  0.70081465  1  1.278219  0  0.68629  0.845469  0  2.305921  0
Zn  Zn11  1  0.46677737  0.52985958  0.79933151  1  1.278811  0  0.686356  0.845177  0  2.304122  0
Zn  Zn12  1  0.73386663  0.79923629  0.97014170  1  1.277768  0  0.6865  0.845179  0  2.304762  0
Zn  Zn13  1  0.00296320  0.70075978  0.52973225  1  1.278775  0  0.686175  0.844873  0  2.305101  0
Zn  Zn14  1  0.70360245  0.02987959  0.29918727  1  1.278246  0  0.686364  0.845563  0  2.305765  0
Zn  Zn15  1  0.53321867  0.47014064  0.20066755  1  1.278994  0  0.686397  0.845249  0  2.304047  0
H  H16  1  0.86449572  0.15638402  0.76430658  1  0.013608  0  0.085538  0.115915  0  1.055155  0
H  H17  1  0.28529802  0.34377017  0.73606847  1  0.029119  0  0.085222  0.11552  0  1.056291  0
H  H18  1  0.62854790  0.23616983  0.65625151  1  0.035094  0  0.085332  0.116291  0  1.055705  0
H  H19  1  0.02083560  0.26386184  0.84367408  1  0.013657  0  0.085605  0.116237  0  1.054621  0
H  H20  1  0.13550370  0.84361516  0.23569449  1  0.013604  0  0.085523  0.115898  0  1.055161  0
H  H21  1  0.71470627  0.65622848  0.26392880  1  0.029168  0  0.085222  0.115537  0  1.056326  0
H  H22  1  0.37144793  0.76383197  0.34375022  1  0.035038  0  0.085329  0.116254  0  1.05566  0
H  H23  1  0.97915764  0.73613734  0.15632913  1  0.013541  0  0.085735  0.11646  0  1.054567  0
H  H24  1  0.76738606  0.17565244  0.71448490  1  0.016909  0  0.084201  0.115377  0  1.043612  0
H  H25  1  0.15754023  0.32455285  0.78562609  1  0.021123  0  0.084052  0.115061  0  1.045153  0
H  H26  1  0.48157738  0.28575909  0.67550270  1  0.009532  0  0.084279  0.115354  0  1.044183  0
H  H27  1  0.94264480  0.21430231  0.82440487  1  0.029549  0  0.08403  0.114747  0  1.044485  0
H  H28  1  0.23261374  0.82434726  0.28551635  1  0.016898  0  0.084181  0.115344  0  1.043635  0
H  H29  1  0.84246045  0.67544423  0.21437315  1  0.021227  0  0.084082  0.115094  0  1.0451  0
H  H30  1  0.51842236  0.71424114  0.32449671  1  0.009474  0  0.084261  0.115302  0  1.044195  0
H  H31  1  0.05734803  0.78569739  0.17559767  1  0.029746  0  0.084007  0.114725  0  1.044475  0
H  H32  1  0.81517481  0.09030075  0.74747774  1  0.021283  0  0.090368  0.128302  0  1.000222  0
H  H33  1  0.15312281  0.40989509  0.75265710  1  0.06253  0  0.090575  0.128415  0  0.999649  0
H  H34  1  0.56242589  0.25280297  0.59015123  1  0.031849  0  0.090497  0.128442  0  1.00018  0
H  H35  1  0.90534288  0.24721219  0.90976903  1  0.027865  0  0.090792  0.128505  0  0.999908  0
H  H36  1  0.18482385  0.90969895  0.25252384  1  0.021336  0  0.090357  0.128262  0  1.00029  0
H  H37  1  0.84687807  0.59010514  0.24734199  1  0.062562  0  0.090583  0.128422  0  0.999633  0
H  H38  1  0.43757423  0.74719778  0.40984836  1  0.031849  0  0.090517  0.128417  0  1.000185  0
H  H39  1  0.09464675  0.75278909  0.09023350  1  0.027908  0  0.090789  0.128501  0  0.999888  0
H  H40  1  0.56107355  0.18552863  0.77754785  1  0.06885  0  0.092915  0.099663  0  1.062857  0
H  H41  1  0.02467360  0.31466903  0.72254213  1  0.073635  0  0.093239  0.099523  0  1.063951  0
H  H42  1  0.33880185  0.22256026  0.68545888  1  0.073651  0  0.093165  0.099346  0  1.063403  0
H  H43  1  0.74661560  0.27745989  0.81456985  1  0.067383  0  0.093121  0.100086  0  1.063065  0
H  H44  1  0.43892529  0.81447212  0.22245139  1  0.068764  0  0.092928  0.09969  0  1.062849  0
H  H45  1  0.97532751  0.68533172  0.27745647  1  0.07359  0  0.093216  0.099534  0  1.063949  0
H  H46  1  0.66119643  0.77744049  0.31454336  1  0.073667  0  0.093162  0.099358  0  1.063381  0
H  H47  1  0.25337865  0.72254139  0.18542887  1  0.067403  0  0.093107  0.100057  0  1.063026  0
H  H48  1  0.79810205  0.15436038  0.89255628  1  0.099965  0  0.101924  0.115448  0  1.019714  0
H  H49  1  0.34542538  0.34582179  0.60752238  1  0.087838  0  0.102146  0.115112  0  1.020009  0
H  H50  1  0.69090774  0.10779303  0.65403653  1  0.09451  0  0.102443  0.116124  0  1.020812  0
H  H51  1  0.95238207  0.39238973  0.84591457  1  0.087129  0  0.102487  0.116076  0  1.018721  0
H  H52  1  0.20189815  0.84563722  0.10744479  1  0.099973  0  0.101919  0.115456  0  1.019708  0
H  H53  1  0.65457145  0.65418369  0.39247570  1  0.087816  0  0.102174  0.115136  0  1.02003  0
H  H54  1  0.30909377  0.89220877  0.34596356  1  0.094541  0  0.102472  0.116131  0  1.02083  0
H  H55  1  0.04761360  0.60760997  0.15408432  1  0.087427  0  0.102505  0.116113  0  1.018677  0
H  H56  1  0.73445419  0.18994318  0.00777843  1  0.030181  0  0.104507  0.083989  0  0.97683  0
H  H57  1  0.43247573  0.31007139  0.49227058  1  0.033665  0  0.104463  0.083905  0  0.976655  0
H  H58  1  0.74254677  0.99237461  0.68976408  1  0.041464  0  0.104438  0.083573  0  0.976673  0
H  H59  1  0.92435610  0.50759755  0.81015933  1  0.063361  0  0.104692  0.084027  0  0.97594  0
H  H60  1  0.26554639  0.81005494  0.99222281  1  0.030193  0  0.104526  0.083999  0  0.976766  0
H  H61  1  0.56752348  0.68992989  0.50772884  1  0.033668  0  0.104484  0.083978  0  0.976661  0
H  H62  1  0.25745577  0.00762614  0.31023551  1  0.041131  0  0.104448  0.083593  0  0.976652  0
H  H63  1  0.07564373  0.49240163  0.18983808  1  0.063325  0  0.1047  0.084053  0  0.97595  0
H  H64  1  0.59179894  0.24631603  0.04139585  1  0.097916  0  0.110389  0.101864  0  1.001401  0
H  H65  1  0.37962348  0.25377680  0.45867002  1  0.098835  0  0.111083  0.103285  0  0.999024  0
H  H66  1  0.63333437  0.95889199  0.74612614  1  0.103307  0  0.110607  0.10214  0  0.999602  0
H  H67  1  0.83802294  0.54115159  0.75379242  1  0.097637  0  0.110644  0.101876  0  1.000871  0
H  H68  1  0.40820176  0.75368315  0.95860557  1  0.09796  0  0.11038  0.101846  0  1.001464  0
H  H69  1  0.62037565  0.74622395  0.54133056  1  0.098789  0  0.111062  0.103252  0  0.999061  0
H  H70  1  0.36666779  0.04110981  0.25387413  1  0.103243  0  0.110612  0.102155  0  0.999634  0
H  H71  1  0.16197571  0.45884969  0.24620433  1  0.097746  0  0.11065  0.10184  0  1.000959  0
H  H72  1  0.77689023  0.06547527  0.04093046  1  0.024907  0  0.10767  0.08975  0  0.950837  0
H  H73  1  0.38359302  0.43461932  0.45907173  1  0.059389  0  0.107364  0.089517  0  0.951508  0
H  H74  1  0.81797522  0.95906131  0.56523891  1  0.065378  0  0.106854  0.088151  0  0.951947  0
H  H75  1  0.84235410  0.54102344  0.93459762  1  0.067526  0  0.107025  0.089294  0  0.948907  0
H  H76  1  0.22311094  0.93452496  0.95906996  1  0.024935  0  0.10769  0.089766  0  0.950797  0
H  H77  1  0.61641051  0.56538143  0.54092687  1  0.05947  0  0.107333  0.089487  0  0.951523  0
H  H78  1  0.18202621  0.04093839  0.43476151  1  0.065447  0  0.106877  0.088162  0  0.951947  0
H  H79  1  0.15764600  0.45897678  0.06540063  1  0.067475  0  0.107029  0.089288  0  0.948891  0
H  H80  1  0.66935256  0.06322930  0.00604480  1  0.028104  0  0.103862  0.079467  0  1.00498  0
H  H81  1  0.23899272  0.43685980  0.49407435  1  0.056215  0  0.104086  0.08038  0  1.004399  0
H  H82  1  0.67552859  0.99409419  0.56309607  1  0.059728  0  0.104284  0.079689  0  1.006226  0
H  H83  1  0.73287103  0.50591202  0.93680618  1  0.031631  0  0.10459  0.080548  0  1.00521  0
H  H84  1  0.33065053  0.93676935  0.99395529  1  0.028117  0  0.103843  0.079456  0  1.004962  0
H  H85  1  0.76100840  0.56314095  0.50592424  1  0.056175  0  0.104091  0.080408  0  1.004365  0
H  H86  1  0.32447167  0.00590656  0.43690418  1  0.05948  0  0.104308  0.079702  0  1.00623  0
H  H87  1  0.26712820  0.49408768  0.06319240  1  0.031627  0  0.104623  0.080598  0  1.005164  0
H  H88  1  0.56526413  0.02134276  0.12240098  1  0.037033  0  0.092357  0.097545  0  1.023699  0
H  H89  1  0.20905359  0.47865183  0.37771505  1  0.060645  0  0.092424  0.097301  0  1.024343  0
H  H90  1  0.68734262  0.87781647  0.52117596  1  0.036278  0  0.092623  0.098247  0  1.02412  0
H  H91  1  0.58641786  0.62216303  0.97867095  1  0.040458  0  0.092499  0.098045  0  1.022731  0
H  H92  1  0.43473794  0.97865694  0.87759962  1  0.036984  0  0.092373  0.097605  0  1.023589  0
H  H93  1  0.79094857  0.52134840  0.62228438  1  0.06064  0  0.092478  0.097393  0  1.024279  0
H  H94  1  0.31265761  0.12218166  0.47882645  1  0.036289  0  0.092622  0.098231  0  1.024138  0
H  H95  1  0.41358084  0.37783772  0.02132763  1  0.04048  0  0.092507  0.098067  0  1.022674  0
H  H96  1  0.67780637  0.01680942  0.15507722  1  0.044316  0  0.089185  0.090812  0  1.020582  0
H  H97  1  0.34962356  0.48329467  0.34499830  1  0.04182  0  0.088815  0.090965  0  1.020367  0
H  H98  1  0.83248317  0.84496779  0.51669023  1  0.046889  0  0.089347  0.091094  0  1.020958  0
H  H99  1  0.69413459  0.65507131  0.98321980  1  0.044213  0  0.089574  0.091405  0  1.020186  0
H  H100  1  0.32219503  0.98319133  0.84492271  1  0.044367  0  0.089198  0.09082  0  1.020572  0
H  H101  1  0.65037627  0.51670608  0.65499995  1  0.041778  0  0.088805  0.090966  0  1.020262  0
H  H102  1  0.16751864  0.15503244  0.48331037  1  0.046928  0  0.089338  0.091096  0  1.020975  0
H  H103  1  0.30586602  0.34492944  0.01677929  1  0.044197  0  0.089588  0.091435  0  1.020189  0
H  H104  1  0.72781118  0.94237199  0.01794692  1  0.044148  0  0.091758  0.091206  0  1.021442  0
H  H105  1  0.18788455  0.55777169  0.48205589  1  0.049144  0  0.09184  0.091425  0  1.022291  0
H  H106  1  0.74581926  0.98214139  0.44224701  1  0.063027  0  0.091817  0.091057  0  1.021644  0
H  H107  1  0.67008364  0.51786837  0.05761657  1  0.041195  0  0.091837  0.09128  0  1.020833  0
H  H108  1  0.27219307  0.05762719  0.98205418  1  0.04412  0  0.091738  0.091176  0  1.021449  0
H  H109  1  0.81211759  0.44222801  0.51794221  1  0.049096  0  0.091864  0.091502  0  1.022235  0
H  H110  1  0.25417739  0.01785779  0.55775522  1  0.063332  0  0.091827  0.091088  0  1.021586  0
H  H111  1  0.32991646  0.48213028  0.94238084  1  0.041223  0  0.091855  0.091303  0  1.020819  0
H  H112  1  0.80989339  0.92415270  0.07575397  1  0.026362  0  0.093763  0.092  0  0.982368  0
H  H113  1  0.30958598  0.57602026  0.42441685  1  0.024302  0  0.094185  0.092261  0  0.982011  0
H  H114  1  0.88561204  0.92426747  0.42413140  1  0.033671  0  0.093724  0.091411  0  0.98333  0
H  H115  1  0.73422332  0.57556715  0.07571885  1  0.017638  0  0.093961  0.091559  0  0.983342  0
H  H116  1  0.19011077  0.07584595  0.92424829  1  0.026447  0  0.093768  0.092038  0  0.982305  0
H  H117  1  0.69041539  0.42397997  0.57558175  1  0.024321  0  0.094198  0.092333  0  0.981987  0
H  H118  1  0.11438569  0.07573381  0.57586951  1  0.033666  0  0.093718  0.0914  0  0.983425  0
H  H119  1  0.26577680  0.42443202  0.92427990  1  0.017591  0  0.093949  0.0915  0  0.98336  0
H  H120  1  0.32628801  0.27877712  0.90584937  1  0.075721  0  0.109952  0.092842  0  0.994486  0
H  H121  1  0.01132265  0.22124682  0.59434363  1  0.070705  0  0.109535  0.092222  0  0.994765  0
H  H122  1  0.23260616  0.09420449  0.77880041  1  0.063692  0  0.110005  0.092617  0  0.993495  0
H  H123  1  0.60510206  0.40579902  0.72126008  1  0.062598  0  0.110121  0.092536  0  0.993321  0
H  H124  1  0.67370977  0.72122363  0.09415337  1  0.075508  0  0.109962  0.092881  0  0.994463  0
H  H125  1  0.98867811  0.77875393  0.40565613  1  0.070682  0  0.109529  0.092197  0  0.994793  0
H  H126  1  0.76739666  0.90579469  0.22119969  1  0.06372  0  0.109986  0.092543  0  0.993561  0
H  H127  1  0.39489378  0.59420331  0.27873732  1  0.062754  0  0.110186  0.092617  0  0.993266  0
H  H128  1  0.37311896  0.22925406  0.82762976  1  0.02937  0  0.101419  0.083086  0  0.991478  0
H  H129  1  0.93047792  0.27080500  0.67253833  1  0.041649  0  0.101556  0.082998  0  0.990062  0
H  H130  1  0.20099833  0.17240415  0.72928068  1  0.036358  0  0.101704  0.082898  0  0.991167  0
H  H131  1  0.60234300  0.32756918  0.77073740  1  0.031721  0  0.101759  0.08261  0  0.991274  0
H  H132  1  0.62687993  0.77074775  0.17237216  1  0.02932  0  0.101449  0.083128  0  0.99149  0
H  H133  1  0.06952459  0.72919523  0.32745994  1  0.041615  0  0.101558  0.082976  0  0.990084  0
H  H134  1  0.79900362  0.82759450  0.27071974  1  0.036323  0  0.101716  0.082923  0  0.991089  0
H  H135  1  0.39765640  0.67243157  0.22925885  1  0.031716  0  0.101769  0.082673  0  0.991213  0
H  H136  1  0.72674663  0.13221340  0.14159738  1  0.110824  0  0.122609  0.135925  0  0.961486  0
H  H137  1  0.50063949  0.36786382  0.35842618  1  0.112728  0  0.122819  0.135807  0  0.961386  0
H  H138  1  0.86845800  0.85857380  0.63197415  1  0.114658  0  0.122344  0.135216  0  0.961569  0
H  H139  1  0.85883279  0.64146731  0.86790714  1  0.094096  0  0.122519  0.135075  0  0.963024  0
H  H140  1  0.27324739  0.86778577  0.85840667  1  0.110791  0  0.122598  0.135863  0  0.961466  0
H  H141  1  0.49936331  0.63213641  0.64157342  1  0.11278  0  0.122812  0.135787  0  0.961374  0
H  H142  1  0.13154142  0.14142537  0.36802693  1  0.114659  0  0.122348  0.135229  0  0.96157  0
H  H143  1  0.14116897  0.35853187  0.13209078  1  0.094312  0  0.122512  0.135046  0  0.962992  0
H  H144  1  0.62900170  0.21767457  0.14027142  1  0.108673  0  0.129101  0.144629  0  0.947992  0
H  H145  1  0.48704176  0.28239429  0.35982907  1  0.116886  0  0.129037  0.14494  0  0.946225  0
H  H146  1  0.76959151  0.85999116  0.71750207  1  0.11063  0  0.128706  0.144481  0  0.94617  0
H  H147  1  0.84680400  0.64000532  0.78238215  1  0.077733  0  0.129129  0.14501  0  0.946571  0
H  H148  1  0.37099460  0.78232303  0.85973113  1  0.108614  0  0.129085  0.14455  0  0.948027  0
H  H149  1  0.51296025  0.71760593  0.64016969  1  0.116896  0  0.129044  0.144964  0  0.946201  0
H  H150  1  0.23040905  0.14000802  0.28249868  1  0.110651  0  0.128697  0.144491  0  0.946212  0
H  H151  1  0.15319598  0.35999543  0.21761677  1  0.07785  0  0.129143  0.145064  0  0.946447  0
H  H152  1  0.12406790  0.18622494  0.93458958  1  0.071551  0  0.119693  0.126151  0  0.964268  0
H  H153  1  0.74542569  0.31348251  0.56533123  1  0.073172  0  0.120021  0.126315  0  0.963737  0
H  H154  1  0.05900220  0.06508542  0.68644472  1  0.0705  0  0.119625  0.126164  0  0.964264  0
H  H155  1  0.31023908  0.43468923  0.81358125  1  0.072827  0  0.120104  0.126707  0  0.965762  0
H  H156  1  0.87593256  0.81377371  0.06541233  1  0.071522  0  0.119689  0.126151  0  0.964227  0
H  H157  1  0.25457439  0.68651561  0.43467051  1  0.073093  0  0.12004  0.12633  0  0.963704  0
H  H158  1  0.94099903  0.93491271  0.31355670  1  0.070521  0  0.119684  0.126323  0  0.964245  0
H  H159  1  0.68975810  0.56531100  0.18641749  1  0.073014  0  0.120107  0.126695  0  0.965789  0
H  H160  1  0.18202726  0.23481098  0.86101353  1  0.029859  0  0.101848  0.094488  0  1.014668  0
H  H161  1  0.77821821  0.26506821  0.63904551  1  0.031834  0  0.101972  0.094074  0  1.014948  0
H  H162  1  0.04319992  0.13887092  0.73486360  1  0.030962  0  0.101765  0.093768  0  1.014771  0
H  H163  1  0.41681014  0.36103814  0.76507686  1  0.028306  0  0.102093  0.094583  0  1.015412  0
H  H164  1  0.81797152  0.76518820  0.13898737  1  0.029821  0  0.101848  0.094483  0  1.0147  0
H  H165  1  0.22178377  0.73492939  0.36095541  1  0.031845  0  0.101984  0.094113  0  1.014949  0
H  H166  1  0.95680302  0.86112405  0.26513849  1  0.030881  0  0.101734  0.093781  0  1.014757  0
H  H167  1  0.58318707  0.63895893  0.23492587  1  0.0284  0  0.10207  0.094523  0  1.01539  0
H  H168  1  0.15808244  0.03376824  0.18295580  1  0.064237  0  0.109406  0.171726  0  0.964424  0
H  H169  1  0.87448381  0.46620227  0.31712825  1  0.08452  0  0.109754  0.172788  0  0.963771  0
H  H170  1  0.34078267  0.81712479  0.53371816  1  0.06929  0  0.109573  0.172456  0  0.964945  0
H  H171  1  0.19146303  0.68297343  0.96655044  1  0.06922  0  0.110046  0.172858  0  0.964652  0
H  H172  1  0.84191786  0.96622988  0.81704411  1  0.064184  0  0.109408  0.171743  0  0.964385  0
H  H173  1  0.12552035  0.53380006  0.68287136  1  0.084447  0  0.109764  0.172779  0  0.963796  0
H  H174  1  0.65921779  0.18287544  0.46628459  1  0.069331  0  0.109593  0.172491  0  0.96485  0
H  H175  1  0.80853481  0.31702733  0.03344980  1  0.069244  0  0.110047  0.172873  0  0.9646  0
H  H176  1  0.30149266  0.97794151  0.17372477  1  0.074798  0  0.096211  0.15129  0  1.015019  0
H  H177  1  0.95277060  0.52207846  0.32636690  1  0.067881  0  0.096619  0.15175  0  1.015529  0
H  H178  1  0.47486243  0.82637368  0.47783495  1  0.068801  0  0.095959  0.151198  0  1.016356  0
H  H179  1  0.27916925  0.67367249  0.02234621  1  0.067784  0  0.09636  0.151793  0  1.014927  0
H  H180  1  0.69850673  0.02205715  0.82627498  1  0.074684  0  0.096213  0.151304  0  1.014988  0
H  H181  1  0.04723400  0.47792229  0.67363388  1  0.068039  0  0.09664  0.151722  0  1.015563  0
H  H182  1  0.52513710  0.17362655  0.52216630  1  0.068723  0  0.095975  0.151196  0  1.016322  0
H  H183  1  0.72082807  0.32632931  0.97765403  1  0.067718  0  0.096349  0.15177  0  1.014933  0
H  H184  1  0.23814890  0.98521663  0.10587256  1  0.100244  0  0.105593  0.16633  0  0.996146  0
H  H185  1  0.82907853  0.51466176  0.39426887  1  0.052829  0  0.105832  0.16701  0  0.995169  0
H  H186  1  0.34367624  0.89424447  0.48523655  1  0.107881  0  0.105928  0.166596  0  0.996135  0
H  H187  1  0.22344853  0.60576783  0.01480960  1  0.06946  0  0.105724  0.166843  0  0.994954  0
H  H188  1  0.76185178  0.01478202  0.89412753  1  0.100259  0  0.105591  0.166317  0  0.996175  0
H  H189  1  0.17092552  0.48533951  0.60573057  1  0.052786  0  0.105815  0.167001  0  0.995247  0
H  H190  1  0.65632358  0.10575576  0.51476603  1  0.107841  0  0.105948  0.166634  0  0.996037  0
H  H191  1  0.77655186  0.39423240  0.98518998  1  0.069462  0  0.105728  0.166857  0  0.994951  0
H  H192  1  0.57140748  0.90861599  0.10940614  1  0.07606  0  0.106878  0.090352  0  0.97762  0
H  H193  1  0.08953566  0.59134728  0.39036802  1  0.061363  0  0.106636  0.089716  0  0.978595  0
H  H194  1  0.68079663  0.89061677  0.40853357  1  0.066468  0  0.106849  0.0904  0  0.977822  0
H  H195  1  0.48004795  0.60955255  0.09144584  1  0.058486  0  0.106627  0.090383  0  0.976919  0
H  H196  1  0.42859444  0.09138529  0.89059463  1  0.07609  0  0.106867  0.090309  0  0.977661  0
H  H197  1  0.91046498  0.40865243  0.60963156  1  0.061346  0  0.106675  0.089797  0  0.978549  0
H  H198  1  0.31920025  0.10938293  0.59146816  1  0.066404  0  0.106823  0.090389  0  0.977825  0
H  H199  1  0.51995203  0.39044663  0.90855224  1  0.058535  0  0.106623  0.09041  0  0.976895  0
H  H200  1  0.65449569  0.88312370  0.16688272  1  0.020024  0  0.095468  0.070999  0  1.011247  0
H  H201  1  0.20458785  0.61691415  0.33304098  1  0.028361  0  0.095662  0.070927  0  1.012171  0
H  H202  1  0.82135943  0.83319367  0.38301255  1  0.040126  0  0.095885  0.071416  0  1.011834  0
H  H203  1  0.53797433  0.66686421  0.11690635  1  0.012054  0  0.095815  0.071088  0  1.0123  0
H  H204  1  0.34550512  0.11687652  0.83311887  1  0.020088  0  0.095499  0.071067  0  1.01124  0
H  H205  1  0.79541198  0.38308660  0.66695727  1  0.028402  0  0.095689  0.07095  0  1.012185  0
H  H206  1  0.17863823  0.16680603  0.61699002  1  0.040089  0  0.095887  0.071423  0  1.011803  0
H  H207  1  0.46202475  0.33313549  0.88309156  1  0.011989  0  0.095801  0.071064  0  1.012341  0
C  C208  1  0.78932422  0.14652643  0.75982385  1  -0.009393  0  -0.242674  -0.408146  0  3.962579  0
C  C209  1  0.19585717  0.35366217  0.74035936  1  -0.069559  0  -0.242845  -0.40823  0  3.963512  0
C  C210  1  0.54898126  0.24047168  0.64637273  1  -0.031018  0  -0.243184  -0.410026  0  3.964185  0
C  C211  1  0.93570428  0.25954990  0.85355113  1  -0.026056  0  -0.243332  -0.408487  0  3.962861  0
C  C212  1  0.21067482  0.85347379  0.24017790  1  -0.009443  0  -0.242627  -0.408055  0  3.962601  0
C  C213  1  0.80414387  0.64633648  0.25964523  1  -0.069755  0  -0.242887  -0.408293  0  3.963627  0
C  C214  1  0.45101787  0.75952907  0.35362785  1  -0.030771  0  -0.243166  -0.409855  0  3.964083  0
C  C215  1  0.06428827  0.74044980  0.14645008  1  -0.026227  0  -0.243334  -0.408594  0  3.962932  0
C  C216  1  0.69212630  0.16549277  0.82684675  1  -0.029218  0  -0.029967  0.141553  0  4.040452  0
C  C217  1  0.18491019  0.33466743  0.67324397  1  -0.053391  0  -0.029733  0.140883  0  4.03839  0
C  C218  1  0.51912433  0.17335738  0.66531709  1  -0.057968  0  -0.029693  0.142251  0  4.039065  0
C  C219  1  0.85762237  0.32667783  0.83463877  1  -0.028232  0  -0.029625  0.141135  0  4.040427  0
C  C220  1  0.30787219  0.83450641  0.17315282  1  -0.028928  0  -0.029981  0.141589  0  4.040366  0
C  C221  1  0.81508762  0.66533595  0.32675661  1  -0.053253  0  -0.029768  0.140795  0  4.038535  0
C  C222  1  0.48087419  0.82664232  0.33468381  1  -0.058288  0  -0.029664  0.142239  0  4.039047  0
C  C223  1  0.14237097  0.67332397  0.16535978  1  -0.028423  0  -0.029727  0.141188  0  4.040333  0
C  C224  1  0.57931462  0.18340725  0.82709670  1  -0.066866  0  -0.102972  -0.198401  0  3.99617  0
C  C225  1  0.09026576  0.31674584  0.67298091  1  -0.069421  0  -0.103263  -0.198624  0  3.997704  0
C  C226  1  0.40659049  0.17303186  0.68330422  1  -0.066424  0  -0.10355  -0.197869  0  3.99715  0
C  C227  1  0.76267914  0.32699678  0.81671605  1  -0.060321  0  -0.103383  -0.19971  0  3.99637  0
C  C228  1  0.42068436  0.81659192  0.17290238  1  -0.066963  0  -0.102994  -0.19842  0  3.996115  0
C  C229  1  0.90973468  0.68325596  0.32701702  1  -0.069224  0  -0.103263  -0.198651  0  3.997556  0
C  C230  1  0.59340867  0.82696784  0.31669685  1  -0.066437  0  -0.103602  -0.197995  0  3.99711  0
C  C231  1  0.23731481  0.67300450  0.18328134  1  -0.060305  0  -0.103329  -0.199732  0  3.996271  0
C  C232  1  0.48746358  0.19852226  0.88891110  1  -0.047295  0  -0.041642  -0.045482  0  4.037439  0
C  C233  1  0.07527746  0.30153935  0.61120558  1  -0.021564  0  -0.041171  -0.043674  0  4.034646  0
C  C234  1  0.37662343  0.11119889  0.69842077  1  -0.051306  0  -0.041563  -0.046108  0  4.038917  0
C  C235  1  0.68587741  0.38880343  0.80160498  1  -0.056866  0  -0.04163  -0.045361  0  4.034324  0
C  C236  1  0.51253820  0.80147901  0.11108899  1  -0.047397  0  -0.041671  -0.045491  0  4.037473  0
C  C237  1  0.92472375  0.69846193  0.38879184  1  -0.021874  0  -0.041111  -0.043606  0  4.034649  0
C  C238  1  0.62337753  0.88879976  0.30158064  1  -0.051198  0  -0.041552  -0.045966  0  4.038828  0
C  C239  1  0.31411957  0.61119890  0.19839209  1  -0.056806  0  -0.041532  -0.045111  0  4.03413  0
C  C240  1  0.50829303  0.19465800  0.95418223  1  0.544926  0  0.072292  0.236931  0  4.06978  0
C  C241  1  0.15750091  0.30537119  0.54594648  1  0.53014  0  0.071448  0.234962  0  4.070135  0
C  C242  1  0.46283771  0.04597126  0.69450141  1  0.602123  0  0.073204  0.237804  0  4.071146  0
C  C243  1  0.70285908  0.45405642  0.80550847  1  0.561993  0  0.071705  0.237101  0  4.068445  0
C  C244  1  0.49170793  0.80534065  0.04581919  1  0.544937  0  0.07234  0.236973  0  4.069754  0
C  C245  1  0.84250035  0.69462956  0.45405278  1  0.530531  0  0.071408  0.23491  0  4.070316  0
C  C246  1  0.53716558  0.95402897  0.30549769  1  0.602106  0  0.073205  0.237756  0  4.071322  0
C  C247  1  0.29714017  0.54594591  0.19448795  1  0.561964  0  0.07166  0.237015  0  4.068478  0
C  C248  1  0.62135020  0.18245596  0.95439408  1  -0.011446  0  -0.035667  -0.032486  0  3.996912  0
C  C249  1  0.25856957  0.31758227  0.54574333  1  0.009351  0  -0.036892  -0.034825  0  4.002661  0
C  C250  1  0.57611170  0.04583004  0.68221249  1  -0.05233  0  -0.037082  -0.034101  0  4.002213  0
C  C251  1  0.80373623  0.45421298  0.81773378  1  -0.007439  0  -0.035741  -0.034359  0  4.000038  0
C  C252  1  0.37865099  0.81754321  0.04560684  1  -0.011325  0  -0.035679  -0.032498  0  3.997063  0
C  C253  1  0.74142665  0.68242059  0.45425424  1  0.009381  0  -0.036811  -0.034662  0  4.002415  0
C  C254  1  0.42389087  0.95416966  0.31778761  1  -0.052305  0  -0.037099  -0.034155  0  4.002265  0
C  C255  1  0.19626218  0.54578777  0.18226346  1  -0.007437  0  -0.035783  -0.034364  0  4.000058  0
C  C256  1  0.71079755  0.16647871  0.89143834  1  -0.093565  0  -0.092915  -0.185629  0  3.961806  0
C  C257  1  0.26914888  0.33365642  0.60867582  1  -0.082733  0  -0.092309  -0.182225  0  3.959594  0
C  C258  1  0.60253048  0.10883159  0.66623245  1  -0.071014  0  -0.092941  -0.185733  0  3.963907  0
C  C259  1  0.87725100  0.39125264  0.83373390  1  -0.085463  0  -0.093849  -0.1849  0  3.960875  0
C  C260  1  0.28920449  0.83352046  0.10856092  1  -0.093738  0  -0.092897  -0.185693  0  3.961995  0
C  C261  1  0.73084903  0.66634591  0.39132276  1  -0.082818  0  -0.092353  -0.182226  0  3.959611  0
C  C262  1  0.39746967  0.89116968  0.33376847  1  -0.070866  0  -0.093036  -0.185767  0  3.963974  0
C  C263  1  0.12274706  0.60874811  0.16626451  1  -0.085813  0  -0.093893  -0.185076  0  3.960886  0
C  C264  1  0.64400158  0.19344503  0.02046932  1  0.256538  0  -0.068061  -0.105878  0  3.914086  0
C  C265  1  0.35814029  0.30662132  0.47962334  1  0.231532  0  -0.069038  -0.107874  0  3.914503  0
C  C266  1  0.66473624  0.97974601  0.69325532  1  0.211584  0  -0.068182  -0.105425  0  3.913635  0
C  C267  1  0.83738679  0.52028107  0.80667599  1  0.219051  0  -0.068318  -0.106024  0  3.914412  0
C  C268  1  0.35599924  0.80655363  0.97953143  1  0.256499  0  -0.068075  -0.105907  0  3.913999  0
C  C269  1  0.64185995  0.69338048  0.52037642  1  0.231524  0  -0.069129  -0.108087  0  3.914809  0
C  C270  1  0.33526720  0.02025422  0.30674445  1  0.212026  0  -0.068164  -0.105444  0  3.913538  0
C  C271  1  0.16261261  0.47972125  0.19332110  1  0.218992  0  -0.068311  -0.106057  0  3.914556  0
C  C272  1  0.68560721  0.07014628  0.05474611  1  0.284427  0  -0.069619  -0.060528  0  3.882093  0
C  C273  1  0.31072380  0.42995646  0.44533582  1  0.234259  0  -0.069338  -0.060991  0  3.881168  0
C  C274  1  0.74039586  0.94535093  0.56999682  1  0.203039  0  -0.068781  -0.058053  0  3.881894  0
C  C275  1  0.75577227  0.55469415  0.92990128  1  0.242041  0  -0.069597  -0.061306  0  3.880302  0
C  C276  1  0.31439471  0.92985342  0.94525381  1  0.284391  0  -0.069616  -0.060558  0  3.882081  0
C  C277  1  0.68927795  0.57004429  0.55466294  1  0.234524  0  -0.069348  -0.06101  0  3.881196  0
C  C278  1  0.25960592  0.05464877  0.43000244  1  0.20323  0  -0.068825  -0.058107  0  3.881855  0
C  C279  1  0.24422741  0.44530660  0.07009630  1  0.242071  0  -0.069641  -0.0613  0  3.880165  0
C  C280  1  0.65723901  0.01349122  0.10695319  1  -0.023184  0  -0.171759  -0.173149  0  3.913125  0
C  C281  1  0.27767691  0.48659828  0.39313556  1  -0.039318  0  -0.17146  -0.172634  0  3.912418  0
C  C282  1  0.76391908  0.89315810  0.51336276  1  0.000133  0  -0.172842  -0.175415  0  3.91505  0
C  C283  1  0.67051556  0.60685116  0.98652940  1  -0.007491  0  -0.172668  -0.175043  0  3.912218  0
C  C284  1  0.34276422  0.98650743  0.89304757  1  -0.023245  0  -0.171796  -0.173202  0  3.913116  0
C  C285  1  0.72232560  0.51340194  0.60686270  1  -0.039256  0  -0.171469  -0.172667  0  3.912313  0
C  C286  1  0.23608197  0.10684107  0.48663749  1  0.000108  0  -0.172828  -0.175382  0  3.915055  0
C  C287  1  0.32948492  0.39314802  0.01346818  1  -0.007497  0  -0.172694  -0.175116  0  3.912139  0
C  C288  1  0.72187959  0.94043027  0.07383072  1  -0.01412  0  -0.165471  -0.164535  0  3.924902  0
C  C289  1  0.23604197  0.55969349  0.42620529  1  -0.035332  0  -0.166054  -0.164925  0  3.924853  0
C  C290  1  0.79567892  0.92624108  0.44032008  1  -0.053474  0  -0.165266  -0.162442  0  3.925878  0
C  C291  1  0.66231781  0.57373563  0.05956064  1  -0.024551  0  -0.165371  -0.162498  0  3.925773  0
C  C292  1  0.27812376  0.05956943  0.92617022  1  -0.014076  0  -0.165448  -0.164561  0  3.924955  0
C  C293  1  0.76395940  0.44030674  0.57379330  1  -0.035293  0  -0.166088  -0.165123  0  3.924907  0
C  C294  1  0.20431655  0.07375863  0.55968064  1  -0.053755  0  -0.165303  -0.162508  0  3.92588  0
C  C295  1  0.33768002  0.42626460  0.94043827  1  -0.024606  0  -0.165329  -0.162405  0  3.925605  0
C  C296  1  0.36876058  0.22540711  0.88364365  1  0.247304  0  -0.069987  -0.106993  0  3.932294  0
C  C297  1  0.97817079  0.27463829  0.61651026  1  0.233183  0  -0.069519  -0.105577  0  3.928683  0
C  C298  1  0.25269123  0.11639385  0.72541862  1  0.252927  0  -0.070172  -0.105138  0  3.929184  0
C  C299  1  0.59412233  0.38358055  0.77462321  1  0.254252  0  -0.070326  -0.10472  0  3.927616  0
C  C300  1  0.63123933  0.77459364  0.11635777  1  0.247566  0  -0.070023  -0.107111  0  3.932396  0
C  C301  1  0.02183021  0.72536298  0.38348900  1  0.233192  0  -0.069526  -0.105551  0  3.928724  0
C  C302  1  0.74730767  0.88360480  0.27458162  1  0.252845  0  -0.070183  -0.105175  0  3.92922  0
C  C303  1  0.40587634  0.61641968  0.22537404  1  0.254222  0  -0.070471  -0.104997  0  3.927818  0
C  C304  1  0.63936880  0.16110758  0.14117267  1  0.22145  0  -0.065812  -0.236124  0  3.866165  0
C  C305  1  0.44172654  0.33896160  0.35890989  1  0.208  0  -0.064609  -0.233527  0  3.862436  0
C  C306  1  0.78070292  0.85901555  0.66096385  1  0.210289  0  -0.064706  -0.233389  0  3.863074  0
C  C307  1  0.80047473  0.64100385  0.83892370  1  0.259653  0  -0.06506  -0.233705  0  3.864343  0
C  C308  1  0.36062747  0.83889107  0.85882939  1  0.221443  0  -0.065792  -0.235963  0  3.865859  0
C  C309  1  0.55827673  0.66103810  0.64108788  1  0.208001  0  -0.064527  -0.233438  0  3.862483  0
C  C310  1  0.21929798  0.14098520  0.33903657  1  0.210312  0  -0.064733  -0.233563  0  3.863223  0
C  C311  1  0.19952583  0.35899743  0.16107355  1  0.25936  0  -0.065041  -0.233655  0  3.864114  0
C  C312  1  0.55566680  0.14791659  0.20975447  1  1.557123  0  0.218  0.62524  0  4.107184  0
C  C313  1  0.41330765  0.35210379  0.29033879  1  1.576141  0  0.215296  0.618714  0  4.114419  0
C  C314  1  0.76552375  0.79038340  0.64789741  1  1.564017  0  0.217074  0.623203  0  4.109608  0
C  C315  1  0.70361124  0.70962765  0.85196223  1  1.557928  0  0.217242  0.622028  0  4.109622  0
C  C316  1  0.44432930  0.85208311  0.79024643  1  1.557211  0  0.217906  0.625158  0  4.10709  0
C  C317  1  0.58669396  0.64789696  0.70965930  1  1.576057  0  0.215227  0.618696  0  4.114511  0
C  C318  1  0.23447348  0.20961787  0.35210399  1  1.563815  0  0.217091  0.623235  0  4.10956  0
C  C319  1  0.29639156  0.29037258  0.14803737  1  1.558402  0  0.217211  0.622006  0  4.1096  0
C  C320  1  0.17800323  0.22068295  0.91603808  1  0.244947  0  -0.078468  -0.241248  0  3.91023  0
C  C321  1  0.81518962  0.27912452  0.58403620  1  0.231005  0  -0.078392  -0.240112  0  3.908808  0
C  C322  1  0.09430369  0.08384459  0.72084044  1  0.225372  0  -0.077541  -0.238709  0  3.90732  0
C  C323  1  0.39865646  0.41606684  0.77919060  1  0.242563  0  -0.079173  -0.242415  0  3.911992  0
C  C324  1  0.82199796  0.77931622  0.08396284  1  0.244652  0  -0.07847  -0.241262  0  3.9102  0
C  C325  1  0.18481152  0.72087518  0.41596288  1  0.231065  0  -0.078439  -0.24015  0  3.908727  0
C  C326  1  0.90569750  0.91615248  0.27916397  1  0.225623  0  -0.077539  -0.238942  0  3.907414  0
C  C327  1  0.60134358  0.58393023  0.22080848  1  0.242285  0  -0.079019  -0.242192  0  3.911831  0
C  C328  1  0.11950557  0.28811375  0.96160869  1  1.594823  0  0.188738  0.585218  0  4.222236  0
C  C329  1  0.87000947  0.21166702  0.53855219  1  1.600693  0  0.18926  0.586167  0  4.220806  0
C  C330  1  0.08165654  0.03841118  0.78833353  1  1.602505  0  0.191222  0.587757  0  4.21828  0
C  C331  1  0.40782205  0.46161068  0.71177021  1  1.594372  0  0.191361  0.587709  0  4.219499  0
C  C332  1  0.88049667  0.71188490  0.03839307  1  1.595732  0  0.188804  0.585308  0  4.222192  0
C  C333  1  0.12998815  0.78833320  0.46144855  1  1.600711  0  0.189275  0.586162  0  4.220804  0
C  C334  1  0.91833561  0.96159062  0.21167351  1  1.603432  0  0.191277  0.587897  0  4.218204  0
C  C335  1  0.59218420  0.53838377  0.28822640  1  1.593901  0  0.191352  0.587746  0  4.21959  0
C  C336  1  0.28771540  0.07472480  0.11483281  1  1.53794  0  0.22386  0.703225  0  4.100517  0
C  C337  1  0.97729029  0.42523276  0.38516296  1  1.54094  0  0.224459  0.704469  0  4.098443  0
C  C338  1  0.40253657  0.88518446  0.57466817  1  1.531151  0  0.225746  0.706557  0  4.096642  0
C  C339  1  0.36228680  0.61501428  0.92540359  1  1.543956  0  0.223748  0.702137  0  4.098659  0
C  C340  1  0.71228542  0.92527385  0.88516794  1  1.537982  0  0.22391  0.703267  0  4.100316  0
C  C341  1  0.02271263  0.57476851  0.61483681  1  1.541352  0  0.224303  0.704179  0  4.09853  0
C  C342  1  0.59746325  0.11481576  0.42533441  1  1.531096  0  0.225718  0.706554  0  4.096799  0
C  C343  1  0.63771140  0.38498804  0.07459632  1  1.543941  0  0.22376  0.7021  0  4.098678  0
C  C344  1  0.24491780  0.01405237  0.14685665  1  -0.094491  0  -0.239673  -0.528416  0  3.879845  0
C  C345  1  0.90558048  0.48589482  0.35321583  1  -0.069303  0  -0.24097  -0.531087  0  3.878612  0
C  C346  1  0.39150067  0.85323369  0.51401056  1  -0.104753  0  -0.239968  -0.529744  0  3.881512  0
C  C347  1  0.25877924  0.64688375  0.98611953  1  -0.071835  0  -0.240424  -0.530206  0  3.8788  0
C  C348  1  0.75508287  0.98594628  0.85314343  1  -0.09429  0  -0.23969  -0.528454  0  3.879768  0
C  C349  1  0.09442471  0.51410646  0.64678328  1  -0.069058  0  -0.240969  -0.531008  0  3.878656  0
C  C350  1  0.60849889  0.14676706  0.48599202  1  -0.104751  0  -0.239999  -0.529786  0  3.881296  0
C  C351  1  0.74122012  0.35311753  0.01388055  1  -0.071774  0  -0.240506  -0.530323  0  3.878695  0
C  C352  1  0.65969834  0.88822061  0.11072850  1  0.250107  0  -0.070521  -0.049441  0  3.872774  0
C  C353  1  0.15858774  0.61183871  0.38916812  1  0.254177  0  -0.070246  -0.048519  0  3.872644  0
C  C354  1  0.77035301  0.88934065  0.38810474  1  0.238608  0  -0.071216  -0.050435  0  3.875292  0
C  C355  1  0.54805125  0.61073766  0.11181851  1  0.277439  0  -0.071039  -0.050984  0  3.873363  0
C  C356  1  0.34030437  0.11177909  0.88927227  1  0.249994  0  -0.070546  -0.0495  0  3.872895  0
C  C357  1  0.84141314  0.38816151  0.61083097  1  0.254185  0  -0.070318  -0.048586  0  3.872609  0
C  C358  1  0.22964795  0.11065800  0.61189667  1  0.238678  0  -0.071234  -0.050483  0  3.875172  0
C  C359  1  0.45194914  0.38926099  0.88818023  1  0.277506  0  -0.071045  -0.051038  0  3.873326  0
N  N360  1  0.61661911  0.14326833  0.07882546  1  -1.0129  0  -0.336092  -0.108188  0  3.498111  0
N  N361  1  0.33885398  0.35682699  0.42127363  1  -1.002164  0  -0.336544  -0.109689  0  3.496186  0
N  N362  1  0.69557278  0.92133450  0.64313452  1  -0.991611  0  -0.336218  -0.109983  0  3.497239  0
N  N363  1  0.75985219  0.57869790  0.85679167  1  -1.010134  0  -0.336539  -0.108826  0  3.497587  0
N  N364  1  0.38338031  0.85673085  0.92117561  1  -1.012908  0  -0.336077  -0.108077  0  3.497974  0
N  N365  1  0.66114801  0.64317429  0.57872463  1  -1.002518  0  -0.336556  -0.109706  0  3.496363  0
N  N366  1  0.30442862  0.07866625  0.35686541  1  -0.991782  0  -0.336181  -0.109735  0  3.496931  0
N  N367  1  0.24014752  0.42130337  0.14320724  1  -1.01009  0  -0.336587  -0.10892  0  3.497592  0
N  N368  1  0.29259927  0.18281732  0.92112052  1  -1.004713  0  -0.345353  -0.11813  0  3.527899  0
N  N369  1  0.89678828  0.31712521  0.57901262  1  -1.009099  0  -0.346289  -0.120412  0  3.530041  0
N  N370  1  0.21390261  0.07884235  0.68292303  1  -1.006486  0  -0.346555  -0.121484  0  3.529782  0
N  N371  1  0.47531158  0.42109799  0.81714840  1  -1.018705  0  -0.345126  -0.118273  0  3.526591  0
N  N372  1  0.70740193  0.81718186  0.07888040  1  -1.004672  0  -0.345334  -0.118119  0  3.527873  0
N  N373  1  0.10321159  0.68287450  0.42098613  1  -1.009068  0  -0.346306  -0.120405  0  3.530069  0
N  N374  1  0.78609620  0.92115577  0.31707837  1  -1.006583  0  -0.346596  -0.121526  0  3.529967  0
N  N375  1  0.52468700  0.57890171  0.18285000  1  -1.018628  0  -0.345147  -0.118398  0  3.526738  0
O  O376  1  0.42293006  0.20533144  0.01534695  1  -1.184484  0  -0.352574  -0.563168  0  2.543495  0
O  O377  1  0.14389444  0.29465499  0.48479691  1  -1.180542  0  -0.35199  -0.561929  0  2.542561  0
O  O378  1  0.43863778  0.98481630  0.70526817  1  -1.18058  0  -0.35221  -0.563035  0  2.545205  0
O  O379  1  0.62815915  0.51523963  0.79482270  1  -1.186359  0  -0.352114  -0.563351  0  2.543948  0
O  O380  1  0.57707020  0.79466931  0.98465331  1  -1.184435  0  -0.35259  -0.563192  0  2.543532  0
O  O381  1  0.85610295  0.70534523  0.51519999  1  -1.180911  0  -0.351936  -0.561865  0  2.54282  0
O  O382  1  0.56136242  0.01518287  0.29473374  1  -1.180555  0  -0.352126  -0.562928  0  2.545327  0
O  O383  1  0.37183611  0.48476059  0.20517552  1  -1.186316  0  -0.352095  -0.563298  0  2.543938  0
O  O384  1  0.46126855  0.14264675  0.20985016  1  -1.165603  0  -0.300763  -0.528866  0  2.331297  0
O  O385  1  0.31367153  0.35745133  0.29027013  1  -1.167669  0  -0.299815  -0.526021  0  2.332387  0
O  O386  1  0.67124336  0.79029283  0.64255065  1  -1.163232  0  -0.30057  -0.528038  0  2.332357  0
O  O387  1  0.60387950  0.70972499  0.85736144  1  -1.161604  0  -0.300815  -0.527736  0  2.332538  0
O  O388  1  0.53872855  0.85735138  0.79014890  1  -1.165581  0  -0.300731  -0.528834  0  2.331338  0
O  O389  1  0.68633075  0.64254837  0.70972863  1  -1.167644  0  -0.299823  -0.526047  0  2.332329  0
O  O390  1  0.32875542  0.20970792  0.35745110  1  -1.162899  0  -0.300608  -0.52807  0  2.332219  0
O  O391  1  0.39612254  0.29027576  0.14263865  1  -1.161663  0  -0.300778  -0.527729  0  2.332574  0
O  O392  1  0.58274189  0.14368692  0.26591927  1  -1.170475  0  -0.313385  -0.538033  0  2.266949  0
O  O393  1  0.49229086  0.35619483  0.23415843  1  -1.179413  0  -0.312745  -0.535554  0  2.269965  0
O  O394  1  0.84863394  0.73419946  0.64377894  1  -1.173299  0  -0.312915  -0.537094  0  2.266595  0
O  O395  1  0.72650339  0.76578750  0.85605733  1  -1.169154  0  -0.313188  -0.536623  0  2.266587  0
O  O396  1  0.41724888  0.85631436  0.73408293  1  -1.170483  0  -0.313316  -0.537994  0  2.266917  0
O  O397  1  0.50771240  0.64380802  0.76584101  1  -1.179246  0  -0.312694  -0.53553  0  2.27005  0
O  O398  1  0.15136592  0.26580181  0.35622065  1  -1.173425  0  -0.312932  -0.537096  0  2.26664  0
O  O399  1  0.27349941  0.23421273  0.14394227  1  -1.169543  0  -0.313201  -0.536647  0  2.26651  0
O  O400  1  0.05022112  0.33791973  0.94234966  1  -1.177858  0  -0.335072  -0.534042  0  2.076489  0
O  O401  1  0.83154242  0.16175329  0.55782341  1  -1.172232  0  -0.335453  -0.534448  0  2.07525  0
O  O402  1  0.99335204  0.05775723  0.83826123  1  -1.165769  0  -0.336984  -0.535846  0  2.073582  0
O  O403  1  0.38864970  0.44231623  0.66183554  1  -1.169243  0  -0.336285  -0.535058  0  2.073602  0
O  O404  1  0.94977964  0.66208102  0.05765010  1  -1.177954  0  -0.335069  -0.534059  0  2.076661  0
O  O405  1  0.16845791  0.83824747  0.44217435  1  -1.172241  0  -0.335549  -0.53456  0  2.075127  0
O  O406  1  0.00664992  0.94223669  0.16173668  1  -1.166594  0  -0.337166  -0.536092  0  2.073234  0
O  O407  1  0.61136518  0.55767401  0.33815776  1  -1.168886  0  -0.3363  -0.535096  0  2.073895  0
O  O408  1  0.14679441  0.28647297  0.01892799  1  -1.162325  0  -0.349078  -0.573592  0  2.266466  0
O  O409  1  0.95291387  0.21338455  0.48126473  1  -1.159926  0  -0.348781  -0.573807  0  2.266292  0
O  O410  1  0.16625470  0.98106368  0.78659494  1  -1.169664  0  -0.349519  -0.574451  0  2.266204  0
O  O411  1  0.43340746  0.51891416  0.71353539  1  -1.160495  0  -0.349925  -0.574581  0  2.268643  0
O  O412  1  0.85320378  0.71352568  0.98107458  1  -1.162819  0  -0.349153  -0.57365  0  2.266331  0
O  O413  1  0.04708838  0.78661620  0.51873353  1  -1.159949  0  -0.348685  -0.573673  0  2.26643  0
O  O414  1  0.83375472  0.01893497  0.21340935  1  -1.169915  0  -0.349485  -0.574388  0  2.266464  0
O  O415  1  0.56659140  0.48108186  0.28646134  1  -1.160355  0  -0.349986  -0.574615  0  2.268489  0
O  O416  1  0.22481643  0.12203783  0.08501418  1  -1.167151  0  -0.318622  -0.542058  0  2.312179  0
O  O417  1  0.93203922  0.37790185  0.41508852  1  -1.168461  0  -0.319541  -0.542922  0  2.30954  0
O  O418  1  0.30996244  0.91516648  0.62197243  1  -1.166581  0  -0.319613  -0.543465  0  2.309514  0
O  O419  1  0.34686934  0.58515308  0.87804290  1  -1.172661  0  -0.3188  -0.541682  0  2.307513  0
O  O420  1  0.77518453  0.87796082  0.91498723  1  -1.167324  0  -0.318662  -0.5421  0  2.312116  0
O  O421  1  0.06796317  0.62209890  0.58491041  1  -1.168556  0  -0.31944  -0.542731  0  2.309638  0
O  O422  1  0.69003645  0.08483533  0.37802949  1  -1.16654  0  -0.319605  -0.54349  0  2.309629  0
O  O423  1  0.65312889  0.41484819  0.12195751  1  -1.172802  0  -0.318784  -0.54165  0  2.307619  0
O  O424  1  0.38334210  0.07490561  0.11864422  1  -1.188831  0  -0.320746  -0.561439  0  2.305769  0
O  O425  1  0.07694183  0.42510438  0.38122145  1  -1.184447  0  -0.320158  -0.561362  0  2.307213  0
O  O426  1  0.50209617  0.88113473  0.57482678  1  -1.179665  0  -0.321213  -0.562807  0  2.306302  0
O  O427  1  0.45801199  0.61896948  0.92525422  1  -1.181029  0  -0.320451  -0.560621  0  2.30889  0
O  O428  1  0.61666012  0.92509093  0.88135537  1  -1.188914  0  -0.32073  -0.561405  0  2.3057  0
O  O429  1  0.92305948  0.57489585  0.61877964  1  -1.185039  0  -0.320131  -0.561266  0  2.307119  0
O  O430  1  0.49790362  0.11886655  0.42517531  1  -1.179643  0  -0.321241  -0.562848  0  2.306335  0
O  O431  1  0.54198847  0.38103285  0.07474504  1  -1.181012  0  -0.320422  -0.560543  0  2.308953  0
