# generated using pymatgen
data_FeH14C22(NO2)2
_symmetry_space_group_name_H-M   'P 1'
_cell_length_a   11.42004303
_cell_length_b   16.36076320
_cell_length_c   24.44686018
_cell_angle_alpha   89.99997161
_cell_angle_beta   89.99918716
_cell_angle_gamma   89.99957003
_symmetry_Int_Tables_number   1
_chemical_formula_structural   FeH14C22(NO2)2
_chemical_formula_sum   'Fe8 H112 C176 N16 O32'
_cell_volume   4567.66650590
_cell_formula_units_Z   8
loop_
 _symmetry_equiv_pos_site_id
 _symmetry_equiv_pos_as_xyz
  1  'x, y, z'
loop_
 _atom_site_type_symbol
 _atom_site_label
 _atom_site_symmetry_multiplicity
 _atom_site_fract_x
 _atom_site_fract_y
 _atom_site_fract_z
 _atom_site_occupancy
 _atom_site_pbe_bader_charge
 _atom_site_pbe_bader_spin_density
 _atom_site_pbe_cm5_charge
 _atom_site_pbe_ddec_charge
 _atom_site_pbe_ddec_spin_density
 _atom_site_pbe_ddec_sum_bond_order
 _atom_site_pbe_magmom
Fe  Fe0  1  0.35375492  0.65430758  0.54417944  1  1.43813  3.701759  0.735065  0.896762  3.948819  2.630109  3.658
Fe  Fe1  1  0.64624674  0.65430970  0.95581987  1  1.438225  3.701749  0.735084  0.896843  3.94882  2.630051  3.658
Fe  Fe2  1  0.64624634  0.84569537  0.04417966  1  1.438166  3.701754  0.735139  0.896998  3.94882  2.629637  3.658
Fe  Fe3  1  0.35375874  0.84569599  0.45582164  1  1.438055  3.701751  0.735073  0.896862  3.948813  2.629791  3.658
Fe  Fe4  1  0.64624629  0.34569226  0.45581911  1  1.43824  3.701738  0.735065  0.896765  3.948814  2.63011  3.658
Fe  Fe5  1  0.35374923  0.34569258  0.04417867  1  1.43823  3.701755  0.735084  0.896816  3.948824  2.629914  3.658
Fe  Fe6  1  0.35375575  0.15430385  0.95582134  1  1.438121  3.701748  0.735086  0.896841  3.948807  2.629823  3.658
Fe  Fe7  1  0.64624335  0.15430629  0.54417854  1  1.437953  3.70177  0.73511  0.896906  3.948818  2.629761  3.658
H  H8  1  0.55463560  0.56070019  0.48472616  1  0.167096  0.001068  0.122422  0.103384  3.1e-05  1.010894  0.001
H  H9  1  0.44536814  0.56070921  0.01527646  1  0.167043  0.001067  0.122383  0.103342  3.1e-05  1.010956  0.001
H  H10  1  0.44537601  0.93930365  0.98472686  1  0.166786  0.001067  0.122394  0.103341  3.1e-05  1.010923  0.001
H  H11  1  0.55462874  0.93930476  0.51527358  1  0.166958  0.001068  0.12241  0.103326  3.1e-05  1.010928  0.001
H  H12  1  0.44536737  0.43929232  0.51527525  1  0.167009  0.001068  0.122392  0.103322  3.1e-05  1.010995  0.001
H  H13  1  0.55462607  0.43929796  0.98472085  1  0.166788  0.001068  0.122395  0.103361  3.1e-05  1.010911  0.001
H  H14  1  0.55462608  0.06069496  0.01527659  1  0.166873  0.001067  0.122397  0.103316  3.1e-05  1.010859  0.001
H  H15  1  0.44537422  0.06069691  0.48472619  1  0.166797  0.001067  0.122392  0.103328  3.1e-05  1.010979  0.001
H  H16  1  0.76673466  0.55439674  0.48422068  1  0.109875  0.000607  0.110204  0.123825  0.000123  1.024572  0.0
H  H17  1  0.23326826  0.55440505  0.01578194  1  0.110659  0.000607  0.110225  0.123792  0.000123  1.024594  0.0
H  H18  1  0.23327871  0.94561138  0.98422117  1  0.109945  0.000607  0.110252  0.123899  0.000123  1.02454  0.0
H  H19  1  0.76672598  0.94561748  0.51577723  1  0.109853  0.000607  0.110204  0.123864  0.000123  1.024503  0.0
H  H20  1  0.23326918  0.44559637  0.51578359  1  0.110606  0.000607  0.110269  0.123848  0.000123  1.024558  0.0
H  H21  1  0.76672595  0.44560029  0.98421538  1  0.110551  0.000607  0.110285  0.123909  0.000123  1.024516  0.0
H  H22  1  0.76672513  0.05438479  0.01578065  1  0.109779  0.000607  0.110229  0.123968  0.000123  1.024442  0.0
H  H23  1  0.23327699  0.05438786  0.48422254  1  0.109946  0.000607  0.110199  0.123836  0.000123  1.024574  0.0
H  H24  1  0.76666179  0.75543255  0.60064501  1  0.07646  0.000851  0.108574  0.114319  0.000372  1.002298  0.0
H  H25  1  0.23333442  0.75543385  0.89935386  1  0.076403  0.000852  0.108559  0.114297  0.000372  1.002312  0.0
H  H26  1  0.23333602  0.74458319  0.10065170  1  0.076447  0.000851  0.108512  0.114209  0.000372  1.002341  0.0
H  H27  1  0.76667013  0.74458472  0.39934840  1  0.076523  0.000851  0.108499  0.114188  0.000372  1.002342  0.0
H  H28  1  0.23333680  0.24456545  0.39935476  1  0.076439  0.000851  0.108564  0.114302  0.000372  1.002324  0.0
H  H29  1  0.76665629  0.24456293  0.10064182  1  0.076544  0.000851  0.108577  0.114285  0.000372  1.002322  0.0
H  H30  1  0.76666782  0.25541237  0.89934889  1  0.076531  0.000851  0.108505  0.11418  0.000372  1.002361  0.0
H  H31  1  0.23332758  0.25541267  0.60065668  1  0.076548  0.000851  0.108526  0.114284  0.000372  1.002379  0.0
H  H32  1  0.55070908  0.74969623  0.59778319  1  0.109666  0.001068  0.118747  0.091272  -9e-06  1.004789  0.001
H  H33  1  0.44928893  0.74970127  0.90221526  1  0.109687  0.001068  0.118772  0.091341  -9e-06  1.004661  0.001
H  H34  1  0.44928881  0.75031707  0.09779172  1  0.10968  0.001069  0.11876  0.091316  -8e-06  1.004683  0.001
H  H35  1  0.55071904  0.75031975  0.40221166  1  0.10988  0.001069  0.118724  0.09129  -8e-06  1.004787  0.001
H  H36  1  0.44928950  0.25029872  0.40221617  1  0.109692  0.001068  0.11878  0.091341  -9e-06  1.004658  0.001
H  H37  1  0.55070177  0.25030346  0.09778123  1  0.109761  0.001068  0.118793  0.091341  -9e-06  1.004691  0.001
H  H38  1  0.55071503  0.24967910  0.90220969  1  0.109847  0.001069  0.11871  0.091239  -8e-06  1.004748  0.001
H  H39  1  0.44928130  0.24967887  0.59779302  1  0.10978  0.001069  0.118724  0.091251  -8e-06  1.004686  0.001
H  H40  1  0.93784006  0.58618027  0.46707925  1  0.093539  0.000715  0.111339  0.119478  0.000334  1.000783  0.0
H  H41  1  0.06216340  0.58618397  0.03291844  1  0.09359  0.000715  0.111353  0.119489  0.000334  1.00084  0.0
H  H42  1  0.06216770  0.91382970  0.96708089  1  0.093473  0.000715  0.111358  0.119477  0.000334  1.000894  0.0
H  H43  1  0.93783382  0.91382877  0.53292078  1  0.093456  0.000715  0.111381  0.11951  0.000334  1.00082  0.0
H  H44  1  0.06216028  0.41381835  0.53292133  1  0.093573  0.000715  0.111331  0.119462  0.000334  1.000804  0.0
H  H45  1  0.93783782  0.41382015  0.96707805  1  0.093572  0.000715  0.111365  0.11956  0.000334  1.000686  0.0
H  H46  1  0.93783264  0.08617136  0.03292379  1  0.093371  0.000715  0.111382  0.119508  0.000334  1.000774  0.0
H  H47  1  0.06216739  0.08617107  0.46708062  1  0.093492  0.000715  0.111358  0.119471  0.000334  1.000818  0.0
H  H48  1  0.15411530  0.58645250  0.47005157  1  0.10145  0.000931  0.117975  0.090466  -0.000213  1.012536  0.001
H  H49  1  0.84589079  0.58645511  0.02994735  1  0.10152  0.000931  0.118008  0.090446  -0.000213  1.012621  0.001
H  H50  1  0.84589150  0.91355502  0.97004798  1  0.101349  0.000931  0.117943  0.090401  -0.000213  1.012474  0.001
H  H51  1  0.15411090  0.91355030  0.52995451  1  0.100978  0.00093  0.11801  0.090446  -0.000213  1.012414  0.001
H  H52  1  0.84588591  0.41354612  0.52994860  1  0.101442  0.000931  0.118008  0.090478  -0.000213  1.012534  0.001
H  H53  1  0.15411130  0.41354656  0.97005446  1  0.101548  0.000931  0.118002  0.090469  -0.000213  1.012558  0.001
H  H54  1  0.15410972  0.08644848  0.02995547  1  0.100939  0.000931  0.117973  0.090399  -0.000213  1.01247  0.001
H  H55  1  0.84589031  0.08644771  0.47004771  1  0.101023  0.00093  0.117957  0.090426  -0.000213  1.012441  0.001
H  H56  1  0.15921047  0.71885395  0.61428151  1  0.109457  0.001019  0.120122  0.092853  -0.000123  0.996255  0.001
H  H57  1  0.84079050  0.71886122  0.88572023  1  0.109435  0.001018  0.120142  0.092889  -0.000123  0.996164  0.001
H  H58  1  0.84077904  0.78116423  0.11428332  1  0.109059  0.00102  0.120071  0.092809  -0.000122  0.996141  0.001
H  H59  1  0.15922497  0.78116715  0.38571759  1  0.109045  0.001019  0.12008  0.092844  -0.000122  0.996202  0.001
H  H60  1  0.84078987  0.28114772  0.38571867  1  0.109464  0.001019  0.120119  0.092881  -0.000123  0.996239  0.001
H  H61  1  0.15920371  0.28114107  0.11428036  1  0.109525  0.001019  0.120167  0.092915  -0.000123  0.99621  0.001
H  H62  1  0.15922042  0.21882950  0.88571849  1  0.108859  0.001019  0.120091  0.092844  -0.000122  0.996249  0.001
H  H63  1  0.84077537  0.21883452  0.61428259  1  0.109018  0.001019  0.12007  0.092836  -0.000122  0.996164  0.001
H  H64  1  0.94274859  0.72132059  0.61940757  1  0.082334  0.000853  0.110038  0.115535  0.000469  0.998202  0.0
H  H65  1  0.05725061  0.72132711  0.88059212  1  0.08247  0.000852  0.109997  0.11546  0.000469  0.99825  0.0
H  H66  1  0.05723902  0.77870186  0.11941338  1  0.082922  0.000852  0.109948  0.115418  0.000469  0.99814  0.0
H  H67  1  0.94276677  0.77870370  0.38058548  1  0.082992  0.000852  0.109954  0.115431  0.000469  0.998146  0.0
H  H68  1  0.05724913  0.27867925  0.38059179  1  0.082338  0.000853  0.110002  0.115482  0.000469  0.998119  0.0
H  H69  1  0.94274448  0.27867028  0.11940478  1  0.054987  0.000858  0.110025  0.115503  0.000469  0.998221  0.0
H  H70  1  0.94276219  0.22129431  0.88058966  1  0.05533  0.000858  0.110002  0.115473  0.000469  0.998128  0.0
H  H71  1  0.05723357  0.22129858  0.61941388  1  0.082957  0.000852  0.109983  0.115474  0.000469  0.998114  0.0
H  H72  1  0.34853392  0.49376746  0.39227449  1  0.082134  0.000265  0.102268  0.108884  -0.000142  1.025489  0.0
H  H73  1  0.65147052  0.49376616  0.10772365  1  0.082528  0.000265  0.102242  0.108811  -0.000142  1.025509  0.0
H  H74  1  0.65146478  0.00623115  0.89227478  1  0.08214  0.000265  0.102256  0.108873  -0.000142  1.025536  0.0
H  H75  1  0.34853852  0.00622594  0.60772719  1  0.082275  0.000265  0.102269  0.108917  -0.000142  1.025574  0.0
H  H76  1  0.65146642  0.50623543  0.60772364  1  0.082471  0.000265  0.102251  0.108827  -0.000142  1.02551  0.0
H  H77  1  0.34852719  0.50622757  0.89227571  1  0.082634  0.000265  0.102278  0.108864  -0.000142  1.025513  0.0
H  H78  1  0.34852942  0.99377236  0.10772580  1  0.082648  0.000265  0.102276  0.108882  -0.000142  1.025575  0.0
H  H79  1  0.65146532  0.99377390  0.39227463  1  0.08265  0.000265  0.102255  0.108898  -0.000142  1.025544  0.0
H  H80  1  0.36260768  0.74673669  0.34387023  1  0.128016  5.3e-05  0.100987  0.112458  -0.000326  1.075056  0.0
H  H81  1  0.63738969  0.74673420  0.15612701  1  0.127987  5.3e-05  0.100989  0.112401  -0.000326  1.075118  0.0
H  H82  1  0.63739154  0.75326237  0.84386849  1  0.127954  5.3e-05  0.100991  0.112409  -0.000326  1.075131  0.0
H  H83  1  0.36260907  0.75326194  0.65613446  1  0.128008  5.3e-05  0.101002  0.112423  -0.000326  1.0751  0.0
H  H84  1  0.63739178  0.25326681  0.65612585  1  0.127805  5.3e-05  0.100997  0.11242  -0.000326  1.075029  0.0
H  H85  1  0.36260977  0.25326258  0.84387031  1  0.127926  5.3e-05  0.100983  0.112453  -0.000326  1.075078  0.0
H  H86  1  0.36260792  0.24674114  0.15613209  1  0.127923  5.3e-05  0.101018  0.112474  -0.000326  1.075123  0.0
H  H87  1  0.63739215  0.24673973  0.34386531  1  0.127994  5.3e-05  0.100987  0.112407  -0.000326  1.075129  0.0
H  H88  1  0.35810327  0.70645928  0.24571286  1  0.064416  9.4e-05  0.098955  0.099825  3.8e-05  1.005014  0.0
H  H89  1  0.64189366  0.70645853  0.25428480  1  0.064475  9.4e-05  0.098949  0.099844  3.8e-05  1.004938  0.0
H  H90  1  0.64189104  0.79354230  0.74571149  1  0.064377  9.4e-05  0.098952  0.099823  3.8e-05  1.00496  0.0
H  H91  1  0.35811177  0.79354182  0.75429145  1  0.064301  9.4e-05  0.098969  0.099856  3.8e-05  1.004957  0.0
H  H92  1  0.64189882  0.29354239  0.75428363  1  0.064528  9.4e-05  0.098958  0.099836  3.8e-05  1.004934  0.0
H  H93  1  0.35810930  0.29354192  0.74571334  1  0.064449  9.4e-05  0.098926  0.099787  3.8e-05  1.005043  0.0
H  H94  1  0.35810317  0.20645937  0.25428951  1  0.064363  9.4e-05  0.098968  0.099847  3.8e-05  1.004934  0.0
H  H95  1  0.64189295  0.20645740  0.24570791  1  0.064287  9.4e-05  0.099009  0.099853  3.7e-05  1.004922  0.0
H  H96  1  0.34141652  0.38503297  0.32070829  1  0.047568  -0.000132  0.095181  0.094936  -0.000197  1.022391  0.0
H  H97  1  0.65858646  0.38503096  0.17929070  1  0.047505  -0.000132  0.095158  0.094897  -0.000197  1.022375  0.0
H  H98  1  0.65858172  0.11496508  0.82071054  1  0.04795  -0.000132  0.095136  0.094862  -0.000197  1.02241  0.0
H  H99  1  0.34141517  0.11496414  0.67929180  1  0.048009  -0.000132  0.095161  0.094889  -0.000197  1.022436  0.0
H  H100  1  0.65858207  0.61497115  0.67928903  1  0.047851  -0.000132  0.095145  0.094834  -0.000197  1.022354  0.0
H  H101  1  0.34141038  0.61496582  0.82071111  1  0.047887  -0.000132  0.09517  0.094896  -0.000197  1.022394  0.0
H  H102  1  0.34141512  0.88503598  0.17929086  1  0.047576  -0.000132  0.09516  0.094908  -0.000197  1.022427  0.0
H  H103  1  0.65858779  0.88503631  0.32071001  1  0.047972  -0.000132  0.095155  0.094886  -0.000197  1.022435  0.0
H  H104  1  0.33852505  0.34616808  0.22206291  1  0.098435  0.000465  0.100111  0.10365  0.000151  1.031891  0.0
H  H105  1  0.66147834  0.34616537  0.27793609  1  0.098395  0.000465  0.100093  0.103664  0.000151  1.031801  0.0
H  H106  1  0.66148054  0.15383493  0.72206555  1  0.098453  0.000465  0.100113  0.103649  0.000151  1.031797  0.0
H  H107  1  0.33851331  0.15383149  0.77793678  1  0.098518  0.000465  0.100078  0.103642  0.000151  1.031808  0.0
H  H108  1  0.66146828  0.65383543  0.77793563  1  0.098367  0.000465  0.100096  0.103623  0.000151  1.031855  0.0
H  H109  1  0.33852288  0.65383386  0.72206572  1  0.098425  0.000465  0.100102  0.103647  0.000151  1.031818  0.0
H  H110  1  0.33851980  0.84616735  0.27793545  1  0.098448  0.000465  0.100104  0.103622  0.000151  1.031779  0.0
H  H111  1  0.66148703  0.84616468  0.22206626  1  0.098418  0.000465  0.100074  0.103592  0.000151  1.031819  0.0
H  H112  1  0.34806905  0.59840508  0.17459458  1  0.08095  0.00016  0.101398  0.106011  7.1e-05  1.010458  0.0
H  H113  1  0.65193166  0.59840544  0.32540312  1  0.080907  0.00016  0.10144  0.10605  7.1e-05  1.01046  0.0
H  H114  1  0.65193528  0.90160022  0.67459474  1  0.080795  0.00016  0.10141  0.106029  7.1e-05  1.010432  0.0
H  H115  1  0.34806988  0.90159485  0.82540817  1  0.080914  0.00016  0.101403  0.10599  7.1e-05  1.010461  0.0
H  H116  1  0.65193391  0.40159720  0.82540233  1  0.080799  0.00016  0.101436  0.106051  7.1e-05  1.010476  0.0
H  H117  1  0.34807306  0.40159623  0.67459502  1  0.081045  0.00016  0.101416  0.106008  7.1e-05  1.010453  0.0
H  H118  1  0.34806156  0.09840390  0.32540585  1  0.080972  0.00016  0.101414  0.106036  7.1e-05  1.010391  0.0
H  H119  1  0.65193484  0.09840010  0.17459283  1  0.081063  0.00016  0.101424  0.106046  7.1e-05  1.010431  0.0
C  C120  1  0.60422324  0.60221400  0.51060047  1  0.362975  -0.006922  0.05182  0.109611  -0.007637  3.915033  -0.003
C  C121  1  0.39577985  0.60222232  0.98940130  1  0.362699  -0.006922  0.051813  0.109642  -0.007637  3.914977  -0.003
C  C122  1  0.39578516  0.89779325  0.01060317  1  0.363253  -0.006924  0.051873  0.109766  -0.007641  3.914864  -0.003
C  C123  1  0.60422199  0.89779374  0.48939975  1  0.363366  -0.006922  0.051981  0.109945  -0.007639  3.914968  -0.003
C  C124  1  0.39577885  0.39777850  0.48940134  1  0.362698  -0.006923  0.05179  0.109611  -0.007638  3.915057  -0.003
C  C125  1  0.60421699  0.39778302  0.01059724  1  0.363104  -0.006922  0.05175  0.109528  -0.007637  3.915084  -0.003
C  C126  1  0.60421780  0.10220414  0.98940069  1  0.363232  -0.006924  0.051912  0.109825  -0.00764  3.914859  -0.003
C  C127  1  0.39578098  0.10220671  0.51060166  1  0.363504  -0.006925  0.051941  0.109763  -0.007641  3.915068  -0.003
C  C128  1  0.72559408  0.59981465  0.51043195  1  0.044786  -0.005492  -0.079243  -0.164659  -0.006625  3.923245  -0.002
C  C129  1  0.27440641  0.59982239  0.98956942  1  0.044105  -0.005493  -0.079302  -0.164655  -0.006626  3.923317  -0.002
C  C130  1  0.27441171  0.90019750  0.01043586  1  0.044514  -0.005492  -0.079298  -0.164891  -0.006623  3.923308  -0.002
C  C131  1  0.72559279  0.90020223  0.48956296  1  0.044449  -0.005491  -0.07922  -0.16483  -0.006622  3.923332  -0.002
C  C132  1  0.27440714  0.40017908  0.48956987  1  0.044077  -0.005492  -0.07932  -0.164717  -0.006625  3.923387  -0.002
C  C133  1  0.72558780  0.40018234  0.01042830  1  0.044085  -0.005492  -0.079221  -0.164662  -0.006625  3.92335  -0.002
C  C134  1  0.72559126  0.09979868  0.98956718  1  0.044567  -0.00549  -0.079187  -0.164827  -0.006622  3.923224  -0.002
C  C135  1  0.27440842  0.09980066  0.51043803  1  0.044504  -0.005491  -0.07927  -0.164802  -0.006622  3.923451  -0.002
C  C136  1  0.78964909  0.65433576  0.54321589  1  0.039322  -0.015291  0.004834  0.086481  -0.016589  3.998186  -0.008
C  C137  1  0.21035082  0.65434020  0.95678423  1  0.039144  -0.01529  0.004969  0.086611  -0.016587  3.998293  -0.008
C  C138  1  0.21035045  0.84567819  0.04321984  1  0.039438  -0.015293  0.004786  0.086419  -0.016595  3.997931  -0.008
C  C139  1  0.78964938  0.84568017  0.45677818  1  0.039411  -0.015291  0.00481  0.0864  -0.016593  3.99797  -0.008
C  C140  1  0.21035212  0.34566224  0.45678469  1  0.039135  -0.015292  0.0049  0.086554  -0.016589  3.998226  -0.008
C  C141  1  0.78964339  0.34566148  0.04321349  1  0.039208  -0.015292  0.004799  0.08643  -0.016589  3.998131  -0.008
C  C142  1  0.78964989  0.15431920  0.95678197  1  0.039537  -0.015293  0.004809  0.086363  -0.016594  3.997784  -0.008
C  C143  1  0.21034833  0.15432211  0.54322241  1  0.039419  -0.015294  0.004822  0.086457  -0.016595  3.998118  -0.008
C  C144  1  0.72416433  0.70944399  0.57524517  1  -0.066054  -0.003067  -0.086365  -0.182411  -0.003957  3.969986  -0.001
C  C145  1  0.27583850  0.70944810  0.92475494  1  -0.065782  -0.003068  -0.086469  -0.182494  -0.003958  3.970079  -0.001
C  C146  1  0.27583600  0.79056811  0.07524747  1  -0.065797  -0.003065  -0.086269  -0.18228  -0.003955  3.96988  -0.001
C  C147  1  0.72416704  0.79056985  0.42475303  1  -0.065955  -0.003065  -0.08622  -0.182241  -0.003955  3.970063  -0.001
C  C148  1  0.27583777  0.29055279  0.42475542  1  -0.065752  -0.003067  -0.086453  -0.182509  -0.003957  3.969998  -0.001
C  C149  1  0.72415834  0.29055296  0.07524278  1  -0.065808  -0.003067  -0.086413  -0.182383  -0.003957  3.969928  -0.001
C  C150  1  0.72416609  0.20942745  0.92475393  1  -0.065939  -0.003064  -0.086237  -0.182207  -0.003954  3.969829  -0.001
C  C151  1  0.27583242  0.20942999  0.57525001  1  -0.066044  -0.003065  -0.086268  -0.182372  -0.003956  3.970085  -0.001
C  C152  1  0.60284871  0.70742240  0.57346743  1  0.480656  -0.006716  0.043041  0.096179  -0.007498  3.952488  -0.003
C  C153  1  0.39715239  0.70742953  0.92653227  1  0.480331  -0.006714  0.043076  0.09624  -0.007496  3.952277  -0.003
C  C154  1  0.39714992  0.79259153  0.07347506  1  0.481146  -0.006718  0.043123  0.096263  -0.0075  3.952517  -0.003
C  C155  1  0.60285660  0.79259330  0.42652748  1  0.481134  -0.006718  0.043205  0.096329  -0.0075  3.952688  -0.003
C  C156  1  0.39715338  0.29257377  0.42653111  1  0.480291  -0.006715  0.043081  0.096231  -0.007497  3.952198  -0.003
C  C157  1  0.60284270  0.29257703  0.07346750  1  0.480354  -0.006716  0.043024  0.096165  -0.007498  3.952382  -0.003
C  C158  1  0.60285480  0.20740403  0.92652675  1  0.48115  -0.006718  0.043189  0.096328  -0.0075  3.952654  -0.003
C  C159  1  0.39714461  0.20740593  0.57347433  1  0.481173  -0.006719  0.04317  0.096297  -0.007501  3.952649  -0.003
C  C160  1  0.91849099  0.65403165  0.54326701  1  -0.076808  -0.031338  0.004923  0.097671  -0.032901  3.98791  -0.019
C  C161  1  0.08150892  0.65403493  0.95673148  1  -0.077179  -0.031337  0.004861  0.097511  -0.032902  3.988104  -0.019
C  C162  1  0.08150767  0.84598720  0.04327059  1  -0.076191  -0.031335  0.004876  0.097721  -0.032901  3.987569  -0.019
C  C163  1  0.91849390  0.84598850  0.45672907  1  -0.076206  -0.031334  0.004887  0.097804  -0.0329  3.987435  -0.019
C  C164  1  0.08150935  0.34596880  0.45673235  1  -0.076742  -0.031336  0.004937  0.097745  -0.032899  3.987844  -0.019
C  C165  1  0.91848616  0.34596430  0.04326461  1  -0.076981  -0.031333  0.004845  0.097533  -0.032897  3.988197  -0.019
C  C166  1  0.91849354  0.15401020  0.95673164  1  -0.076563  -0.031331  0.004844  0.097696  -0.032897  3.987596  -0.019
C  C167  1  0.08150556  0.15401257  0.54327192  1  -0.07663  -0.031336  0.004843  0.097666  -0.032902  3.987483  -0.019
C  C168  1  0.98222889  0.61580650  0.50116855  1  0.012787  0.000324  -0.08448  -0.17846  -0.001917  3.964266  0.002
C  C169  1  0.01777405  0.61580826  0.99883036  1  0.012961  0.000324  -0.084477  -0.178424  -0.001918  3.964238  0.002
C  C170  1  0.01777192  0.88420320  0.00116764  1  0.01249  0.000325  -0.084517  -0.17847  -0.001916  3.964054  0.002
C  C171  1  0.98223100  0.88420108  0.49883324  1  0.012638  0.000326  -0.084572  -0.178529  -0.001916  3.964088  0.002
C  C172  1  0.01777145  0.38419394  0.49883122  1  0.012739  0.000323  -0.084462  -0.178428  -0.001918  3.964223  0.002
C  C173  1  0.98222103  0.38419219  0.00116736  1  0.012665  0.000324  -0.084479  -0.17848  -0.001917  3.964132  0.002
C  C174  1  0.98222842  0.11579847  0.99883581  1  0.012981  0.000325  -0.084562  -0.178534  -0.001917  3.964044  0.002
C  C175  1  0.01776846  0.11579999  0.50116735  1  0.013053  0.000325  -0.084507  -0.178402  -0.001917  3.964056  0.002
C  C176  1  0.10349138  0.61629108  0.50209798  1  0.455903  -0.015193  0.040941  0.089561  -0.01597  3.960057  -0.008
C  C177  1  0.89650806  0.61629552  0.99790093  1  0.455986  -0.015194  0.04096  0.089619  -0.015971  3.960007  -0.008
C  C178  1  0.89650677  0.88371496  0.00209775  1  0.455963  -0.015194  0.041066  0.089704  -0.01597  3.959725  -0.008
C  C179  1  0.10349440  0.88371320  0.49790271  1  0.456307  -0.01519  0.040966  0.089596  -0.015967  3.959815  -0.008
C  C180  1  0.89650808  0.38370815  0.49790220  1  0.45591  -0.015192  0.040923  0.089552  -0.015969  3.960059  -0.008
C  C181  1  0.10348790  0.38370738  0.00209925  1  0.455984  -0.015194  0.040986  0.089609  -0.015971  3.959874  -0.008
C  C182  1  0.10349181  0.11628671  0.99790447  1  0.456355  -0.01519  0.041012  0.089629  -0.015967  3.959838  -0.008
C  C183  1  0.89650682  0.11628602  0.50209869  1  0.456294  -0.01519  0.04103  0.089612  -0.015967  3.9599  -0.008
C  C184  1  0.10636104  0.68991597  0.58257946  1  0.404852  -0.017023  0.045086  0.098749  -0.017858  3.940707  -0.009
C  C185  1  0.89364199  0.68992171  0.91742024  1  0.404443  -0.017022  0.04512  0.098741  -0.017857  3.940582  -0.009
C  C186  1  0.89363906  0.81010101  0.08258009  1  0.405381  -0.017022  0.04511  0.098778  -0.017856  3.940629  -0.009
C  C187  1  0.10636727  0.81010297  0.41741917  1  0.404858  -0.017027  0.045035  0.098663  -0.017861  3.940545  -0.009
C  C188  1  0.89364105  0.31008387  0.41742031  1  0.404547  -0.017022  0.04513  0.098752  -0.017858  3.940631  -0.009
C  C189  1  0.10635222  0.31008058  0.08257830  1  0.404576  -0.01702  0.045089  0.098698  -0.017855  3.940683  -0.009
C  C190  1  0.10636303  0.18989455  0.91742050  1  0.405165  -0.017022  0.04502  0.098528  -0.017856  3.940758  -0.009
C  C191  1  0.89363394  0.18989809  0.58258101  1  0.404953  -0.017024  0.045079  0.098699  -0.017858  3.940626  -0.009
C  C192  1  0.98495051  0.69142824  0.58479563  1  0.023488  0.002146  -0.083789  -0.176407  -0.000889  3.955148  0.003
C  C193  1  0.01504988  0.69143374  0.91520407  1  0.023722  0.002147  -0.083787  -0.176283  -0.000888  3.955274  0.003
C  C194  1  0.01504515  0.80859363  0.08479967  1  0.022784  0.002145  -0.083614  -0.176233  -0.000889  3.954895  0.003
C  C195  1  0.98495682  0.80859766  0.41519919  1  0.022718  0.002147  -0.083627  -0.176287  -0.000888  3.9549  0.003
C  C196  1  0.01504983  0.30857282  0.41520455  1  0.023689  0.002145  -0.083797  -0.176405  -0.000889  3.955113  0.003
C  C197  1  0.98494258  0.30856610  0.08479324  1  0.051106  0.00214  -0.083828  -0.176395  -0.000888  3.955459  0.003
C  C198  1  0.98495519  0.19140010  0.91520092  1  0.050378  0.002139  -0.083656  -0.176209  -0.000889  3.954909  0.003
C  C199  1  0.01504176  0.19140524  0.58480181  1  0.022717  0.002145  -0.083657  -0.176263  -0.000889  3.954749  0.003
C  C200  1  0.35532933  0.64820949  0.43172900  1  1.516136  -0.007014  0.214681  0.568139  -0.007996  4.161731  -0.001
C  C201  1  0.64467172  0.64820886  0.06826827  1  1.515889  -0.007014  0.214757  0.568235  -0.007994  4.161887  -0.001
C  C202  1  0.64466987  0.85179256  0.93172881  1  1.51576  -0.007017  0.214732  0.568197  -0.007998  4.16194  -0.001
C  C203  1  0.35533319  0.85179102  0.56827370  1  1.515778  -0.007015  0.214733  0.568156  -0.007996  4.161863  -0.001
C  C204  1  0.64466926  0.35179279  0.56826791  1  1.515851  -0.007015  0.214694  0.568149  -0.007995  4.161851  -0.001
C  C205  1  0.35532774  0.35178853  0.93172986  1  1.516179  -0.007017  0.214742  0.568218  -0.007996  4.161912  -0.001
C  C206  1  0.35533134  0.14820789  0.06827177  1  1.515748  -0.007015  0.214709  0.568205  -0.007995  4.161737  -0.001
C  C207  1  0.64466978  0.14821066  0.43172648  1  1.515481  -0.007016  0.214667  0.568143  -0.007996  4.161981  -0.001
C  C208  1  0.34929161  0.53968403  0.35990959  1  -0.050911  -0.007837  -0.075846  -0.124265  -0.008516  3.907442  -0.005
C  C209  1  0.65071323  0.53968393  0.14008813  1  -0.051062  -0.007837  -0.075864  -0.124211  -0.008515  3.907258  -0.005
C  C210  1  0.65070713  0.96031501  0.85990974  1  -0.050998  -0.007839  -0.075826  -0.124259  -0.008517  3.907362  -0.005
C  C211  1  0.34929740  0.96031345  0.64009274  1  -0.051006  -0.007837  -0.075823  -0.124356  -0.008516  3.907534  -0.005
C  C212  1  0.65071223  0.46031825  0.64008691  1  -0.051118  -0.007837  -0.075904  -0.124285  -0.008516  3.90728  -0.005
C  C213  1  0.34928711  0.46031285  0.85991082  1  -0.051048  -0.007836  -0.075889  -0.124202  -0.008515  3.907372  -0.005
C  C214  1  0.34928970  0.03968605  0.14009003  1  -0.051524  -0.007837  -0.075918  -0.124351  -0.008516  3.907411  -0.005
C  C215  1  0.65070644  0.03968456  0.35990866  1  -0.051461  -0.007837  -0.075836  -0.124257  -0.008515  3.907332  -0.005
C  C216  1  0.35447483  0.62180549  0.37371297  1  -0.044373  0.00584  -0.026132  -0.047945  0.001656  4.022494  0.005
C  C217  1  0.64552475  0.62180420  0.12628431  1  -0.044503  0.00584  -0.026128  -0.048042  0.001656  4.022549  0.005
C  C218  1  0.64552262  0.87819355  0.87371277  1  -0.044036  0.005838  -0.026073  -0.047893  0.001656  4.022495  0.005
C  C219  1  0.35447929  0.87819197  0.62629015  1  -0.044044  0.005839  -0.026148  -0.04791  0.001656  4.022623  0.005
C  C220  1  0.64552376  0.37819741  0.62628394  1  -0.044207  0.00584  -0.026088  -0.047944  0.001656  4.022774  0.005
C  C221  1  0.35447033  0.37819319  0.87371423  1  -0.04455  0.005839  -0.026113  -0.048099  0.001656  4.022771  0.005
C  C222  1  0.35447509  0.12180629  0.12628782  1  -0.044025  0.005838  -0.026104  -0.047969  0.001656  4.022473  0.005
C  C223  1  0.64552543  0.12180726  0.37371003  1  -0.043392  0.005839  -0.026124  -0.048018  0.001656  4.022544  0.005
C  C224  1  0.35771680  0.68256672  0.33205729  1  -0.021185  -0.00072  -0.098722  -0.125823  -0.00113  4.004736  0.0
C  C225  1  0.64228301  0.68256603  0.16794079  1  -0.021275  -0.00072  -0.098801  -0.125783  -0.001129  4.004783  0.0
C  C226  1  0.64228190  0.81743174  0.83205754  1  -0.021186  -0.00072  -0.098773  -0.125784  -0.00113  4.004896  0.0
C  C227  1  0.35771802  0.81743133  0.66794416  1  -0.021337  -0.00072  -0.098696  -0.125706  -0.00113  4.004732  0.0
C  C228  1  0.64228441  0.31743679  0.66793880  1  -0.021337  -0.00072  -0.098811  -0.12583  -0.001129  4.00486  0.0
C  C229  1  0.35771821  0.31743136  0.83205898  1  -0.02129  -0.00072  -0.098743  -0.12577  -0.001129  4.004742  0.0
C  C230  1  0.35771756  0.18257055  0.16794263  1  -0.021193  -0.000719  -0.098754  -0.125805  -0.001129  4.004686  0.0
C  C231  1  0.64228144  0.18256912  0.33205519  1  -0.021598  -0.000719  -0.098662  -0.125689  -0.001129  4.00461  0.0
C  C232  1  0.35456101  0.66019860  0.27789043  1  -0.117866  0.001297  -0.092349  -0.131091  0.000514  4.00848  0.001
C  C233  1  0.64544254  0.66019785  0.22210765  1  -0.118175  0.001297  -0.092289  -0.131122  0.000514  4.008345  0.001
C  C234  1  0.64543758  0.83980112  0.77789065  1  -0.117866  0.001297  -0.092358  -0.131166  0.000515  4.00844  0.001
C  C235  1  0.35456473  0.83980069  0.72211145  1  -0.117848  0.001297  -0.092419  -0.131212  0.000515  4.008587  0.001
C  C236  1  0.64544283  0.33980307  0.72210688  1  -0.118202  0.001297  -0.092272  -0.131098  0.000514  4.008292  0.001
C  C237  1  0.35456130  0.33980199  0.77789130  1  -0.118189  0.001297  -0.09231  -0.131107  0.000514  4.008417  0.001
C  C238  1  0.35455838  0.16020177  0.22211034  1  -0.118268  0.001297  -0.092344  -0.131138  0.000514  4.00822  0.001
C  C239  1  0.64543736  0.16019915  0.27788709  1  -0.117719  0.001297  -0.092471  -0.131166  0.000514  4.008425  0.001
C  C240  1  0.34760812  0.57670985  0.26241895  1  0.024808  -0.002404  -0.005046  0.077516  -0.002552  4.000106  -0.001
C  C241  1  0.65239106  0.57670906  0.23758039  1  0.025492  -0.002404  -0.005033  0.077673  -0.002551  4.000265  -0.001
C  C242  1  0.65239268  0.92328927  0.76241828  1  0.024814  -0.002404  -0.005101  0.077524  -0.002552  4.000118  -0.001
C  C243  1  0.34760611  0.92328703  0.73758175  1  0.025086  -0.002403  -0.005164  0.077369  -0.002551  4.000332  -0.001
C  C244  1  0.65239134  0.42329182  0.73757714  1  0.025406  -0.002404  -0.005005  0.077685  -0.002551  4.000139  -0.001
C  C245  1  0.34761190  0.42329017  0.76241979  1  0.025133  -0.002404  -0.005048  0.07759  -0.002551  4.000074  -0.001
C  C246  1  0.34760153  0.07671118  0.23758149  1  0.025537  -0.002404  -0.005096  0.07755  -0.002551  3.999887  -0.001
C  C247  1  0.65239160  0.07671037  0.26241842  1  0.024752  -0.002404  -0.005094  0.077475  -0.002551  4.000263  -0.001
C  C248  1  0.34558155  0.51521271  0.30445708  1  -0.027021  0.001175  -0.004996  0.077808  0.000319  3.989201  0.001
C  C249  1  0.65442179  0.51521255  0.19554186  1  -0.027109  0.001176  -0.005026  0.07771  0.000319  3.989052  0.001
C  C250  1  0.65441973  0.98478821  0.80445557  1  -0.026901  0.001176  -0.004991  0.07776  0.000319  3.989139  0.001
C  C251  1  0.34558366  0.98478662  0.69554609  1  -0.026785  0.001176  -0.004971  0.07779  0.000319  3.989308  0.001
C  C252  1  0.65441966  0.48479018  0.69554064  1  -0.027018  0.001176  -0.005025  0.077713  0.000319  3.989074  0.001
C  C253  1  0.34558030  0.48478607  0.80445790  1  -0.027035  0.001176  -0.005057  0.07769  0.000319  3.98914  0.001
C  C254  1  0.34557798  0.01521468  0.19554379  1  -0.026875  0.001176  -0.004973  0.077822  0.000319  3.988981  0.001
C  C255  1  0.65441843  0.01521321  0.30445450  1  -0.026958  0.001175  -0.00495  0.077791  0.000319  3.989266  0.001
C  C256  1  0.34142551  0.43165672  0.28874180  1  0.016216  -0.002923  -0.090926  -0.126804  -0.003089  3.98862  -0.002
C  C257  1  0.65857785  0.43165408  0.21125799  1  0.016328  -0.002923  -0.090938  -0.126759  -0.003089  3.98849  -0.002
C  C258  1  0.65857282  0.06834502  0.78873916  1  0.015697  -0.002923  -0.090908  -0.126737  -0.003089  3.988596  -0.002
C  C259  1  0.34142457  0.06834099  0.71125951  1  0.015798  -0.002922  -0.090907  -0.126715  -0.003088  3.98862  -0.002
C  C260  1  0.65857395  0.56834678  0.71125551  1  0.015883  -0.002923  -0.09094  -0.126736  -0.003089  3.988544  -0.002
C  C261  1  0.34142162  0.56834331  0.78874300  1  0.015868  -0.002923  -0.090934  -0.126777  -0.003089  3.988668  -0.002
C  C262  1  0.34142227  0.93165727  0.21126142  1  0.016384  -0.002923  -0.090845  -0.126725  -0.003089  3.988551  -0.002
C  C263  1  0.65857314  0.93165762  0.28874107  1  0.01588  -0.002922  -0.0909  -0.126744  -0.003088  3.988575  -0.002
C  C264  1  0.33981086  0.41008318  0.23436877  1  -0.028054  0.002083  -0.090303  -0.100825  0.000823  3.993088  0.001
C  C265  1  0.66018659  0.41008294  0.26563103  1  -0.028288  0.002083  -0.090253  -0.100869  0.000823  3.993044  0.001
C  C266  1  0.66019524  0.08991615  0.73436735  1  -0.028211  0.002083  -0.090328  -0.10082  0.000823  3.993191  0.001
C  C267  1  0.33980543  0.08991454  0.76563214  1  -0.028113  0.002083  -0.090296  -0.100836  0.000823  3.992817  0.001
C  C268  1  0.66018159  0.58991910  0.76563017  1  -0.028251  0.002084  -0.090212  -0.100651  0.000823  3.992988  0.001
C  C269  1  0.33981725  0.58991629  0.73436997  1  -0.028052  0.002083  -0.090226  -0.100704  0.000823  3.993167  0.001
C  C270  1  0.33980510  0.91008552  0.26563283  1  -0.028113  0.002083  -0.090359  -0.100859  0.000823  3.993026  0.001
C  C271  1  0.66019666  0.91008163  0.23436885  1  -0.028434  0.002083  -0.090315  -0.100753  0.000823  3.992868  0.001
C  C272  1  0.34147141  0.47077718  0.19276710  1  -0.033753  -0.000906  -0.018742  -0.02576  -0.001854  3.985826  0.0
C  C273  1  0.65852978  0.47077814  0.30723186  1  -0.033788  -0.000906  -0.018761  -0.025638  -0.001854  3.985838  0.0
C  C274  1  0.65853244  0.02922402  0.69276611  1  -0.033547  -0.000906  -0.018746  -0.025782  -0.001854  3.985731  0.0
C  C275  1  0.34146886  0.02922115  0.80723381  1  -0.033738  -0.000905  -0.018711  -0.025689  -0.001853  3.985704  0.0
C  C276  1  0.65852455  0.52922327  0.80723144  1  -0.033788  -0.000905  -0.018823  -0.026017  -0.001853  3.986151  0.0
C  C277  1  0.34147756  0.52922415  0.69276790  1  -0.033624  -0.000905  -0.018833  -0.025966  -0.001854  3.986176  0.0
C  C278  1  0.34146789  0.97077888  0.30723325  1  -0.033787  -0.000906  -0.018738  -0.025669  -0.001854  3.985811  0.0
C  C279  1  0.65853323  0.97077503  0.19276678  1  -0.033716  -0.000905  -0.018714  -0.025743  -0.001853  3.985653  0.0
C  C280  1  0.34488843  0.55251297  0.20697258  1  -0.097692  0.001281  -0.07988  -0.138828  0.00032  3.942351  0.001
C  C281  1  0.65511451  0.55251395  0.29302472  1  -0.09761  0.001281  -0.079942  -0.138976  0.00032  3.942644  0.001
C  C282  1  0.65511492  0.94748803  0.70697393  1  -0.097479  0.001281  -0.079878  -0.138825  0.00032  3.942358  0.001
C  C283  1  0.34488537  0.94748454  0.79302896  1  -0.097712  0.001282  -0.079831  -0.138735  0.00032  3.942371  0.001
C  C284  1  0.65511191  0.44748809  0.79302433  1  -0.097351  0.001281  -0.079896  -0.138781  0.00032  3.942474  0.001
C  C285  1  0.34489196  0.44748773  0.70697423  1  -0.097695  0.001281  -0.079884  -0.138732  0.00032  3.942333  0.001
C  C286  1  0.34488279  0.05251425  0.29302625  1  -0.097711  0.001281  -0.079874  -0.138893  0.00032  3.942351  0.001
C  C287  1  0.65511585  0.05251102  0.20697203  1  -0.097754  0.001281  -0.079877  -0.138852  0.00032  3.942361  0.001
C  C288  1  0.34332531  0.44662491  0.13371370  1  1.542226  0.001407  0.199412  0.560916  0.000713  4.214029  0.001
C  C289  1  0.65667263  0.44662643  0.36628649  1  1.542504  0.001408  0.199317  0.560564  0.000715  4.214206  0.001
C  C290  1  0.65667069  0.05337817  0.63371272  1  1.542059  0.001405  0.199431  0.560866  0.000712  4.213923  0.001
C  C291  1  0.34332861  0.05337341  0.86628842  1  1.542508  0.001407  0.19938  0.560804  0.000714  4.214121  0.001
C  C292  1  0.65666802  0.55337493  0.86628565  1  1.542584  0.001407  0.19931  0.560781  0.000714  4.214149  0.001
C  C293  1  0.34333296  0.55337585  0.63371327  1  1.542419  0.001406  0.199361  0.560779  0.000714  4.214105  0.001
C  C294  1  0.34333052  0.94662594  0.36628664  1  1.542506  0.001405  0.199368  0.560774  0.000712  4.214191  0.001
C  C295  1  0.65667173  0.94661909  0.13371381  1  1.54222  0.001405  0.199423  0.560849  0.000711  4.213734  0.001
N  N296  1  0.54228928  0.65480828  0.54162142  1  -1.232286  0.040347  -0.330148  -0.252311  0.018766  3.538742  0.031
N  N297  1  0.45771238  0.65481507  0.95837788  1  -1.231835  0.040351  -0.330116  -0.252425  0.018767  3.538684  0.031
N  N298  1  0.45771469  0.84519895  0.04162618  1  -1.232511  0.040345  -0.330247  -0.252471  0.018766  3.538764  0.031
N  N299  1  0.54229215  0.84520224  0.45837553  1  -1.232565  0.040341  -0.330434  -0.252662  0.018768  3.53887  0.031
N  N300  1  0.45771369  0.34518667  0.45837835  1  -1.231783  0.04035  -0.330106  -0.252336  0.018766  3.538727  0.031
N  N301  1  0.54228446  0.34519027  0.04161984  1  -1.23223  0.040348  -0.330093  -0.252288  0.018766  3.538744  0.031
N  N302  1  0.54228915  0.15479661  0.95837523  1  -1.232649  0.040351  -0.330374  -0.252529  0.018768  3.538784  0.031
N  N303  1  0.45771082  0.15479821  0.54162710  1  -1.232523  0.040338  -0.330308  -0.252429  0.018766  3.538888  0.031
N  N304  1  0.16652187  0.65288271  0.54191269  1  -1.244278  0.039239  -0.331237  -0.246682  0.017543  3.542842  0.031
N  N305  1  0.83347893  0.65288751  0.95808620  1  -1.244235  0.03924  -0.331268  -0.246722  0.017543  3.542789  0.031
N  N306  1  0.83347683  0.84712941  0.04191412  1  -1.244397  0.039238  -0.331389  -0.246871  0.017544  3.542915  0.031
N  N307  1  0.16652823  0.84712979  0.45808635  1  -1.243934  0.039235  -0.331275  -0.246709  0.017543  3.542764  0.031
N  N308  1  0.83347847  0.34711713  0.45808708  1  -1.244261  0.03924  -0.331275  -0.24674  0.017544  3.542837  0.031
N  N309  1  0.16651703  0.34711416  0.04191397  1  -1.244215  0.039241  -0.331268  -0.246663  0.017542  3.542662  0.031
N  N310  1  0.16652351  0.15286798  0.95808810  1  -1.243938  0.039239  -0.331291  -0.246588  0.017544  3.542745  0.031
N  N311  1  0.83347386  0.15287188  0.54191423  1  -1.244044  0.039236  -0.331322  -0.246776  0.017543  3.542993  0.031
O  O312  1  0.35534479  0.59447237  0.47021084  1  -1.158247  0.092172  -0.310615  -0.535219  0.042962  2.339209  0.064
O  O313  1  0.64465683  0.59447116  0.02978645  1  -1.158093  0.092185  -0.310631  -0.535229  0.042965  2.339222  0.064
O  O314  1  0.64465412  0.90553393  0.97020819  1  -1.15835  0.092173  -0.310619  -0.535258  0.042961  2.33902  0.064
O  O315  1  0.35535275  0.90553058  0.52979349  1  -1.158185  0.092173  -0.310621  -0.535182  0.04296  2.338975  0.064
O  O316  1  0.64465817  0.40553052  0.52978647  1  -1.158144  0.092181  -0.31063  -0.535227  0.042963  2.339196  0.064
O  O317  1  0.35534001  0.40552929  0.97020964  1  -1.158242  0.092176  -0.310617  -0.535208  0.042965  2.339138  0.064
O  O318  1  0.35534972  0.09446775  0.02979158  1  -1.158273  0.092174  -0.310648  -0.535257  0.042962  2.338981  0.064
O  O319  1  0.64464934  0.09446926  0.47020668  1  -1.15816  0.092173  -0.31064  -0.535241  0.042963  2.338983  0.064
O  O320  1  0.35426572  0.72425729  0.44253242  1  -1.200534  0.090391  -0.315976  -0.565306  0.04253  2.528012  0.07
O  O321  1  0.64574153  0.72425605  0.05746605  1  -1.199899  0.090397  -0.315968  -0.565246  0.04253  2.52805  0.07
O  O322  1  0.64574191  0.77574781  0.94253553  1  -1.200411  0.090383  -0.316017  -0.565311  0.042535  2.528303  0.07
O  O323  1  0.35425758  0.77574506  0.55746701  1  -1.199852  0.090402  -0.316017  -0.565284  0.042534  2.52812  0.07
O  O324  1  0.64573725  0.27574439  0.55746489  1  -1.20045  0.090385  -0.315965  -0.565209  0.042532  2.527978  0.07
O  O325  1  0.35426143  0.27574318  0.94253454  1  -1.20057  0.090377  -0.316006  -0.565272  0.042528  2.528077  0.07
O  O326  1  0.35425492  0.22425386  0.05746751  1  -1.199839  0.090394  -0.315995  -0.565336  0.042532  2.528211  0.07
O  O327  1  0.64574626  0.22425478  0.44253235  1  -1.199906  0.090396  -0.315965  -0.565288  0.042532  2.528306  0.07
O  O328  1  0.33495523  0.49803514  0.09592850  1  -1.169308  0.02822  -0.320113  -0.552662  0.012251  2.119771  0.022
O  O329  1  0.66503953  0.49803965  0.40406963  1  -1.169365  0.028217  -0.320041  -0.552487  0.012249  2.11979  0.022
O  O330  1  0.66504191  0.00196492  0.59592912  1  -1.169277  0.028221  -0.320072  -0.552579  0.012251  2.119774  0.022
O  O331  1  0.33495619  0.00196140  0.90407163  1  -1.169466  0.02822  -0.320065  -0.552594  0.01225  2.119792  0.022
O  O332  1  0.66503985  0.50196165  0.90406881  1  -1.169366  0.028215  -0.320005  -0.552521  0.012249  2.119879  0.022
O  O333  1  0.33496606  0.50196203  0.59593054  1  -1.169379  0.028217  -0.320014  -0.552495  0.012249  2.119825  0.022
O  O334  1  0.33495843  0.99803859  0.40407106  1  -1.169391  0.028223  -0.32005  -0.552594  0.012252  2.119802  0.022
O  O335  1  0.66504152  0.99802989  0.09592814  1  -1.16914  0.028229  -0.320065  -0.552569  0.012256  2.119703  0.022
O  O336  1  0.35493440  0.36860162  0.12469248  1  -1.145947  0.107146  -0.333185  -0.560828  0.049176  2.371515  0.079
O  O337  1  0.64506350  0.36860198  0.37530815  1  -1.146131  0.107162  -0.333152  -0.560682  0.049182  2.371541  0.079
O  O338  1  0.64506538  0.13140207  0.62469400  1  -1.146055  0.107146  -0.333216  -0.560875  0.049176  2.371447  0.079
O  O339  1  0.35493484  0.13139725  0.87530834  1  -1.146138  0.107154  -0.333192  -0.560832  0.04918  2.371638  0.079
O  O340  1  0.64506156  0.63139944  0.87530770  1  -1.146169  0.107156  -0.333189  -0.560819  0.04918  2.3715  0.079
O  O341  1  0.35493859  0.63140030  0.62469202  1  -1.146206  0.107153  -0.333197  -0.560827  0.04918  2.371532  0.079
O  O342  1  0.35493759  0.86860326  0.37530699  1  -1.146158  0.107147  -0.33322  -0.560828  0.049177  2.371623  0.079
O  O343  1  0.64506900  0.86859587  0.12469511  1  -1.146157  0.107148  -0.333252  -0.560931  0.049177  2.371399  0.079
