# generated using pymatgen
data_Ni2H44C53(NO4)4
_symmetry_space_group_name_H-M   'P 1'
_cell_length_a   10.60145573
_cell_length_b   23.64457923
_cell_length_c   23.62396573
_cell_angle_alpha   94.80870237
_cell_angle_beta   102.97159301
_cell_angle_gamma   89.99935121
_symmetry_Int_Tables_number   1
_chemical_formula_structural   Ni2H44C53(NO4)4
_chemical_formula_sum   'Ni8 H176 C212 N16 O64'
_cell_volume   5749.24313318
_cell_formula_units_Z   4
loop_
 _symmetry_equiv_pos_site_id
 _symmetry_equiv_pos_as_xyz
  1  'x, y, z'
loop_
 _atom_site_type_symbol
 _atom_site_label
 _atom_site_symmetry_multiplicity
 _atom_site_fract_x
 _atom_site_fract_y
 _atom_site_fract_z
 _atom_site_occupancy
 _atom_site_pbe_bader_charge
 _atom_site_pbe_bader_spin_density
 _atom_site_pbe_cm5_charge
 _atom_site_pbe_ddec_charge
 _atom_site_pbe_ddec_spin_density
 _atom_site_pbe_ddec_sum_bond_order
 _atom_site_pbe_magmom
Ni  Ni0  1  0.06176859  0.07248880  0.43140088  1  1.155506  1.559635  0.639592  0.761809  1.778133  2.476038  1.545
Ni  Ni1  1  0.63061574  0.42750465  0.56862602  1  1.15843  1.559777  0.639217  0.762457  1.778122  2.473942  1.545
Ni  Ni2  1  0.93822916  0.92751169  0.56859821  1  1.155565  1.559634  0.639597  0.761768  1.778129  2.476132  1.545
Ni  Ni3  1  0.36937801  0.57249498  0.43137486  1  1.158436  1.559778  0.639185  0.762427  1.77812  2.473936  1.545
Ni  Ni4  1  0.82508318  0.92870025  0.98147387  1  1.153289  1.558726  0.642359  0.756988  1.772444  2.494573  1.541
Ni  Ni5  1  0.84349835  0.57132843  0.01860342  1  1.153965  1.558784  0.642475  0.756978  1.77299  2.496829  1.541
Ni  Ni6  1  0.17491758  0.07130065  0.01852728  1  1.153192  1.558735  0.642384  0.757045  1.772454  2.494492  1.541
Ni  Ni7  1  0.15650165  0.42867376  0.98139511  1  1.153914  1.558781  0.642488  0.756991  1.772987  2.496903  1.541
H  H8  1  0.24266341  0.12830390  0.30122790  1  0.068889  0.000172  0.102275  0.102789  0.000121  1.019518  0.0
H  H9  1  0.94191300  0.37175884  0.69882417  1  0.055924  0.000173  0.102461  0.102949  0.000121  1.020127  0.0
H  H10  1  0.75732897  0.87169361  0.69877151  1  0.069001  0.000172  0.102255  0.102751  0.000121  1.019436  0.0
H  H11  1  0.05808780  0.62824460  0.30118005  1  0.054134  0.000174  0.102482  0.10296  0.000121  1.02009  0.0
H  H12  1  0.39098313  0.16123750  0.24098275  1  0.082291  8e-06  0.100757  0.113875  -3e-06  1.026716  0.0
H  H13  1  0.15064690  0.33890207  0.75905289  1  0.082879  8e-06  0.10034  0.113303  -3e-06  1.027529  0.0
H  H14  1  0.60900850  0.83876213  0.75901601  1  0.082402  8e-06  0.100767  0.113946  -3e-06  1.026756  0.0
H  H15  1  0.84935360  0.66110435  0.24095212  1  0.082512  8e-06  0.100314  0.11325  -3e-06  1.027553  0.0
H  H16  1  0.67644681  0.04333087  0.31561047  1  0.10965  9.1e-05  0.099326  0.110268  -1.6e-05  1.048723  0.0
H  H17  1  0.36115351  0.45683456  0.68434142  1  0.110849  8.9e-05  0.099401  0.109099  -1.6e-05  1.049714  0.0
H  H18  1  0.32354258  0.95666707  0.68438791  1  0.109995  9.1e-05  0.099268  0.110158  -1.6e-05  1.048686  0.0
H  H19  1  0.63884138  0.54316932  0.31565691  1  0.110572  8.9e-05  0.099396  0.109137  -1.6e-05  1.049715  0.0
H  H20  1  0.52470801  0.00839532  0.37386079  1  0.084593  9.3e-05  0.10637  0.112437  3.6e-05  1.000407  0.0
H  H21  1  0.15100721  0.49167316  0.62606007  1  0.083247  9.3e-05  0.10647  0.112834  3.6e-05  0.99981  0.0
H  H22  1  0.47528092  0.99160135  0.62613610  1  0.084562  9.3e-05  0.106409  0.1124  3.6e-05  1.000571  0.0
H  H23  1  0.84898614  0.50832563  0.37393747  1  0.083242  9.3e-05  0.1065  0.11288  3.6e-05  0.99976  0.0
H  H24  1  0.50420495  0.03160438  0.18929438  1  0.099802  1.8e-05  0.099066  0.110937  -1.5e-05  1.04282  0.0
H  H25  1  0.31517066  0.46845920  0.81068135  1  0.113604  1.7e-05  0.099162  0.11114  -1.6e-05  1.043415  0.0
H  H26  1  0.49579125  0.96839270  0.81070785  1  0.099928  1.8e-05  0.099033  0.110884  -1.5e-05  1.042812  0.0
H  H27  1  0.68482755  0.53154214  0.18931825  1  0.113644  1.7e-05  0.099164  0.111149  -1.6e-05  1.043338  0.0
H  H28  1  0.57892192  0.97398074  0.11016639  1  0.114058  0.000564  0.099148  0.099565  0.000405  1.031835  0.0
H  H29  1  0.46892547  0.52601051  0.88990519  1  0.11006  0.000567  0.099178  0.098956  0.000407  1.032359  0.0
H  H30  1  0.42107896  0.02601506  0.88983755  1  0.113756  0.000564  0.09915  0.099528  0.000405  1.031949  0.0
H  H31  1  0.53107480  0.47398954  0.11009641  1  0.110095  0.000567  0.099184  0.098952  0.000407  1.032355  0.0
H  H32  1  0.92039288  0.08013221  0.13867008  1  0.1097  0.00085  0.102596  0.108871  0.000552  1.028765  0.0
H  H33  1  0.78192878  0.41977668  0.86163165  1  0.099599  0.000865  0.102672  0.109257  0.000556  1.029657  0.0
H  H34  1  0.07959998  0.91986700  0.86133085  1  0.109654  0.000851  0.102563  0.108825  0.000552  1.028736  0.0
H  H35  1  0.21806888  0.58022295  0.13836925  1  0.099574  0.000865  0.102656  0.109239  0.000556  1.029615  0.0
H  H36  1  0.84468903  0.13892584  0.21767154  1  0.079855  0.000105  0.099528  0.111519  4.2e-05  1.020985  0.0
H  H37  1  0.62729717  0.36107064  0.78248374  1  0.068774  0.000106  0.09977  0.112135  4.2e-05  1.021083  0.0
H  H38  1  0.15530335  0.86107252  0.78232984  1  0.079742  0.000105  0.099552  0.11163  4.2e-05  1.020889  0.0
H  H39  1  0.37270106  0.63893112  0.21751589  1  0.068743  0.000106  0.099816  0.112168  4.2e-05  1.020918  0.0
H  H40  1  0.16410085  0.20834129  0.59079785  1  0.092678  0.000561  0.107136  0.111631  0.000387  1.00265  0.0
H  H41  1  0.57318255  0.29170092  0.40908956  1  0.083847  0.000561  0.107046  0.11156  0.000387  1.002591  0.0
H  H42  1  0.83590537  0.79165579  0.40920279  1  0.092734  0.000562  0.107085  0.111578  0.000387  1.002626  0.0
H  H43  1  0.42681554  0.70829786  0.59090980  1  0.083857  0.000561  0.107052  0.111525  0.000387  1.0026  0.0
H  H44  1  0.11430969  0.26308645  0.67938931  1  0.06089  8.9e-05  0.100891  0.111332  4.8e-05  1.036387  0.0
H  H45  1  0.43476884  0.23705873  0.32046417  1  0.085053  8.7e-05  0.101239  0.111623  4.7e-05  1.036839  0.0
H  H46  1  0.88570124  0.73691021  0.32061311  1  0.060517  8.9e-05  0.1009  0.111332  4.8e-05  1.036269  0.0
H  H47  1  0.56523107  0.76294176  0.67953515  1  0.085089  8.7e-05  0.101277  0.111637  4.7e-05  1.036847  0.0
H  H48  1  0.78317278  0.15324779  0.66609957  1  0.059106  7e-05  0.109368  0.12414  2.9e-05  0.988862  0.0
H  H49  1  0.11678642  0.34672654  0.33403939  1  0.073772  6.9e-05  0.10917  0.12364  2.9e-05  0.988349  0.0
H  H50  1  0.21683099  0.84675268  0.33390167  1  0.059079  7e-05  0.10937  0.124161  2.9e-05  0.988794  0.0
H  H51  1  0.88321166  0.65327309  0.66596194  1  0.073834  6.9e-05  0.109158  0.123667  2.9e-05  0.988363  0.0
H  H52  1  0.82978554  0.10086136  0.57765690  1  0.1155  0.000632  0.112195  0.118344  0.000403  1.000412  0.0
H  H53  1  0.25188992  0.39899552  0.42253692  1  0.107277  0.000635  0.112589  0.118647  0.000402  1.000259  0.0
H  H54  1  0.17021564  0.89913912  0.42234370  1  0.115536  0.000632  0.112204  0.118405  0.000402  1.00038  0.0
H  H55  1  0.74810986  0.60100326  0.57746413  1  0.10725  0.000635  0.112572  0.118697  0.000402  1.000169  0.0
H  H56  1  0.04451252  0.14584948  0.75286041  1  0.06995  1e-05  0.097687  0.108684  -1.7e-05  1.051509  0.0
H  H57  1  0.29129094  0.35424030  0.24710220  1  0.067529  1e-05  0.097956  0.109182  -1.7e-05  1.050569  0.0
H  H58  1  0.95549876  0.85415439  0.24714173  1  0.069885  1e-05  0.097693  0.108712  -1.7e-05  1.051518  0.0
H  H59  1  0.70871298  0.64576104  0.75289440  1  0.067564  1e-05  0.09793  0.109155  -1.7e-05  1.050529  0.0
H  H60  1  0.08555343  0.11040670  0.85192017  1  0.095772  0.000152  0.1049  0.112062  5.7e-05  1.001076  0.0
H  H61  1  0.23319163  0.38970096  0.14803219  1  0.097166  0.00015  0.104802  0.112185  5.7e-05  1.000973  0.0
H  H62  1  0.91445699  0.88959675  0.14808108  1  0.095519  0.000152  0.104852  0.112016  5.7e-05  1.000876  0.0
H  H63  1  0.76681533  0.61030081  0.85196458  1  0.097292  0.00015  0.104785  0.11215  5.7e-05  1.000891  0.0
H  H64  1  0.86245005  0.24508875  0.91041702  1  0.100985  0.00016  0.109527  0.117307  6.9e-05  0.988473  0.0
H  H65  1  0.95194577  0.25488923  0.08945129  1  0.11391  0.000159  0.109381  0.117021  6.9e-05  0.98868  0.0
H  H66  1  0.13755202  0.75491173  0.08958253  1  0.101021  0.00016  0.109543  0.117348  6.9e-05  0.988454  0.0
H  H67  1  0.04806257  0.74511423  0.91054595  1  0.113747  0.000159  0.109395  0.117061  6.9e-05  0.988567  0.0
H  H68  1  0.82924508  0.28442723  0.81260261  1  0.063999  0.000224  0.103892  0.118657  9.8e-05  0.997799  0.0
H  H69  1  0.01650413  0.21559200  0.18728274  1  0.067819  0.000225  0.103946  0.118453  9.8e-05  0.998423  0.0
H  H70  1  0.17075661  0.71557452  0.18739758  1  0.064014  0.000224  0.103855  0.118598  9.8e-05  0.997849  0.0
H  H71  1  0.98349379  0.78441103  0.81271375  1  0.06774  0.000225  0.103937  0.118471  9.8e-05  0.998472  0.0
H  H72  1  0.11600408  0.16174058  0.35715768  1  0.148999  0.001804  0.119907  0.097184  0.000652  1.02171  0.001
H  H73  1  0.75909005  0.33829255  0.64306755  1  0.119441  0.001814  0.12012  0.097609  0.000652  1.020882  0.001
H  H74  1  0.88399409  0.83825864  0.64283889  1  0.149229  0.001803  0.119961  0.097213  0.000651  1.021775  0.001
H  H75  1  0.24090585  0.66170539  0.35693056  1  0.119219  0.001816  0.120128  0.097634  0.000652  1.020793  0.001
H  H76  1  0.99768491  0.23580699  0.29906209  1  0.084204  0.000733  0.103076  0.113544  0.000345  1.08107  0.0
H  H77  1  0.69861426  0.26429576  0.70115659  1  0.129251  0.000719  0.103372  0.11478  0.000345  1.079832  0.0
H  H78  1  0.00230847  0.76419264  0.70093647  1  0.084275  0.000733  0.10303  0.113455  0.000346  1.08095  0.0
H  H79  1  0.30138684  0.73570218  0.29884188  1  0.129249  0.000719  0.103368  0.114749  0.000345  1.079871  0.0
H  H80  1  0.66763681  0.19825131  0.37073294  1  0.087397  0.000958  0.116351  0.138733  0.000431  0.985422  0.0
H  H81  1  0.29700443  0.30192750  0.62930792  1  0.074279  0.00096  0.115809  0.137438  0.000431  0.985569  0.0
H  H82  1  0.33236002  0.80174875  0.62926716  1  0.087393  0.000958  0.116343  0.138718  0.000431  0.98548  0.0
H  H83  1  0.70299471  0.69806872  0.37069720  1  0.074313  0.00096  0.115844  0.13749  0.000431  0.985513  0.0
H  H84  1  0.80129928  0.12387262  0.42416875  1  0.132857  0.001832  0.12157  0.098868  0.000639  0.991943  0.001
H  H85  1  0.37749365  0.37628809  0.57592800  1  0.13248  0.001839  0.121304  0.098912  0.000639  0.992966  0.001
H  H86  1  0.19870232  0.87612702  0.57583030  1  0.132896  0.001832  0.121572  0.098889  0.000639  0.991903  0.001
H  H87  1  0.62250047  0.62371069  0.42407417  1  0.132332  0.001839  0.121292  0.098897  0.000639  0.993127  0.001
H  H88  1  0.57523944  0.48769427  0.43496018  1  0.176744  0.002125  0.12427  0.109917  0.000705  1.028398  0.002
H  H89  1  0.14069861  0.01223989  0.56500515  1  0.177315  0.002129  0.124284  0.110049  0.000707  1.028234  0.002
H  H90  1  0.42475474  0.51230578  0.56504210  1  0.176736  0.002125  0.124243  0.109882  0.000705  1.028398  0.002
H  H91  1  0.85930688  0.98775933  0.43499389  1  0.177377  0.002128  0.124265  0.110012  0.000707  1.028246  0.002
H  H92  1  0.65439597  0.41911412  0.36927764  1  0.084725  0.000835  0.11921  0.141351  0.000399  0.99442  0.0
H  H93  1  0.28538558  0.08087840  0.63072681  1  0.086876  0.000837  0.119182  0.141281  0.0004  0.994653  0.0
H  H94  1  0.34560082  0.58088635  0.63072533  1  0.084668  0.000836  0.119183  0.141267  0.000399  0.994473  0.0
H  H95  1  0.71461473  0.91912123  0.36927191  1  0.086932  0.000837  0.119178  0.141275  0.0004  0.994615  0.0
H  H96  1  0.34945301  0.47044771  0.22823843  1  0.120624  0.000904  0.113388  0.137641  0.000417  0.999495  0.0
H  H97  1  0.12093185  0.02970378  0.77164782  1  0.121468  0.000906  0.113436  0.137572  0.000418  0.998787  0.0
H  H98  1  0.65054722  0.52955191  0.77176407  1  0.120541  0.000904  0.113332  0.137541  0.000417  0.999558  0.0
H  H99  1  0.87907616  0.97029373  0.22835172  1  0.121417  0.000906  0.113394  0.137527  0.000418  0.998835  0.0
H  H100  1  0.27900344  0.53756485  0.30275890  1  0.100699  0.00195  0.119303  0.091875  0.000666  0.99589  0.001
H  H101  1  0.97623942  0.96246338  0.69710748  1  0.115884  0.001952  0.119387  0.092963  0.000668  0.995504  0.001
H  H102  1  0.72099375  0.46243436  0.69724249  1  0.1007  0.001949  0.119295  0.091874  0.000665  0.995869  0.001
H  H103  1  0.02377062  0.03753116  0.30289201  1  0.115884  0.001952  0.119376  0.092956  0.000668  0.995527  0.001
H  H104  1  0.16776325  0.17309908  0.10150976  1  0.115096  0.002421  0.119123  0.095792  0.000825  1.011775  0.002
H  H105  1  0.06661411  0.32692301  0.89853651  1  0.105266  0.002421  0.119086  0.095497  0.000823  1.013121  0.002
H  H106  1  0.83223792  0.82690224  0.89849280  1  0.115093  0.002421  0.119164  0.095788  0.000825  1.011802  0.002
H  H107  1  0.93338844  0.67307917  0.10146457  1  0.105197  0.002421  0.119092  0.09546  0.000823  1.013207  0.002
H  H108  1  0.32263089  0.24624193  0.15920443  1  0.098214  0.000843  0.102529  0.115619  0.000401  1.074324  0.0
H  H109  1  0.16366010  0.25377202  0.84081876  1  0.105459  0.000837  0.102009  0.115048  0.0004  1.074927  0.0
H  H110  1  0.67737282  0.75375811  0.84079866  1  0.098198  0.000843  0.102556  0.115639  0.000401  1.07436  0.0
H  H111  1  0.83633970  0.74622761  0.15918332  1  0.105788  0.000836  0.10199  0.115006  0.0004  1.07496  0.0
H  H112  1  0.62563387  0.15741079  0.09364008  1  0.096978  0.001149  0.113536  0.136469  0.000548  0.989022  0.0
H  H113  1  0.53232407  0.34253587  0.90632324  1  0.102804  0.001146  0.113496  0.136968  0.000549  0.988446  0.0
H  H114  1  0.37436567  0.84259139  0.90635992  1  0.096988  0.001149  0.113552  0.136503  0.000548  0.989048  0.0
H  H115  1  0.46767752  0.65746334  0.09367577  1  0.102855  0.001146  0.113507  0.136965  0.000549  0.98851  0.0
H  H116  1  0.45399329  0.08806080  0.03752507  1  0.143736  0.002161  0.122438  0.103831  0.000719  0.995459  0.002
H  H117  1  0.41690133  0.41196043  0.96240091  1  0.110062  0.002182  0.121989  0.103064  0.00072  0.995441  0.002
H  H118  1  0.54600613  0.91193968  0.96247666  1  0.143657  0.002161  0.122508  0.103944  0.000719  0.995355  0.002
H  H119  1  0.58310370  0.58803877  0.03759959  1  0.110062  0.002182  0.12201  0.103095  0.00072  0.995386  0.002
H  H120  1  0.96854937  0.55422211  0.14328353  1  0.103397  0.001576  0.119848  0.091475  0.000439  0.992899  0.001
H  H121  1  0.82555812  0.94591336  0.85684425  1  0.098378  0.001579  0.12007  0.092006  0.000439  0.992017  0.001
H  H122  1  0.03145051  0.44577795  0.85671575  1  0.10342  0.001576  0.119838  0.091455  0.000439  0.992914  0.001
H  H123  1  0.17444565  0.05408669  0.14315601  1  0.098407  0.001579  0.12007  0.091989  0.000439  0.992017  0.001
H  H124  1  0.95407941  0.48484956  0.21637969  1  0.072847  0.000891  0.114454  0.136996  0.000414  0.98791  0.0
H  H125  1  0.73802798  0.01530565  0.78375797  1  0.11942  0.00087  0.114336  0.13656  0.000414  0.98902  0.0
H  H126  1  0.04592133  0.51515050  0.78362044  1  0.072858  0.000891  0.114464  0.137016  0.000414  0.987892  0.0
H  H127  1  0.26197667  0.98469399  0.21624121  1  0.119466  0.00087  0.114357  0.136602  0.000414  0.988964  0.0
H  H128  1  0.70295402  0.38148748  0.07540929  1  0.097553  0.000795  0.117132  0.135826  0.000377  0.99737  0.0
H  H129  1  0.62786825  0.11863989  0.92473205  1  0.081371  0.000807  0.117004  0.135704  0.000377  0.997028  0.0
H  H130  1  0.29704451  0.61851215  0.92459152  1  0.097564  0.000795  0.117133  0.135822  0.000377  0.99737  0.0
H  H131  1  0.37212952  0.88136060  0.07526610  1  0.081376  0.000807  0.117085  0.135843  0.000377  0.997099  0.0
H  H132  1  0.72403672  0.45488042  0.01115788  1  0.102297  0.001842  0.1203  0.087019  0.000573  1.011275  0.001
H  H133  1  0.71316553  0.04522781  0.98897647  1  0.1036  0.001844  0.120284  0.087117  0.000572  1.010971  0.001
H  H134  1  0.27596312  0.54511921  0.98884231  1  0.102276  0.001842  0.120287  0.087018  0.000573  1.011302  0.001
H  H135  1  0.28683395  0.95477268  0.01102243  1  0.103581  0.001845  0.120328  0.087169  0.000572  1.010976  0.001
H  H136  1  0.73609346  0.31803095  0.14369578  1  0.077875  -7e-06  0.111575  0.08626  -9e-06  0.979711  0.0
H  H137  1  0.59225218  0.18206530  0.85634090  1  0.085076  -8e-06  0.111949  0.087269  -9e-06  0.97945  0.0
H  H138  1  0.26390466  0.68196953  0.85630563  1  0.077832  -7e-06  0.111609  0.08629  -9e-06  0.979627  0.0
H  H139  1  0.40774726  0.81793476  0.14365891  1  0.085067  -8e-06  0.111934  0.087231  -9e-06  0.979472  0.0
H  H140  1  0.61961682  0.37139629  0.15102139  1  0.056921  -1.8e-05  0.112329  0.084514  -2.5e-05  0.981178  0.0
H  H141  1  0.46858481  0.12864953  0.84902704  1  0.067056  -1.9e-05  0.112339  0.084946  -2.5e-05  0.98147  0.0
H  H142  1  0.38038176  0.62860462  0.84897953  1  0.056927  -1.8e-05  0.112326  0.084514  -2.5e-05  0.981197  0.0
H  H143  1  0.53141760  0.87134925  0.15097278  1  0.067148  -2e-05  0.112373  0.084957  -2.5e-05  0.981454  0.0
H  H144  1  0.52097313  0.26744086  0.23682602  1  0.098095  -7.8e-05  0.106838  0.080358  -6e-05  0.998683  0.0
H  H145  1  0.28405559  0.23253649  0.76316224  1  0.063073  -7.8e-05  0.106891  0.080198  -6e-05  0.998462  0.0
H  H146  1  0.47902849  0.73256046  0.76317602  1  0.072665  -7.8e-05  0.10682  0.080263  -6e-05  0.998745  0.0
H  H147  1  0.71594557  0.76746314  0.23683732  1  0.063069  -7.8e-05  0.106901  0.080215  -6e-05  0.998416  0.0
H  H148  1  0.47389777  0.31320970  0.17930180  1  0.087159  -4.7e-05  0.109337  0.084275  -3.7e-05  0.993113  0.0
H  H149  1  0.29456722  0.18677108  0.82068643  1  0.08472  -4.7e-05  0.109171  0.083663  -3.7e-05  0.993291  0.0
H  H150  1  0.52610299  0.68679120  0.82069935  1  0.087153  -4.7e-05  0.10936  0.084252  -3.7e-05  0.993152  0.0
H  H151  1  0.70543220  0.81322856  0.17931334  1  0.084719  -4.7e-05  0.10916  0.083667  -3.7e-05  0.993293  0.0
H  H152  1  0.63408866  0.34542137  0.30990328  1  0.070402  -3.8e-05  0.108791  0.07866  -3.7e-05  1.014535  0.0
H  H153  1  0.32442205  0.15453992  0.69003031  1  0.064799  -3.8e-05  0.108875  0.078428  -3.7e-05  1.014628  0.0
H  H154  1  0.36591296  0.65457953  0.69009778  1  0.070427  -3.8e-05  0.108812  0.078722  -3.7e-05  1.01449  0.0
H  H155  1  0.67558089  0.84546015  0.30996816  1  0.064773  -3.8e-05  0.108865  0.078446  -3.7e-05  1.014669  0.0
H  H156  1  0.73859944  0.39530997  0.28866586  1  0.073282  -6.5e-05  0.1116  0.086069  -5.6e-05  0.975399  0.0
H  H157  1  0.44996129  0.10459166  0.71145232  1  0.058103  -6.5e-05  0.111669  0.086947  -5.6e-05  0.974594  0.0
H  H158  1  0.26140344  0.60469051  0.71133642  1  0.073342  -6.5e-05  0.111544  0.085995  -5.6e-05  0.975422  0.0
H  H159  1  0.55003989  0.89540798  0.28854631  1  0.058219  -6.5e-05  0.111663  0.086929  -5.6e-05  0.974699  0.0
H  H160  1  0.80955226  0.25449984  0.22263629  1  0.087658  -4.1e-05  0.108264  0.078261  -3.4e-05  1.003612  0.0
H  H161  1  0.58691848  0.24548561  0.77737869  1  0.059736  -4e-05  0.108123  0.077909  -3.3e-05  1.00433  0.0
H  H162  1  0.19044767  0.74550107  0.77736307  1  0.08764  -4.1e-05  0.108257  0.078275  -3.4e-05  1.003638  0.0
H  H163  1  0.41308264  0.75451360  0.22262178  1  0.059878  -4e-05  0.108119  0.077913  -3.3e-05  1.004348  0.0
H  H164  1  0.87389368  0.31350888  0.27363607  1  0.06486  -2.1e-05  0.109121  0.083252  -1.7e-05  0.973254  0.0
H  H165  1  0.60013562  0.18649916  0.72633358  1  0.065249  -2.1e-05  0.109382  0.083826  -1.7e-05  0.972483  0.0
H  H166  1  0.12610787  0.68649075  0.72636581  1  0.064906  -2.1e-05  0.109119  0.083227  -1.7e-05  0.973316  0.0
H  H167  1  0.39986847  0.81349919  0.27366789  1  0.065276  -2.1e-05  0.109361  0.083814  -1.7e-05  0.972519  0.0
H  H168  1  0.23161096  0.00111083  0.45025720  1  0.657365  -8.1e-05  0.278972  0.370171  8.5e-05  0.981239  0.0
H  H169  1  0.78149593  0.49887127  0.54966159  1  0.656776  -9.6e-05  0.279706  0.37149  8.2e-05  0.979814  0.0
H  H170  1  0.76838631  0.99888965  0.54974336  1  0.65733  -8e-05  0.279026  0.370307  8.5e-05  0.98105  0.0
H  H171  1  0.21850168  0.50112582  0.45033626  1  0.656585  -9.6e-05  0.279712  0.37148  8.2e-05  0.979824  0.0
H  H172  1  0.02518233  0.87989125  0.97076155  1  0.643507  9.4e-05  0.27786  0.370444  0.000348  0.981235  0.0
H  H173  1  0.05432768  0.62015448  0.02930294  1  0.638917  9.1e-05  0.277656  0.370876  0.000348  0.980495  0.0
H  H174  1  0.97481535  0.12010796  0.02923743  1  0.643489  9.4e-05  0.277916  0.370562  0.000348  0.981075  0.0
H  H175  1  0.94567273  0.37984728  0.97069598  1  0.638969  9.1e-05  0.277573  0.370693  0.000348  0.980731  0.0
H  H176  1  0.02697800  0.94153185  0.94303154  1  0.65202  0.000279  0.284789  0.375664  0.000546  0.974458  0.0
H  H177  1  0.08375850  0.55845136  0.05690818  1  0.650152  0.00026  0.284486  0.376082  0.000546  0.973825  0.0
H  H178  1  0.97302140  0.05846735  0.05696818  1  0.652005  0.000278  0.284773  0.375653  0.000546  0.974468  0.0
H  H179  1  0.91624100  0.44154870  0.94308879  1  0.650145  0.000261  0.284519  0.376112  0.000546  0.973788  0.0
H  H180  1  0.12208502  0.97458541  0.47950075  1  0.660264  0.000592  0.286635  0.374064  0.000809  0.971973  0.001
H  H181  1  0.64269150  0.52543011  0.52045254  1  0.645558  0.000594  0.286587  0.374086  0.000815  0.971737  0.001
H  H182  1  0.87791270  0.02541507  0.52049929  1  0.660253  0.000593  0.286651  0.374117  0.000809  0.971896  0.001
H  H183  1  0.35730655  0.47456825  0.47954773  1  0.645505  0.000594  0.286603  0.374071  0.000815  0.97173  0.001
C  C184  1  0.28838209  0.04668125  0.37826667  1  1.578639  -0.001691  0.205382  0.57036  -0.002145  4.209538  -0.002
C  C185  1  0.91043079  0.45325963  0.62163006  1  1.582353  -0.001669  0.207184  0.572424  -0.00215  4.205201  -0.002
C  C186  1  0.71160833  0.95331967  0.62173094  1  1.585606  -0.001688  0.205307  0.570118  -0.002145  4.209867  -0.002
C  C187  1  0.08956613  0.54674128  0.37836823  1  1.582513  -0.001671  0.207199  0.572427  -0.002151  4.205057  -0.002
C  C188  1  0.37464850  0.06600227  0.34082366  1  -0.007721  0.006954  -0.024182  -0.048986  0.004119  3.981646  0.005
C  C189  1  0.03416063  0.43401025  0.65911958  1  0.000762  0.006934  -0.0245  -0.052466  0.004119  3.983138  0.005
C  C190  1  0.62534642  0.93399312  0.65917432  1  -0.007856  0.006955  -0.024115  -0.048915  0.004119  3.981801  0.005
C  C191  1  0.96583477  0.56598768  0.34088189  1  0.000539  0.006935  -0.024524  -0.052608  0.004119  3.983186  0.005
C  C192  1  0.33723242  0.10937266  0.30391478  1  -0.024179  -0.000578  -0.085827  -0.077545  -0.000687  3.98816  0.0
C  C193  1  0.03377268  0.39068007  0.69607932  1  -0.009083  -0.000576  -0.08538  -0.076148  -0.000683  3.989405  0.0
C  C194  1  0.66275525  0.89062528  0.69608284  1  -0.024346  -0.000578  -0.085813  -0.077496  -0.000687  3.988298  0.0
C  C195  1  0.96622517  0.60932380  0.30392198  1  0.008012  -0.000577  -0.085372  -0.076112  -0.000684  3.989136  0.0
C  C196  1  0.41985131  0.12845365  0.27089857  1  -0.014507  0.000186  -0.106447  -0.20773  3.5e-05  4.013711  0.0
C  C197  1  0.14947436  0.37164822  0.72909956  1  -0.021968  0.000185  -0.105723  -0.206456  3.5e-05  4.014291  0.0
C  C198  1  0.58014154  0.87154429  0.72910036  1  -0.014893  0.000186  -0.106435  -0.207788  3.5e-05  4.013688  0.0
C  C199  1  0.85052254  0.62835438  0.27090266  1  -0.037011  0.000184  -0.105761  -0.206495  3.5e-05  4.014557  0.0
C  C200  1  0.54142623  0.10442023  0.27616663  1  0.333782  -0.000608  0.078943  0.249705  -0.000689  4.064604  0.0
C  C201  1  0.26571992  0.39569908  0.72377209  1  0.356767  -0.000603  0.078554  0.248301  -0.000684  4.065234  0.0
C  C202  1  0.45856322  0.89557856  0.72383088  1  0.333704  -0.000608  0.078886  0.249607  -0.00069  4.064631  0.0
C  C203  1  0.73428101  0.60430438  0.27622646  1  0.356715  -0.000603  0.078715  0.248592  -0.000685  4.064992  0.0
C  C204  1  0.58064038  0.06104962  0.31254943  1  -0.010902  0.000741  -0.103564  -0.2043  0.000377  4.013392  0.001
C  C205  1  0.26844187  0.43906922  0.68739597  1  -0.05049  0.000745  -0.10344  -0.202635  0.000377  4.014288  0.001
C  C206  1  0.41935288  0.93894747  0.68744890  1  -0.01109  0.000741  -0.103374  -0.203823  0.000377  4.013298  0.001
C  C207  1  0.73155670  0.56093083  0.31260394  1  -0.050175  0.000745  -0.10351  -0.202827  0.000377  4.014144  0.001
C  C208  1  0.49658543  0.04168004  0.34446130  1  -0.040806  0.000554  -0.08179  -0.072171  7.8e-05  3.973325  0.0
C  C209  1  0.15240827  0.45838547  0.65546634  1  -0.032283  0.000562  -0.081648  -0.071225  7.9e-05  3.973739  0.0
C  C210  1  0.50340312  0.95831748  0.65553525  1  -0.040409  0.000553  -0.081953  -0.072391  7.7e-05  3.973439  0.0
C  C211  1  0.84759123  0.54161544  0.34453260  1  -0.03218  0.000562  -0.081644  -0.071165  7.9e-05  3.974008  0.0
C  C212  1  0.66990494  0.08909984  0.20685342  1  0.440838  -0.000918  0.087586  0.267825  -0.001059  4.04612  -0.001
C  C213  1  0.46339521  0.41096258  0.79316795  1  0.36516  -0.00092  0.088019  0.269182  -0.00106  4.048274  -0.001
C  C214  1  0.33008708  0.91089894  0.79314568  1  0.440835  -0.000919  0.087712  0.268158  -0.001059  4.04595  -0.001
C  C215  1  0.53660208  0.58903832  0.20683265  1  0.365115  -0.00092  0.08797  0.269149  -0.00106  4.048382  -0.001
C  C216  1  0.59560182  0.04179543  0.17842073  1  0.008864  0.000656  -0.108193  -0.21312  0.000236  4.005332  0.001
C  C217  1  0.41743646  0.45824841  0.82159369  1  0.023975  0.000657  -0.108482  -0.21451  0.000236  4.005719  0.001
C  C218  1  0.40439229  0.95820250  0.82158042  1  0.008965  0.000656  -0.108202  -0.213202  0.000236  4.005416  0.001
C  C219  1  0.58256167  0.54175165  0.17840673  1  0.024  0.000657  -0.108498  -0.214523  0.000236  4.005667  0.001
C  C220  1  0.63749145  0.00962112  0.13458192  1  -0.080654  0.000366  -0.082082  -0.061067  3.1e-05  3.987436  0.0
C  C221  1  0.50310543  0.49039108  0.86548378  1  -0.118534  0.00037  -0.082086  -0.059547  3.3e-05  3.986473  0.0
C  C222  1  0.36250913  0.99037681  0.86542085  1  -0.080443  0.000365  -0.08212  -0.061009  3.1e-05  3.987529  0.0
C  C223  1  0.49689144  0.50960983  0.13451640  1  -0.118696  0.00037  -0.082064  -0.059536  3.3e-05  3.986565  0.0
C  C224  1  0.75376976  0.02321502  0.11946594  1  -0.021302  0.003832  -0.033556  -0.073821  0.002406  4.022335  0.002
C  C225  1  0.63448859  0.47678031  0.88065858  1  -2.4e-05  0.003819  -0.033928  -0.073754  0.002404  4.024685  0.002
C  C226  1  0.24622786  0.97678376  0.88053489  1  -0.021183  0.003832  -0.033434  -0.073703  0.002405  4.02227  0.002
C  C227  1  0.36551002  0.52322059  0.11934140  1  2.5e-05  0.00382  -0.033935  -0.073789  0.002404  4.024772  0.002
C  C228  1  0.82982368  0.06940787  0.15014186  1  -0.047969  0.000782  -0.086201  -0.078622  0.000288  3.988606  0.001
C  C229  1  0.67992398  0.43056088  0.85005004  1  -0.017057  0.00078  -0.086337  -0.079709  0.000293  3.989678  0.001
C  C230  1  0.17017273  0.93059261  0.84985880  1  -0.04793  0.000782  -0.08617  -0.078544  0.000287  3.98856  0.001
C  C231  1  0.32007548  0.56944002  0.14995079  1  -0.016935  0.00078  -0.086334  -0.079688  0.000293  3.989669  0.001
C  C232  1  0.78801427  0.10250612  0.19368300  1  -0.096458  0.000818  -0.106571  -0.208253  0.000367  4.005384  0.001
C  C233  1  0.59463254  0.39749939  0.80644895  1  -0.036956  0.000821  -0.106988  -0.209316  0.000367  4.007793  0.001
C  C234  1  0.21197737  0.89749310  0.80631478  1  -0.096619  0.000818  -0.106646  -0.20853  0.000367  4.005346  0.001
C  C235  1  0.40536775  0.60250066  0.19355170  1  -0.036998  0.000821  -0.106993  -0.209316  0.000367  4.007797  0.001
C  C236  1  0.78883154  0.99021009  0.06910407  1  1.509504  -0.003489  0.19302  0.541015  -0.004772  4.21838  -0.005
C  C237  1  0.71982552  0.50979517  0.93102803  1  1.534969  -0.003461  0.192915  0.538945  -0.004785  4.221741  -0.005
C  C238  1  0.21116697  0.00978911  0.93089670  1  1.509489  -0.003489  0.193025  0.540951  -0.004771  4.218437  -0.005
C  C239  1  0.28017179  0.49020574  0.06897162  1  1.534935  -0.003463  0.19295  0.539028  -0.004786  4.221597  -0.005
C  C240  1  0.00109924  0.15127419  0.57915326  1  -0.031232  0.003718  -0.021355  -0.047494  0.002345  3.995702  0.003
C  C241  1  0.42176966  0.34865644  0.42091885  1  -0.044027  0.003721  -0.021496  -0.04881  0.002346  3.997031  0.003
C  C242  1  0.99890401  0.84872375  0.42084639  1  -0.031226  0.003718  -0.02138  -0.047412  0.002345  3.995814  0.003
C  C243  1  0.57822665  0.65134150  0.57908063  1  -0.043648  0.003721  -0.021545  -0.048969  0.002346  3.99718  0.003
C  C244  1  0.08113367  0.19691395  0.60794948  1  -0.090948  0.000132  -0.080541  -0.071878  -0.00013  3.974659  0.0
C  C245  1  0.47298604  0.30309547  0.39200851  1  -0.035283  0.000122  -0.080665  -0.071879  -0.000128  3.974663  0.0
C  C246  1  0.91887211  0.80308313  0.39205168  1  -0.090647  0.000132  -0.080427  -0.071861  -0.00013  3.974542  0.0
C  C247  1  0.52701379  0.69690332  0.60799066  1  -0.035806  0.000122  -0.08066  -0.071818  -0.000129  3.974548  0.0
C  C248  1  0.05427026  0.22693932  0.65706302  1  0.034302  0.000541  -0.101512  -0.199326  0.000208  3.992334  0.0
C  C249  1  0.39697787  0.27312376  0.34285874  1  -0.03821  0.000544  -0.101274  -0.198792  0.000208  3.992906  0.0
C  C250  1  0.94573772  0.77305861  0.34293844  1  0.034406  0.00054  -0.101479  -0.19927  0.000208  3.992154  0.0
C  C251  1  0.60302248  0.72687672  0.65714007  1  -0.038227  0.000544  -0.101325  -0.198787  0.000208  3.99281  0.0
C  C252  1  0.94694246  0.21078168  0.67739701  1  0.376059  -0.001094  0.082817  0.25556  -0.001236  4.0383  -0.001
C  C253  1  0.26928460  0.28927151  0.32257429  1  0.408301  -0.001091  0.081425  0.253839  -0.001234  4.041397  -0.001
C  C254  1  0.05306601  0.78921710  0.32260401  1  0.375803  -0.001094  0.082793  0.255597  -0.001236  4.038475  -0.001
C  C255  1  0.73071494  0.71072983  0.67742374  1  0.408326  -0.00109  0.081452  0.253893  -0.001233  4.041304  -0.001
C  C256  1  0.86626326  0.16535113  0.64939629  1  0.049387  0.000576  -0.095648  -0.193299  0.000226  3.992127  0.0
C  C257  1  0.21660710  0.33462370  0.35068141  1  0.023549  0.000575  -0.094942  -0.192173  0.000225  3.991104  0.0
C  C258  1  0.13374138  0.83464935  0.35060485  1  0.049561  0.000576  -0.09565  -0.19333  0.000226  3.99209  0.0
C  C259  1  0.78339279  0.66537636  0.64931788  1  0.023481  0.000575  -0.094972  -0.192304  0.000225  3.991076  0.0
C  C260  1  0.89324721  0.13590252  0.60008082  1  -0.029704  0.000287  -0.075923  -0.062044  -3.3e-05  3.951252  0.0
C  C261  1  0.29292270  0.36401228  0.40003186  1  -0.020579  0.000272  -0.076058  -0.061633  -3.4e-05  3.94989  0.0
C  C262  1  0.10675650  0.86409668  0.39992030  1  -0.029785  0.000288  -0.075936  -0.062122  -3.3e-05  3.9512  0.0
C  C263  1  0.70707713  0.63598693  0.59996829  1  -0.020557  0.000272  -0.07599  -0.061544  -3.4e-05  3.949719  0.0
C  C264  1  0.93439986  0.21736097  0.77720409  1  0.402574  0.000771  0.077242  0.248266  0.000422  4.064342  0.0
C  C265  1  0.15691871  0.28269878  0.22272358  1  0.347823  0.000775  0.077015  0.248054  0.000419  4.063323  0.0
C  C266  1  0.06560614  0.78263994  0.22279553  1  0.399918  0.000771  0.077228  0.24823  0.000422  4.064228  0.0
C  C267  1  0.84308350  0.71730383  0.77727427  1  0.347657  0.000775  0.076986  0.247953  0.000419  4.063329  0.0
C  C268  1  0.00511824  0.16778324  0.78726184  1  -0.037295  -7.1e-05  -0.115937  -0.233555  -0.000145  4.042462  0.0
C  C269  1  0.21754346  0.33228457  0.21268388  1  -0.044415  -6.7e-05  -0.11739  -0.235319  -0.000143  4.043499  0.0
C  C270  1  0.99488824  0.83221894  0.21273832  1  -0.037167  -7.1e-05  -0.115967  -0.23366  -0.000145  4.042444  0.0
C  C271  1  0.78246169  0.66771634  0.78731489  1  -0.04454  -6.7e-05  -0.117378  -0.235259  -0.000143  4.043496  0.0
C  C272  1  0.02665756  0.14767644  0.84228131  1  -0.05627  0.000404  -0.084719  -0.070055  0.000119  3.98516  0.0
C  C273  1  0.18405729  0.35238332  0.15765913  1  -0.049128  0.000404  -0.08347  -0.068862  0.000117  3.986402  0.0
C  C274  1  0.97335056  0.85232403  0.15771944  1  -0.055805  0.000404  -0.084717  -0.070055  0.000119  3.984992  0.0
C  C275  1  0.81594838  0.64761887  0.84233829  1  -0.048996  0.000404  -0.083406  -0.068804  0.000117  3.986447  0.0
C  C276  1  0.97542203  0.17501357  0.88683835  1  -0.010984  0.006042  -0.024001  -0.04409  0.003514  3.970428  0.005
C  C277  1  0.08838080  0.32501183  0.11307700  1  0.02326  0.006012  -0.023741  -0.044867  0.003512  3.970942  0.005
C  C278  1  0.02458392  0.82498691  0.11316217  1  -0.010991  0.006042  -0.024008  -0.044025  0.003515  3.970219  0.005
C  C279  1  0.91162441  0.67498993  0.88692090  1  0.02321  0.006013  -0.023738  -0.044822  0.003512  3.970849  0.005
C  C280  1  0.90130014  0.22355136  0.87548822  1  -0.049837  0.002145  -0.081533  -0.076889  0.00116  3.981478  0.001
C  C281  1  0.02563321  0.27644956  0.12439880  1  -0.077335  0.002154  -0.081206  -0.075367  0.001157  3.980488  0.001
C  C282  1  0.09870357  0.77644784  0.12451291  1  -0.049904  0.002145  -0.081479  -0.076915  0.00116  3.981254  0.001
C  C283  1  0.97437165  0.72355347  0.87559786  1  -0.07681  0.002155  -0.081259  -0.075442  0.001158  3.980272  0.001
C  C284  1  0.88205676  0.24528853  0.82112006  1  -0.051682  0.000571  -0.108712  -0.216776  0.00034  4.013635  0.0
C  C285  1  0.06072789  0.25473953  0.17877759  1  -0.019992  0.000567  -0.10949  -0.217845  0.000342  4.014824  0.0
C  C286  1  0.11794529  0.75471195  0.17888043  1  -0.049337  0.00057  -0.108727  -0.216705  0.00034  4.01365  0.0
C  C287  1  0.93927346  0.74526266  0.82121938  1  -0.020251  0.000567  -0.109522  -0.217911  0.000342  4.015007  0.0
C  C288  1  0.00470136  0.15207559  0.94578204  1  1.594267  2.7e-05  0.20499  0.578353  -0.000265  4.2017  0.0
C  C289  1  0.05887158  0.34793636  0.05412832  1  1.603626  2.3e-05  0.204348  0.577627  -0.000273  4.203968  0.0
C  C290  1  0.99531071  0.84792531  0.05421784  1  1.594303  2.8e-05  0.204933  0.578296  -0.000265  4.201997  0.0
C  C291  1  0.94113463  0.65206880  0.94587074  1  1.603825  2.5e-05  0.204487  0.577934  -0.000273  4.203781  0.0
C  C292  1  0.01594540  0.17103361  0.35823498  1  0.408357  -0.003353  0.050145  0.123943  -0.004064  3.938144  -0.003
C  C293  1  0.65792571  0.32903880  0.64195092  1  0.536034  -0.003472  0.049976  0.123277  -0.00406  3.936223  -0.003
C  C294  1  0.98405096  0.82896476  0.64176360  1  0.407888  -0.003352  0.050054  0.123843  -0.004064  3.938178  -0.003
C  C295  1  0.34207711  0.67095955  0.35804928  1  0.536272  -0.003472  0.049866  0.123097  -0.004058  3.93624  -0.003
C  C296  1  0.94866539  0.21250579  0.32588643  1  0.071537  0.005224  -0.112374  -0.283395  0.002905  3.999115  0.004
C  C297  1  0.62285182  0.28760477  0.67429803  1  -0.112034  0.005366  -0.112924  -0.284473  0.002905  4.000693  0.004
C  C298  1  0.05133195  0.78749470  0.67411129  1  0.071594  0.005223  -0.112282  -0.283219  0.002904  3.999161  0.004
C  C299  1  0.37714756  0.71239401  0.32570166  1  -0.11196  0.005367  -0.112899  -0.284372  0.002906  4.000571  0.004
C  C300  1  0.82073780  0.22247421  0.32974332  1  0.462916  -0.004727  0.100082  0.300091  -0.005295  4.069411  -0.003
C  C301  1  0.49105190  0.27764856  0.67037807  1  0.497865  -0.004724  0.100285  0.299587  -0.005294  4.070999  -0.003
C  C302  1  0.17925725  0.77752499  0.67025689  1  0.462935  -0.004728  0.100019  0.29997  -0.005296  4.069453  -0.003
C  C303  1  0.50895561  0.72234895  0.32962387  1  0.498012  -0.004724  0.100333  0.29964  -0.005294  4.070986  -0.003
C  C304  1  0.76699263  0.19140353  0.36681828  1  -0.005161  0.005044  -0.095221  -0.237843  0.002805  3.961786  0.004
C  C305  1  0.40030231  0.30875459  0.63329428  1  0.040505  0.005022  -0.094362  -0.234536  0.002806  3.961441  0.004
C  C306  1  0.23300683  0.80859695  0.63318157  1  -0.005103  0.005044  -0.095204  -0.23776  0.002805  3.961738  0.004
C  C307  1  0.59969480  0.69124334  0.36670793  1  0.040449  0.00502  -0.094402  -0.234631  0.002805  3.961499  0.004
C  C308  1  0.84052180  0.15009762  0.39616273  1  0.471785  -0.003042  0.044907  0.105819  -0.003627  3.95414  -0.002
C  C309  1  0.44461791  0.35003831  0.60396412  1  0.436841  -0.003076  0.044912  0.103885  -0.003629  3.956868  -0.002
C  C310  1  0.15947629  0.84990116  0.60383663  1  0.471842  -0.003041  0.044852  0.105649  -0.003626  3.95424  -0.002
C  C311  1  0.55538182  0.64995962  0.39603780  1  0.436866  -0.003076  0.044924  0.103978  -0.003629  3.957043  -0.002
C  C312  1  0.52546087  0.48271726  0.38912963  1  0.484513  -0.00431  0.049157  0.113778  -0.004816  3.939091  -0.003
C  C313  1  0.13666105  0.01724625  0.61082542  1  0.481854  -0.004293  0.048491  0.11308  -0.004824  3.938284  -0.003
C  C314  1  0.47453418  0.51728279  0.61087255  1  0.484521  -0.00431  0.049167  0.113777  -0.004817  3.939081  -0.003
C  C315  1  0.86334218  0.98275084  0.38917320  1  0.481482  -0.00429  0.048509  0.113129  -0.004823  3.938412  -0.003
C  C316  1  0.57070878  0.44377963  0.35137281  1  -0.023632  0.006218  -0.10068  -0.265187  0.003392  3.976073  0.005
C  C317  1  0.21954165  0.05621096  0.64859338  1  -0.021887  0.0062  -0.100625  -0.266011  0.003389  3.976384  0.005
C  C318  1  0.42928665  0.55621957  0.64862972  1  -0.023694  0.006218  -0.10061  -0.265015  0.003391  3.975925  0.005
C  C319  1  0.78046036  0.94378825  0.35140605  1  -0.021753  0.006198  -0.100603  -0.265983  0.003389  3.976498  0.005
C  C320  1  0.50668757  0.43826249  0.29242325  1  0.444052  -0.005867  0.099891  0.289107  -0.006524  4.056093  -0.004
C  C321  1  0.21421020  0.06179531  0.70751546  1  0.459358  -0.005886  0.100503  0.290149  -0.006549  4.056458  -0.004
C  C322  1  0.49331051  0.56173756  0.70757907  1  0.44416  -0.005868  0.099934  0.289133  -0.006525  4.055928  -0.004
C  C323  1  0.78579132  0.93820305  0.29248442  1  0.459127  -0.005885  0.100572  0.290178  -0.006548  4.056297  -0.004
C  C324  1  0.39984612  0.47260897  0.27397550  1  0.02156  0.005394  -0.096521  -0.247787  0.002996  3.963762  0.004
C  C325  1  0.12572820  0.02747835  0.72592079  1  0.005525  0.0054  -0.096919  -0.248235  0.002992  3.965201  0.004
C  C326  1  0.60015104  0.52738981  0.72602679  1  0.020955  0.005394  -0.09643  -0.247634  0.002996  3.963704  0.004
C  C327  1  0.87427548  0.97251916  0.27407829  1  0.00582  0.0054  -0.096846  -0.248098  0.002992  3.965145  0.004
C  C328  1  0.36145350  0.51007589  0.31500089  1  0.465934  -0.004486  0.044779  0.107387  -0.005238  3.958917  -0.003
C  C329  1  0.04648822  0.98996545  0.68489813  1  0.45  -0.004493  0.044937  0.105962  -0.005259  3.961482  -0.003
C  C330  1  0.63854325  0.48992331  0.68500102  1  0.466577  -0.004488  0.044781  0.107401  -0.005238  3.958937  -0.003
C  C331  1  0.95351760  0.01003163  0.31510114  1  0.450349  -0.004491  0.04491  0.105866  -0.005258  3.961504  -0.003
C  C332  1  0.27022056  0.17122922  0.10114243  1  0.486714  -0.005567  0.050258  0.11954  -0.006422  3.939027  -0.004
C  C333  1  0.16941583  0.32878472  0.89889295  1  0.492539  -0.005601  0.051205  0.12104  -0.006448  3.941219  -0.004
C  C334  1  0.72978108  0.82877295  0.89886062  1  0.486804  -0.005569  0.05029  0.119702  -0.006423  3.939146  -0.004
C  C335  1  0.83058670  0.67121661  0.10110710  1  0.492527  -0.005601  0.051158  0.120961  -0.006448  3.941169  -0.004
C  C336  1  0.35788554  0.21188496  0.13369388  1  -0.029944  0.005858  -0.107827  -0.271406  0.003194  3.978157  0.005
C  C337  1  0.22445949  0.28811999  0.86634019  1  0.018715  0.005845  -0.107706  -0.271747  0.003187  3.976742  0.005
C  C338  1  0.64211430  0.78811552  0.86630828  1  -0.029825  0.005859  -0.107904  -0.271574  0.003195  3.978282  0.005
C  C339  1  0.77554210  0.71188006  0.13366079  1  0.018351  0.005845  -0.107679  -0.271651  0.003187  3.976642  0.005
C  C340  1  0.48827347  0.20721082  0.13126020  1  0.468914  -0.006136  0.10118  0.300298  -0.006854  4.055537  -0.004
C  C341  1  0.35724147  0.29277115  0.86873837  1  0.444853  -0.006144  0.101051  0.300134  -0.006859  4.053647  -0.004
C  C342  1  0.51172684  0.79278966  0.86874048  1  0.468908  -0.006136  0.101137  0.300321  -0.006854  4.05546  -0.004
C  C343  1  0.64275882  0.70722848  0.13126130  1  0.44485  -0.006145  0.101085  0.300223  -0.00686  4.053531  -0.004
C  C344  1  0.52472400  0.16236005  0.09592693  1  0.032488  0.006675  -0.096547  -0.242046  0.00375  3.967669  0.005
C  C345  1  0.42914162  0.33761724  0.90405700  1  0.007949  0.006691  -0.097781  -0.243156  0.003758  3.965694  0.005
C  C346  1  0.47527419  0.83764128  0.90407361  1  0.032489  0.006676  -0.096613  -0.242077  0.003751  3.967567  0.005
C  C347  1  0.57086167  0.66238154  0.09594272  1  0.007725  0.006691  -0.097844  -0.24324  0.003758  3.965743  0.005
C  C348  1  0.43058242  0.12381591  0.06533521  1  0.443834  -0.003604  0.046744  0.10601  -0.004213  3.948377  -0.003
C  C349  1  0.36562616  0.37618993  0.93464207  1  0.504526  -0.003739  0.048422  0.107758  -0.0042  3.947012  -0.003
C  C350  1  0.56941792  0.87618584  0.93466654  1  0.443802  -0.003604  0.046739  0.105877  -0.004213  3.948188  -0.003
C  C351  1  0.63437765  0.62381097  0.06535826  1  0.50442  -0.00374  0.048344  0.107647  -0.0042  3.946935  -0.003
C  C352  1  0.91013064  0.51535718  0.13057483  1  0.477142  -0.002856  0.047977  0.113739  -0.003537  3.951895  -0.002
C  C353  1  0.77981266  0.98476730  0.86955621  1  0.453646  -0.002833  0.047868  0.113574  -0.003533  3.952862  -0.002
C  C354  1  0.08986887  0.48464458  0.86942513  1  0.477157  -0.002856  0.047961  0.113725  -0.003537  3.951976  -0.002
C  C355  1  0.22018939  0.01523318  0.13044429  1  0.453662  -0.002833  0.047858  0.113594  -0.003533  3.952838  -0.002
C  C356  1  0.90255327  0.47685497  0.17095748  1  0.015555  0.004533  -0.094753  -0.245768  0.002552  3.951397  0.003
C  C357  1  0.73185228  0.02327268  0.82917669  1  0.00803  0.004532  -0.095327  -0.246204  0.002546  3.953253  0.003
C  C358  1  0.09744748  0.52314551  0.82904269  1  0.015136  0.004533  -0.094752  -0.245785  0.002552  3.951441  0.003
C  C359  1  0.26815192  0.97672653  0.17082203  1  0.008059  0.004532  -0.095378  -0.246258  0.002546  3.953331  0.003
C  C360  1  0.82332673  0.42818266  0.15256911  1  0.470693  -0.004347  0.103741  0.298922  -0.004873  4.046196  -0.003
C  C361  1  0.67096250  0.07192938  0.84755890  1  0.452573  -0.004345  0.104547  0.299275  -0.004868  4.04685  -0.003
C  C362  1  0.17667143  0.57181867  0.84743237  1  0.471113  -0.004347  0.103737  0.298896  -0.004874  4.046174  -0.003
C  C363  1  0.32903828  0.92807110  0.15244032  1  0.452509  -0.004345  0.10458  0.299297  -0.004869  4.046861  -0.003
C  C364  1  0.76074781  0.41933572  0.09361737  1  0.013059  0.004492  -0.097804  -0.258913  0.002475  3.979781  0.004
C  C365  1  0.66739894  0.08077633  0.90652023  1  0.042945  0.004476  -0.097403  -0.25814  0.002473  3.979175  0.004
C  C366  1  0.23924946  0.58066476  0.90638319  1  0.013007  0.004492  -0.097799  -0.258883  0.002475  3.979747  0.004
C  C367  1  0.33260265  0.91922246  0.09347780  1  0.042901  0.004478  -0.097578  -0.25828  0.002473  3.979151  0.004
C  C368  1  0.77435469  0.46044493  0.05674413  1  0.501445  -0.003389  0.054732  0.133964  -0.004067  3.949425  -0.002
C  C369  1  0.71787748  0.03966753  0.94338526  1  0.486205  -0.003382  0.05404  0.132669  -0.004047  3.947984  -0.002
C  C370  1  0.22564345  0.53955598  0.94325731  1  0.501429  -0.00339  0.054699  0.133879  -0.004068  3.949529  -0.002
C  C371  1  0.28212245  0.96033338  0.05661410  1  0.486194  -0.003382  0.054046  0.132581  -0.004046  3.948044  -0.002
C  C372  1  0.70723510  0.35075363  0.17402456  1  0.411368  0.000132  -0.059403  -0.03095  3.2e-05  3.849276  0.0
C  C373  1  0.53317662  0.14929805  0.82602457  1  0.390103  0.000133  -0.059815  -0.033299  3.2e-05  3.849589  0.0
C  C374  1  0.29276476  0.64924685  0.82597665  1  0.411514  0.000132  -0.059358  -0.030959  3.2e-05  3.849014  0.0
C  C375  1  0.46682366  0.85070116  0.17397505  1  0.390018  0.000133  -0.059794  -0.033154  3.2e-05  3.849475  0.0
C  C376  1  0.55237373  0.28696579  0.20147557  1  0.370071  0.00018  -0.059476  -0.028652  4.5e-05  3.833694  0.0
C  C377  1  0.35086014  0.21302002  0.79850674  1  0.415831  0.000178  -0.059584  -0.027982  4.5e-05  3.831185  0.0
C  C378  1  0.44762832  0.71303511  0.79852591  1  0.395894  0.00018  -0.059411  -0.028418  4.5e-05  3.833672  0.0
C  C379  1  0.64914061  0.78698046  0.20149343  1  0.415719  0.000178  -0.059608  -0.027975  4.5e-05  3.831047  0.0
C  C380  1  0.65204960  0.36758872  0.27332326  1  0.408188  0.000173  -0.062249  -0.034533  5e-05  3.856569  0.0
C  C381  1  0.37876290  0.13239992  0.72668361  1  0.420524  0.000173  -0.062596  -0.035901  4.9e-05  3.855273  0.0
C  C382  1  0.34795244  0.63241260  0.72667920  1  0.408067  0.000173  -0.062195  -0.034565  5e-05  3.85645  0.0
C  C383  1  0.62123867  0.86759887  0.27331536  1  0.420375  0.000173  -0.062577  -0.035874  5e-05  3.855484  0.0
C  C384  1  0.78668095  0.28702396  0.25471944  1  0.391993  0.00016  -0.056895  -0.02227  5.2e-05  3.829567  0.0
C  C385  1  0.53189388  0.21298193  0.74528741  1  0.402229  0.000159  -0.057299  -0.02338  5.2e-05  3.830949  0.0
C  C386  1  0.21331766  0.71297694  0.74528054  1  0.391956  0.00016  -0.056898  -0.022331  5.2e-05  3.82968  0.0
C  C387  1  0.46810941  0.78701727  0.25471330  1  0.401808  0.00016  -0.057317  -0.023407  5.2e-05  3.831144  0.0
C  C388  1  0.03082639  0.12044076  0.52612149  1  1.515298  -0.003275  0.196053  0.542227  -0.004582  4.209569  -0.005
C  C389  1  0.50466819  0.37949408  0.47393771  1  1.517069  -0.003241  0.19523  0.541779  -0.004574  4.209285  -0.005
C  C390  1  0.96917343  0.87955802  0.47387768  1  1.515341  -0.003274  0.195952  0.542037  -0.004582  4.209842  -0.005
C  C391  1  0.49533068  0.62050385  0.52606336  1  1.51715  -0.003239  0.195251  0.541837  -0.004574  4.209367  -0.005
C  C392  1  0.67511750  0.32362967  0.22574868  1  0.051858  9.4e-05  -0.018284  0.047519  5.2e-05  3.832118  0.0
C  C393  1  0.44933912  0.17636363  0.77424551  1  0.064487  9.3e-05  -0.017844  0.049632  5.2e-05  3.827716  0.0
C  C394  1  0.32488454  0.67637123  0.77425279  1  0.051612  9.4e-05  -0.018399  0.047617  5.2e-05  3.831747  0.0
C  C395  1  0.55066200  0.82363558  0.22575496  1  0.064671  9.3e-05  -0.017866  0.049483  5.2e-05  3.827905  0.0
N  N396  1  0.96340913  0.13930274  0.39191298  1  -1.212873  0.072084  -0.333367  -0.245211  0.041897  3.583409  0.064
N  N397  1  0.57177816  0.36076638  0.60821677  1  -1.201803  0.072177  -0.333428  -0.244932  0.041947  3.583827  0.065
N  N398  1  0.03658944  0.86069647  0.60808496  1  -1.212932  0.072087  -0.333311  -0.245058  0.041899  3.583108  0.064
N  N399  1  0.42821862  0.63923240  0.39178321  1  -1.20189  0.072177  -0.333374  -0.244928  0.041946  3.583865  0.065
N  N400  1  0.30485557  0.12781426  0.06784810  1  -1.209882  0.083946  -0.337558  -0.236686  0.048106  3.616541  0.075
N  N401  1  0.23740850  0.37219287  0.93217071  1  -1.241735  0.084006  -0.338183  -0.237451  0.04809  3.618395  0.075
N  N402  1  0.69514518  0.87218706  0.93215403  1  -1.209985  0.083946  -0.337582  -0.236736  0.048107  3.61662  0.075
N  N403  1  0.76259577  0.62780846  0.06782914  1  -1.241378  0.084005  -0.338097  -0.237266  0.048089  3.618168  0.075
N  N404  1  0.42245188  0.51534507  0.37198500  1  -1.239078  0.075072  -0.340221  -0.262622  0.04327  3.632813  0.068
N  N405  1  0.05071182  0.98463839  0.62794646  1  -1.239859  0.075058  -0.34031  -0.261431  0.043305  3.634294  0.068
N  N406  1  0.57754315  0.48465413  0.62801616  1  -1.239073  0.075073  -0.340278  -0.262681  0.043267  3.632877  0.068
N  N407  1  0.94929146  0.01535912  0.37205126  1  -1.240018  0.075057  -0.34034  -0.261463  0.043305  3.634327  0.068
N  N408  1  0.84538904  0.50833877  0.07413321  1  -1.217311  0.063656  -0.334488  -0.254181  0.036947  3.587432  0.057
N  N409  1  0.77147585  0.99175223  0.92598786  1  -1.205561  0.063565  -0.333801  -0.25265  0.036834  3.58442  0.057
N  N410  1  0.15461046  0.49166256  0.92586671  1  -1.217292  0.063656  -0.334454  -0.254072  0.036945  3.587456  0.057
N  N411  1  0.22852790  0.00824740  0.07401236  1  -1.205421  0.063565  -0.333765  -0.252618  0.036836  3.584471  0.057
O  O412  1  0.16918823  0.01022826  0.47677467  1  -1.29095  0.068216  -0.581073  -0.749223  0.038262  2.173797  0.059
O  O413  1  0.69246926  0.48977676  0.52318204  1  -1.273746  0.068121  -0.581488  -0.750624  0.03818  2.172709  0.059
O  O414  1  0.83080995  0.98977307  0.52322587  1  -1.290918  0.068212  -0.581114  -0.749365  0.03826  2.173736  0.059
O  O415  1  0.30752661  0.51022118  0.47681797  1  -1.273522  0.068124  -0.581509  -0.750595  0.038181  2.172703  0.059
O  O416  1  0.19443774  0.07983177  0.38285376  1  -1.161804  0.073932  -0.318437  -0.559663  0.041237  2.400182  0.068
O  O417  1  0.81190797  0.42010143  0.61709449  1  -1.160357  0.073988  -0.318843  -0.560296  0.041265  2.398214  0.068
O  O418  1  0.80556206  0.92016744  0.61714733  1  -1.161682  0.073944  -0.318477  -0.559637  0.041244  2.399922  0.068
O  O419  1  0.18808714  0.57989863  0.38290486  1  -1.16033  0.073984  -0.318816  -0.560197  0.041263  2.398175  0.068
O  O420  1  0.31419244  0.00103563  0.40240330  1  -1.168055  -0.001203  -0.32775  -0.544828  -0.002157  2.123175  -0.001
O  O421  1  0.91202385  0.49885444  0.59743812  1  -1.175111  -0.001201  -0.329001  -0.545331  -0.002152  2.123036  -0.001
O  O422  1  0.68579946  0.99896061  0.59759558  1  -1.17509  -0.001207  -0.327648  -0.544622  -0.002158  2.123596  -0.001
O  O423  1  0.08797382  0.50114350  0.40255885  1  -1.175053  -0.001201  -0.329045  -0.545371  -0.002152  2.122845  -0.001
O  O424  1  0.13071467  0.13316955  0.50865935  1  -1.116475  0.06804  -0.307604  -0.503882  0.037932  2.135258  0.061
O  O425  1  0.62203473  0.36675474  0.49133733  1  -1.118936  0.067962  -0.306976  -0.503176  0.037927  2.134197  0.061
O  O426  1  0.86928311  0.86683136  0.49133884  1  -1.116523  0.068034  -0.307611  -0.503845  0.037928  2.135368  0.061
O  O427  1  0.37796178  0.63324022  0.50866608  1  -1.118964  0.067958  -0.307017  -0.503224  0.037926  2.134318  0.061
O  O428  1  0.95108777  0.08117759  0.49720268  1  -1.160526  0.071607  -0.313323  -0.560289  0.040139  2.306808  0.064
O  O429  1  0.45396774  0.41878093  0.50287443  1  -1.165432  0.071465  -0.313028  -0.559922  0.040095  2.304852  0.064
O  O430  1  0.04891078  0.91882204  0.50279718  1  -1.160473  0.071608  -0.313263  -0.560209  0.040139  2.306872  0.064
O  O431  1  0.54603209  0.58121828  0.49712572  1  -1.165436  0.071467  -0.31301  -0.559947  0.040095  2.304801  0.064
O  O432  1  0.11186486  0.12594471  0.95720366  1  -1.144814  0.069367  -0.326097  -0.548726  0.038965  2.365938  0.064
O  O433  1  0.15465163  0.37409879  0.04277246  1  -1.13994  0.069309  -0.325767  -0.547644  0.038939  2.366509  0.064
O  O434  1  0.88814165  0.87405874  0.04279755  1  -1.144647  0.069376  -0.326095  -0.548686  0.038971  2.365789  0.064
O  O435  1  0.84535542  0.62590594  0.95722647  1  -1.13996  0.06931  -0.325779  -0.547764  0.038941  2.366371  0.064
O  O436  1  0.92470755  0.15930509  0.97833495  1  -1.16974  -4.2e-05  -0.337942  -0.564131  -0.001082  2.120546  0.0
O  O437  1  0.94638839  0.34066401  0.02151144  1  -1.182989  -5.5e-05  -0.337461  -0.563968  -0.00109  2.122453  0.0
O  O438  1  0.07529535  0.84069539  0.02166639  1  -1.169864  -4.4e-05  -0.337838  -0.564028  -0.001083  2.120933  0.0
O  O439  1  0.05361489  0.65934411  0.97848871  1  -1.183103  -5.4e-05  -0.337524  -0.564151  -0.001089  2.122343  0.0
O  O440  1  0.89982245  0.99647796  0.05709150  1  -1.156436  0.054507  -0.308559  -0.546705  0.030417  2.244891  0.048
O  O441  1  0.84283278  0.50353680  0.94309105  1  -1.180033  0.054479  -0.308466  -0.545246  0.030454  2.244515  0.048
O  O442  1  0.10017519  0.00352167  0.94291035  1  -1.156453  0.054508  -0.308535  -0.546668  0.030417  2.24488  0.048
O  O443  1  0.15716452  0.49646410  0.05690955  1  -1.180033  0.05448  -0.308502  -0.545322  0.030454  2.244518  0.048
O  O444  1  0.70364549  0.95658348  0.03620764  1  -1.12212  0.08316  -0.310988  -0.524926  0.046453  2.268736  0.075
O  O445  1  0.66743449  0.54342792  0.96388126  1  -1.125298  0.083307  -0.310938  -0.52423  0.046454  2.26864  0.075
O  O446  1  0.29635140  0.04341743  0.96379159  1  -1.12209  0.083158  -0.311042  -0.52494  0.046452  2.268699  0.075
O  O447  1  0.33256432  0.45657596  0.03611616  1  -1.125286  0.08331  -0.310945  -0.524246  0.046455  2.268552  0.075
O  O448  1  0.97470216  0.90592364  0.94131236  1  -1.2722  0.068011  -0.582271  -0.772319  0.038074  2.19307  0.058
O  O449  1  0.03329048  0.59407198  0.05872247  1  -1.26547  0.067953  -0.581589  -0.772801  0.038134  2.192533  0.058
O  O450  1  0.02529427  0.09407684  0.05868735  1  -1.272173  0.068011  -0.582318  -0.772423  0.038073  2.192944  0.058
O  O451  1  0.96670994  0.40592894  0.94127448  1  -1.265514  0.067955  -0.581569  -0.772729  0.038136  2.192707  0.058
O  O452  1  0.91786371  0.24265774  0.72521563  1  -1.102712  0.00016  -0.162946  -0.231576  6.8e-05  2.555613  0.0
O  O453  1  0.19233202  0.25742485  0.27473523  1  -1.105579  0.000158  -0.16179  -0.230082  6.8e-05  2.554711  0.0
O  O454  1  0.08214485  0.75734316  0.27478558  1  -1.102707  0.00016  -0.162895  -0.231532  6.8e-05  2.55566  0.0
O  O455  1  0.80766801  0.74257733  0.72526235  1  -1.105703  0.000158  -0.161745  -0.230036  6.8e-05  2.554692  0.0
O  O456  1  0.62700401  0.12617474  0.24625892  1  -1.109469  -0.000391  -0.154283  -0.219526  -0.000383  2.572039  0.0
O  O457  1  0.38124449  0.37394075  0.75364194  1  -1.106448  -0.00039  -0.155206  -0.220026  -0.000382  2.57241  0.0
O  O458  1  0.37298847  0.87382532  0.75374167  1  -1.109443  -0.000391  -0.154397  -0.219786  -0.000383  2.572144  0.0
O  O459  1  0.61875286  0.62606059  0.24635681  1  -1.106487  -0.00039  -0.15524  -0.220097  -0.000382  2.572336  0.0
O  O460  1  0.80906004  0.39289596  0.19343017  1  -1.071975  -0.001287  -0.172581  -0.189943  -0.001294  2.511495  -0.001
O  O461  1  0.61574813  0.10717712  0.80667552  1  -1.076401  -0.001286  -0.173326  -0.190396  -0.001294  2.511821  -0.001
O  O462  1  0.19093984  0.60710495  0.80657108  1  -1.072138  -0.001287  -0.172565  -0.189927  -0.001295  2.511445  -0.001
O  O463  1  0.38425522  0.89282252  0.19332333  1  -1.076358  -0.001286  -0.173337  -0.190494  -0.001293  2.511816  -0.001
O  O464  1  0.58423530  0.24343945  0.16098421  1  -1.080628  -0.001866  -0.171583  -0.189954  -0.001875  2.555017  -0.001
O  O465  1  0.42334769  0.25651536  0.83897845  1  -1.086401  -0.001871  -0.170943  -0.189844  -0.001874  2.55651  -0.001
O  O466  1  0.41576499  0.75656103  0.83901742  1  -1.080652  -0.001866  -0.171571  -0.189997  -0.001875  2.554998  -0.001
O  O467  1  0.57665214  0.74348342  0.16102072  1  -1.086361  -0.001871  -0.170913  -0.189879  -0.001874  2.556439  -0.001
O  O468  1  0.54215575  0.40159726  0.25153839  1  -1.078341  -0.00187  -0.170618  -0.183648  -0.00188  2.521135  -0.001
O  O469  1  0.29038720  0.09850376  0.74840975  1  -1.074673  -0.001875  -0.170441  -0.183191  -0.001889  2.522762  -0.001
O  O470  1  0.45784761  0.59840407  0.74846345  1  -1.078327  -0.00187  -0.170683  -0.183766  -0.001881  2.521188  -0.001
O  O471  1  0.70961400  0.90149588  0.25158793  1  -1.074745  -0.001875  -0.170441  -0.183164  -0.001889  2.522674  -0.001
O  O472  1  0.74280548  0.26036394  0.29956018  1  -1.083258  -0.00142  -0.170675  -0.191679  -0.001429  2.571797  -0.001
O  O473  1  0.44318005  0.23971456  0.70047366  1  -1.081863  -0.001424  -0.170912  -0.191567  -0.001429  2.570304  -0.001
O  O474  1  0.25719305  0.73963527  0.70043964  1  -1.083235  -0.00142  -0.170647  -0.19163  -0.001429  2.57189  -0.001
O  O475  1  0.55682101  0.76028337  0.29952670  1  -1.081557  -0.001424  -0.170883  -0.191525  -0.001429  2.570465  -0.001
