# generated using pymatgen
data_FeH18C24(N2O)2
_symmetry_space_group_name_H-M   'P 1'
_cell_length_a   19.25729119
_cell_length_b   19.25725043
_cell_length_c   19.34236160
_cell_angle_alpha   60.14552180
_cell_angle_beta   60.14522752
_cell_angle_gamma   89.99553153
_symmetry_Int_Tables_number   1
_chemical_formula_structural   FeH18C24(N2O)2
_chemical_formula_sum   'Fe8 H144 C192 N32 O16'
_cell_volume   5094.45907229
_cell_formula_units_Z   8
loop_
 _symmetry_equiv_pos_site_id
 _symmetry_equiv_pos_as_xyz
  1  'x, y, z'
loop_
 _atom_site_type_symbol
 _atom_site_label
 _atom_site_symmetry_multiplicity
 _atom_site_fract_x
 _atom_site_fract_y
 _atom_site_fract_z
 _atom_site_occupancy
 _atom_site_pbe_bader_charge
 _atom_site_pbe_bader_spin_density
 _atom_site_pbe_cm5_charge
 _atom_site_pbe_ddec_charge
 _atom_site_pbe_ddec_spin_density
 _atom_site_pbe_ddec_sum_bond_order
 _atom_site_pbe_magmom
Fe  Fe0  1  0.27972941  0.27960589  0.44061766  1  1.440222  3.627785  0.765235  0.77953  3.930025  2.853074  3.593
Fe  Fe1  1  0.72023874  0.72031650  0.55943956  1  1.4377  3.627421  0.765404  0.779697  3.92996  2.852799  3.593
Fe  Fe2  1  0.97032002  0.47022359  0.05943912  1  1.43771  3.62752  0.765349  0.779528  3.930071  2.852957  3.593
Fe  Fe3  1  0.52960615  0.02973673  0.94060331  1  1.440391  3.627782  0.765255  0.779514  3.930088  2.853081  3.593
Fe  Fe4  1  0.62498676  0.07907297  0.25003008  1  1.414368  3.641763  0.738737  0.750166  3.940968  2.783577  3.606
Fe  Fe5  1  0.12504467  0.67102440  0.24989124  1  1.413697  3.641551  0.738843  0.750296  3.940808  2.782865  3.606
Fe  Fe6  1  0.92104828  0.87504418  0.74988245  1  1.414569  3.641171  0.739179  0.750661  3.940506  2.783477  3.605
Fe  Fe7  1  0.32910144  0.37500517  0.75000266  1  1.414106  3.642105  0.738589  0.750016  3.941293  2.782405  3.606
H  H8  1  0.89218574  0.15151002  0.99923568  1  0.05394  9.8e-05  0.100474  0.115919  -3e-05  0.99248  0.0
H  H9  1  0.94718924  0.27673918  0.83151814  1  0.033581  7.5e-05  0.096726  0.093448  -0.000209  1.002831  0.0
H  H10  1  0.86637612  0.37827718  0.80785683  1  0.077555  7e-05  0.093931  0.094876  -4.4e-05  1.041611  0.0
H  H11  1  0.73124118  0.35287578  0.94972641  1  0.063559  0.000259  0.100754  0.10042  2.4e-05  1.01761  0.0
H  H12  1  0.67922532  0.34591656  0.08334665  1  0.098375  0.004492  0.106826  0.064938  0.001519  1.031029  0.002
H  H13  1  0.59346033  0.40845039  0.15183849  1  0.08822  0.001017  0.104204  0.111199  0.000456  1.022247  0.0
H  H14  1  0.44993422  0.40443437  0.26564385  1  0.111473  0.001499  0.118868  0.093571  0.000183  0.996389  0.001
H  H15  1  0.34068303  0.15458550  0.38225450  1  0.131561  0.000976  0.118808  0.092289  -4.1e-05  0.993243  0.001
H  H16  1  0.47914031  0.14591430  0.27652517  1  0.150905  0.00093  0.109788  0.126173  0.000203  1.045586  0.0
H  H17  1  0.09181618  0.15398735  0.42277746  1  0.065084  0.000304  0.098023  0.118173  1.1e-05  1.007925  0.0
H  H18  1  0.94406720  0.15802911  0.49788768  1  0.04022  4.7e-05  0.091028  0.082839  -0.00027  1.024226  0.0
H  H19  1  0.89223441  0.21562901  0.59813143  1  0.038662  0.000206  0.091949  0.093735  -0.000104  1.013024  0.0
H  H20  1  0.99008573  0.27367760  0.61923147  1  0.05262  6.8e-05  0.09685  0.100937  -0.000214  1.030838  0.0
H  H21  1  0.09941853  0.36205271  0.56976054  1  0.081464  0.004369  0.105625  0.071679  0.000942  1.046973  0.003
H  H22  1  0.18664139  0.46622678  0.56518598  1  0.098098  0.00093  0.100683  0.107357  0.000394  1.044058  0.001
H  H23  1  0.27021676  0.48346305  0.62480093  1  0.100866  0.00112  0.115771  0.086796  2e-06  1.015927  0.001
H  H24  1  0.29410694  0.24573854  0.71085079  1  0.10523  0.001616  0.118554  0.0956  0.000381  0.992256  0.001
H  H25  1  0.21206030  0.21824677  0.65517441  1  0.107754  0.001184  0.107445  0.110949  0.000459  1.034262  0.001
H  H26  1  0.10851124  0.84920986  0.99915399  1  0.026138  0.000111  0.1004  0.115835  -3e-05  0.992575  0.0
H  H27  1  0.22135990  0.89161679  0.83151397  1  0.069127  8.7e-05  0.09689  0.09344  -0.000209  1.003425  0.0
H  H28  1  0.32580789  0.81370551  0.80806012  1  0.045337  9.5e-05  0.093822  0.094403  -4.2e-05  1.041715  0.0
H  H29  1  0.31889818  0.69724457  0.95007014  1  0.028415  0.000249  0.101041  0.100804  1.8e-05  1.017936  0.0
H  H30  1  0.23713597  0.57062405  0.08376171  1  0.092247  0.004563  0.106731  0.064737  0.001514  1.030261  0.003
H  H31  1  0.25438167  0.43975257  0.15203864  1  0.089702  0.001017  0.104322  0.111362  0.000458  1.021757  0.0
H  H32  1  0.28436526  0.32993474  0.26550506  1  0.115113  0.001481  0.118587  0.093042  0.000184  0.996238  0.001
H  H33  1  0.27727769  0.46288286  0.38234640  1  0.114682  0.000978  0.118685  0.0923  -3e-05  0.993482  0.001
H  H34  1  0.24421436  0.57727958  0.27703605  1  0.156961  0.000929  0.109645  0.126068  0.000193  1.04577  0.0
H  H35  1  0.48534080  0.42310887  0.42292052  1  0.101642  0.00026  0.097912  0.118195  1e-05  1.007586  0.0
H  H36  1  0.55798029  0.34394752  0.49803420  1  0.041404  5e-05  0.090953  0.08287  -0.000262  1.023813  0.0
H  H37  1  0.50953048  0.18609703  0.59824747  1  0.035841  0.000194  0.092044  0.093633  -0.000102  1.012779  0.0
H  H38  1  0.39055898  0.10699920  0.61934857  1  0.032399  5.4e-05  0.096865  0.100733  -0.000217  1.031056  0.0
H  H39  1  0.33087991  0.06814075  0.56979996  1  0.081523  0.004339  0.105723  0.072067  0.000933  1.047098  0.003
H  H40  1  0.24830620  0.96850405  0.56516281  1  0.097159  0.000931  0.1008  0.10739  0.000395  1.044194  0.001
H  H41  1  0.10511278  0.89161888  0.62481208  1  0.106369  0.00113  0.115833  0.086737  6e-06  1.016169  0.001
H  H42  1  0.99513721  0.04343726  0.71058515  1  0.106116  0.001614  0.118502  0.095394  0.000384  0.992029  0.001
H  H43  1  0.13288847  0.12663471  0.65483124  1  0.104389  0.001197  0.107361  0.110573  0.000462  1.035449  0.001
H  H44  1  0.84863613  0.89163210  0.00053721  1  0.062338  9.1e-05  0.100486  0.11601  -3e-05  0.99221  0.0
H  H45  1  0.72357136  0.77878156  0.16829112  1  0.035846  7.5e-05  0.096824  0.093635  -0.000207  1.002872  0.0
H  H46  1  0.62209506  0.67422342  0.19201906  1  0.04265  9.3e-05  0.093706  0.094238  -4.3e-05  1.042471  0.0
H  H47  1  0.64735048  0.68102543  0.05018097  1  0.026942  0.000251  0.10064  0.099975  2.3e-05  1.017622  0.0
H  H48  1  0.65419233  0.76259337  0.91657112  1  0.094759  0.00454  0.106748  0.064764  0.001522  1.030222  0.003
H  H49  1  0.59160389  0.74527797  0.84821309  1  0.096908  0.001015  0.104347  0.111432  0.000456  1.022052  0.0
H  H50  1  0.59549290  0.71555479  0.73447200  1  0.116015  0.001487  0.118765  0.093198  0.000184  0.996445  0.001
H  H51  1  0.84530222  0.72282655  0.61770901  1  0.109522  0.000977  0.118777  0.092376  -4e-05  0.993454  0.001
H  H52  1  0.85416871  0.75561749  0.72329820  1  0.154457  0.00093  0.109578  0.125894  0.000201  1.045916  0.0
H  H53  1  0.84593096  0.51457973  0.57740121  1  0.052232  0.000307  0.098062  0.118274  1.1e-05  1.007599  0.0
H  H54  1  0.84176900  0.44180435  0.50245278  1  0.041761  5.6e-05  0.091033  0.082909  -0.000259  1.023861  0.0
H  H55  1  0.78429407  0.49030244  0.40207295  1  0.054897  0.000179  0.091852  0.093503  -0.000103  1.012666  0.0
H  H56  1  0.72641978  0.60940634  0.38072291  1  0.063306  6.8e-05  0.096952  0.101103  -0.000214  1.030584  0.0
H  H57  1  0.63801716  0.66923452  0.43018091  1  0.094332  0.00435  0.105676  0.071907  0.000942  1.047048  0.003
H  H58  1  0.53371589  0.75178670  0.43494633  1  0.094941  0.000935  0.100588  0.1073  0.000396  1.044073  0.001
H  H59  1  0.51642013  0.89496543  0.37529697  1  0.095822  0.001121  0.115669  0.086586  3e-06  1.01598  0.001
H  H60  1  0.75405558  0.00494965  0.28940202  1  0.113398  0.0016  0.118438  0.095132  0.000383  0.992339  0.001
H  H61  1  0.78158438  0.86724155  0.34508802  1  0.103807  0.001192  0.107322  0.110624  0.000463  1.035027  0.001
H  H62  1  0.15084969  0.10780322  0.00065329  1  0.033747  0.000105  0.100515  0.116101  -3e-05  0.99239  0.0
H  H63  1  0.10830921  0.05293345  0.16837000  1  0.04046  7.5e-05  0.096877  0.093556  -0.000208  1.003432  0.0
H  H64  1  0.18605435  0.13387921  0.19200313  1  0.032695  9.1e-05  0.09384  0.094506  -4.3e-05  1.041697  0.0
H  H65  1  0.30254764  0.26898387  0.05009554  1  0.053231  0.000254  0.100946  0.100635  1.9e-05  1.017689  0.0
H  H66  1  0.42928908  0.32088052  0.91644371  1  0.069133  0.004595  0.106709  0.064781  0.001512  1.030325  0.003
H  H67  1  0.56024880  0.40645501  0.84808642  1  0.101371  0.001021  0.104396  0.111204  0.000457  1.021771  0.0
H  H68  1  0.67011840  0.54990200  0.73444074  1  0.111036  0.001486  0.118621  0.093149  0.000183  0.996269  0.001
H  H69  1  0.53705971  0.65954004  0.61769059  1  0.112933  0.000982  0.118834  0.092454  -3.4e-05  0.993415  0.001
H  H70  1  0.42265739  0.52115565  0.72312857  1  0.148151  0.00093  0.109674  0.126038  0.000197  1.045778  0.0
H  H71  1  0.57684411  0.90847779  0.57706145  1  0.091069  0.000267  0.097778  0.118048  1.1e-05  1.007546  0.0
H  H72  1  0.65618142  0.05623564  0.50169960  1  0.048146  4.9e-05  0.091038  0.082902  -0.000271  1.024198  0.0
H  H73  1  0.81402962  0.10784013  0.40150998  1  0.018466  0.000218  0.091821  0.09377  -0.000105  1.0127  0.0
H  H74  1  0.89298070  0.00980017  0.38058890  1  0.05698  5.9e-05  0.096911  0.100765  -0.000217  1.031044  0.0
H  H75  1  0.93172576  0.90055268  0.43023861  1  0.077751  0.004339  0.105775  0.072108  0.000938  1.047198  0.003
H  H76  1  0.03138057  0.81342274  0.43477733  1  0.094889  0.000926  0.100688  0.107325  0.000394  1.044012  0.001
H  H77  1  0.10834136  0.72991294  0.37511062  1  0.106623  0.001121  0.115685  0.086557  3e-06  1.015685  0.001
H  H78  1  0.95654161  0.70568770  0.28933251  1  0.101761  0.001619  0.118613  0.095416  0.000383  0.992412  0.001
H  H79  1  0.87329043  0.78769525  0.34503339  1  0.112428  0.00119  0.107374  0.110843  0.00046  1.034776  0.001
H  H80  1  0.35778406  0.90085453  0.50067794  1  0.033251  0.000105  0.100553  0.116078  -3e-05  0.992355  0.0
H  H81  1  0.30292289  0.85831648  0.66838732  1  0.040352  7.4e-05  0.096847  0.093504  -0.000208  1.003681  0.0
H  H82  1  0.38386534  0.93605993  0.69202333  1  0.032547  9.2e-05  0.093902  0.094559  -4.3e-05  1.041647  0.0
H  H83  1  0.51896330  0.05255211  0.55010631  1  0.053345  0.000254  0.100927  0.100577  1.9e-05  1.017885  0.0
H  H84  1  0.57088238  0.17928557  0.41644703  1  0.069226  0.004598  0.106699  0.064792  0.001513  1.030372  0.003
H  H85  1  0.65646431  0.31025345  0.34808514  1  0.101529  0.001021  0.104353  0.111154  0.000457  1.021869  0.0
H  H86  1  0.79991564  0.42010666  0.23443919  1  0.110637  0.001485  0.118553  0.093069  0.000183  0.996148  0.001
H  H87  1  0.90953304  0.28704761  0.11768597  1  0.112629  0.000982  0.118836  0.092404  -3.3e-05  0.993441  0.001
H  H88  1  0.77114298  0.17265040  0.22312812  1  0.147756  0.000931  0.109636  0.125983  0.000197  1.045876  0.0
H  H89  1  0.15850094  0.32685176  0.07704124  1  0.090972  0.000267  0.09783  0.118051  1.1e-05  1.007593  0.0
H  H90  1  0.30625384  0.40619228  0.00169099  1  0.048612  4.9e-05  0.091052  0.082844  -0.000271  1.024139  0.0
H  H91  1  0.35785621  0.56404197  0.90150999  1  0.018509  0.000219  0.091734  0.093617  -0.000104  1.012745  0.0
H  H92  1  0.25980884  0.64298122  0.88059108  1  0.057016  5.9e-05  0.096902  0.100734  -0.000217  1.031113  0.0
H  H93  1  0.15057155  0.68172808  0.93022354  1  0.077887  0.004335  0.105697  0.071963  0.000936  1.047229  0.003
H  H94  1  0.06342587  0.78137120  0.93477905  1  0.095033  0.000926  0.100717  0.107402  0.000394  1.043997  0.001
H  H95  1  0.97991621  0.85833355  0.87511948  1  0.106674  0.001121  0.115709  0.086622  3e-06  1.015728  0.001
H  H96  1  0.95570339  0.70654489  0.78932473  1  0.101985  0.001619  0.118609  0.095432  0.000383  0.992466  0.001
H  H97  1  0.03770470  0.62329300  0.84502816  1  0.112516  0.00119  0.107369  0.110833  0.00046  1.03475  0.001
H  H98  1  0.14161564  0.59861217  0.50055982  1  0.062714  9e-05  0.100543  0.116075  -3e-05  0.992206  0.0
H  H99  1  0.02876640  0.47354061  0.66830904  1  0.036102  7.5e-05  0.09677  0.093501  -0.000207  1.002847  0.0
H  H100  1  0.92420455  0.37207221  0.69202707  1  0.041985  9.4e-05  0.093631  0.094201  -4.3e-05  1.042538  0.0
H  H101  1  0.93100390  0.39733452  0.55018364  1  0.026508  0.000251  0.100709  0.100113  2.3e-05  1.017904  0.0
H  H102  1  0.01258154  0.40417973  0.41657193  1  0.094717  0.004539  0.106662  0.064685  0.001522  1.030228  0.002
H  H103  1  0.99529593  0.34161888  0.34819134  1  0.097069  0.001015  0.104353  0.111421  0.000457  1.021963  0.0
H  H104  1  0.96557798  0.34549890  0.23445062  1  0.116134  0.001487  0.118734  0.093194  0.000184  0.99636  0.001
H  H105  1  0.97282547  0.59530391  0.11769508  1  0.109449  0.000976  0.118813  0.092353  -4e-05  0.993594  0.001
H  H106  1  0.00561443  0.60416913  0.22328381  1  0.154443  0.00093  0.109585  0.125944  0.000201  1.046007  0.0
H  H107  1  0.76459147  0.59593012  0.07738364  1  0.051972  0.000307  0.098105  0.118352  1.1e-05  1.007656  0.0
H  H108  1  0.69181215  0.59177165  0.00243846  1  0.041315  5.6e-05  0.090967  0.082801  -0.000259  1.023817  0.0
H  H109  1  0.74030725  0.53428876  0.90206258  1  0.054721  0.00018  0.091822  0.093517  -0.000103  1.012754  0.0
H  H110  1  0.85940535  0.47641502  0.88071895  1  0.063085  6.9e-05  0.096988  0.10122  -0.000214  1.030623  0.0
H  H111  1  0.91925114  0.38801810  0.93015667  1  0.094302  0.004349  0.105656  0.071894  0.000942  1.047147  0.003
H  H112  1  0.00180452  0.28372717  0.93489748  1  0.096413  0.000936  0.100656  0.107362  0.000396  1.044024  0.001
H  H113  1  0.14499741  0.26646177  0.87522242  1  0.096658  0.001121  0.115653  0.086648  4e-06  1.015993  0.001
H  H114  1  0.25496011  0.50407872  0.78937663  1  0.113288  0.001599  0.11845  0.095173  0.000383  0.992258  0.001
H  H115  1  0.11724314  0.53159177  0.84507893  1  0.103488  0.001192  0.107361  0.110685  0.000463  1.03502  0.001
H  H116  1  0.40151849  0.64221145  0.49922131  1  0.053365  9.7e-05  0.100497  0.116058  -3e-05  0.992226  0.0
H  H117  1  0.52675520  0.69720752  0.33150371  1  0.033315  7.5e-05  0.096721  0.093426  -0.000208  1.002845  0.0
H  H118  1  0.62828081  0.61637762  0.30785714  1  0.077553  7e-05  0.093931  0.094866  -4.4e-05  1.041667  0.0
H  H119  1  0.60288050  0.48124253  0.44972536  1  0.063522  0.000258  0.100743  0.100429  2.3e-05  1.017482  0.0
H  H120  1  0.59593538  0.42924379  0.58333144  1  0.097896  0.004491  0.106764  0.064939  0.001518  1.030912  0.002
H  H121  1  0.65845257  0.34346815  0.65183685  1  0.08838  0.001016  0.10417  0.111118  0.000456  1.022254  0.0
H  H122  1  0.65443013  0.19993860  0.76564307  1  0.111562  0.001498  0.118913  0.093535  0.000183  0.996541  0.001
H  H123  1  0.40457756  0.09070044  0.88224979  1  0.131572  0.000976  0.118791  0.092326  -4e-05  0.993204  0.001
H  H124  1  0.39591807  0.22915540  0.77651510  1  0.150931  0.00093  0.109812  0.126166  0.000203  1.045757  0.0
H  H125  1  0.40397935  0.84182030  0.92276681  1  0.065021  0.000304  0.097928  0.118071  1.1e-05  1.007925  0.0
H  H126  1  0.40800700  0.69406580  0.99788620  1  0.040423  4.6e-05  0.091007  0.08276  -0.000271  1.024306  0.0
H  H127  1  0.46560863  0.64222515  0.09812930  1  0.039515  0.000204  0.09192  0.093687  -0.000103  1.01299  0.0
H  H128  1  0.52367633  0.74008569  0.11921029  1  0.052321  6.8e-05  0.096913  0.101056  -0.000214  1.030688  0.0
H  H129  1  0.61205755  0.84940747  0.06974028  1  0.081119  0.004367  0.105625  0.071628  0.000942  1.047058  0.003
H  H130  1  0.71622150  0.93663054  0.06518370  1  0.097825  0.000931  0.100636  0.107294  0.000395  1.04395  0.001
H  H131  1  0.73344073  0.02018274  0.12483073  1  0.101993  0.00112  0.115684  0.086697  3e-06  1.015849  0.001
H  H132  1  0.49571626  0.04407013  0.21087750  1  0.105319  0.001617  0.118531  0.095492  0.000382  0.992337  0.001
H  H133  1  0.46825097  0.96205043  0.15516375  1  0.107496  0.001184  0.107394  0.110841  0.000459  1.034376  0.001
H  H134  1  0.09921351  0.85852443  0.49912799  1  0.02611  0.000111  0.100363  0.115798  -3e-05  0.99274  0.0
H  H135  1  0.14161645  0.97136470  0.33149347  1  0.068809  8.6e-05  0.096842  0.093394  -0.000209  1.003226  0.0
H  H136  1  0.06371003  0.07581476  0.30804493  1  0.045076  9.5e-05  0.093804  0.094425  -4.3e-05  1.041716  0.0
H  H137  1  0.94726300  0.06891136  0.45005594  1  0.028526  0.00025  0.101038  0.100782  1.8e-05  1.018001  0.0
H  H138  1  0.82063948  0.98716167  0.58375576  1  0.092485  0.004564  0.106749  0.064764  0.001515  1.030185  0.003
H  H139  1  0.68976459  0.00438853  0.65203426  1  0.088866  0.001018  0.104307  0.111313  0.000458  1.021779  0.0
H  H140  1  0.57993919  0.03436654  0.76550229  1  0.115316  0.001481  0.118637  0.093141  0.000184  0.996186  0.001
H  H141  1  0.71286814  0.02728303  0.88235066  1  0.114564  0.000977  0.118714  0.092331  -3.1e-05  0.993498  0.001
H  H142  1  0.82727601  0.99422456  0.77704168  1  0.155787  0.00093  0.109582  0.12591  0.000194  1.045817  0.0
H  H143  1  0.67309720  0.23531814  0.92294409  1  0.101559  0.000261  0.097906  0.118222  1e-05  1.007625  0.0
H  H144  1  0.59393889  0.30797403  0.99804022  1  0.04136  5.1e-05  0.090909  0.082813  -0.000261  1.023673  0.0
H  H145  1  0.43608898  0.25954516  0.09823040  1  0.035288  0.000195  0.092003  0.09354  -0.000102  1.013033  0.0
H  H146  1  0.35699494  0.14057117  0.11933624  1  0.031631  5.5e-05  0.096841  0.100653  -0.000217  1.031272  0.0
H  H147  1  0.31811514  0.08085692  0.06983144  1  0.081829  0.00434  0.1057  0.072118  0.000933  1.047086  0.003
H  H148  1  0.21848891  0.99829302  0.06517408  1  0.096481  0.000931  0.100843  0.107458  0.000395  1.044093  0.001
H  H149  1  0.14161621  0.85509274  0.12482044  1  0.106279  0.001129  0.115808  0.086675  6e-06  1.016108  0.001
H  H150  1  0.29343553  0.74512760  0.21059402  1  0.105997  0.001612  0.118452  0.09531  0.000384  0.992039  0.001
H  H151  1  0.37663442  0.88287704  0.15484052  1  0.104212  0.001196  0.107324  0.110482  0.000462  1.035526  0.001
C  C152  1  0.78190184  0.18218758  0.06976736  1  0.622453  -0.001053  0.078208  0.258796  -0.001575  4.134495  0.001
C  C153  1  0.85808891  0.19669736  0.98758283  1  -0.064425  0.008412  -0.117742  -0.224142  0.003398  4.013236  0.006
C  C154  1  0.88832277  0.26670030  0.89427002  1  -0.060749  -0.003598  -0.10199  -0.077745  -0.004758  4.081812  -0.002
C  C155  1  0.84354850  0.32393074  0.88052498  1  -0.018907  0.007232  -0.121253  -0.142731  0.002946  4.098381  0.004
C  C156  1  0.76778311  0.31025790  0.96060179  1  -0.098261  -0.004014  -0.097957  -0.151591  -0.004898  4.036625  -0.003
C  C157  1  0.73605924  0.23995400  0.05481546  1  0.367641  0.009357  0.066762  0.07796  0.003701  4.039508  0.007
C  C158  1  0.63267748  0.28146137  0.13893565  1  0.532636  -0.007701  0.063681  0.064435  -0.010307  3.921064  -0.001
C  C159  1  0.54904627  0.27654688  0.20594914  1  0.038035  -0.018316  -0.001364  0.092504  -0.020431  4.038429  -0.01
C  C160  1  0.53900542  0.35054339  0.20259243  1  -0.01626  -0.000545  -0.085443  -0.174512  -0.002595  3.951534  0.001
C  C161  1  0.45980391  0.34919009  0.26454614  1  0.461076  -0.012341  0.038446  0.08297  -0.013614  3.969633  -0.006
C  C162  1  0.39880802  0.20891948  0.33070467  1  0.404709  -0.008172  0.043617  0.087724  -0.009208  3.937423  -0.003
C  C163  1  0.47582402  0.20454616  0.27153860  1  -0.067532  -0.000474  -0.080427  -0.157241  -0.002151  3.907005  0.001
C  C164  1  0.12684023  0.21468682  0.47447265  1  0.639192  -0.002474  0.080892  0.264807  -0.003308  4.126418  -0.002
C  C165  1  0.06993241  0.18231880  0.46339659  1  -0.004924  0.015386  -0.114094  -0.208666  0.006991  3.970412  0.01
C  C166  1  0.98752341  0.18466925  0.50573885  1  -0.053384  -0.003109  -0.101623  -0.069173  -0.003928  4.069951  -0.003
C  C167  1  0.95814211  0.21785435  0.56165046  1  -0.038761  0.013943  -0.120937  -0.135217  0.006383  4.100288  0.008
C  C168  1  0.01295598  0.25049528  0.57326981  1  -0.044601  -0.00168  -0.103792  -0.157469  -0.002865  4.028421  -0.002
C  C169  1  0.09722752  0.25095635  0.52896830  1  0.326693  0.011091  0.063058  0.074062  0.003833  4.035777  0.007
C  C170  1  0.14473874  0.32753726  0.57064089  1  0.542656  -0.021898  0.055429  0.047384  -0.024143  3.895093  -0.011
C  C171  1  0.19278244  0.34041582  0.60429117  1  0.023069  -0.011168  0.000245  0.101938  -0.012617  4.04487  -0.005
C  C172  1  0.20937819  0.41578952  0.59699115  1  -0.077314  -0.003389  -0.0874  -0.176075  -0.004578  3.950718  -0.001
C  C173  1  0.25624233  0.42606328  0.62909075  1  0.470694  -0.006264  0.038698  0.088487  -0.007499  3.954493  -0.002
C  C174  1  0.26982863  0.29322351  0.67735473  1  0.445142  -0.007019  0.045694  0.096435  -0.007943  3.938151  -0.003
C  C175  1  0.22350046  0.27797278  0.64711537  1  -0.005091  -0.002094  -0.081696  -0.161036  -0.003603  3.94595  0.0
C  C176  1  0.14819554  0.74801531  0.06983623  1  0.63568  -0.001084  0.07873  0.259135  -0.001549  4.133929  0.001
C  C177  1  0.15426033  0.81565801  0.98757914  1  -0.000938  0.008323  -0.117978  -0.224287  0.003388  4.013252  0.006
C  C178  1  0.21740202  0.83891180  0.89432296  1  -0.134435  -0.003561  -0.101987  -0.077893  -0.004756  4.082668  -0.002
C  C179  1  0.27592064  0.79541538  0.88069059  1  0.014598  0.007208  -0.121159  -0.141706  0.002937  4.097856  0.004
C  C180  1  0.27151015  0.72901632  0.96084709  1  -0.029889  -0.004016  -0.098772  -0.153353  -0.004912  4.036543  -0.003
C  C181  1  0.20895337  0.70513510  0.05502944  1  0.309243  0.009338  0.066587  0.078641  0.003703  4.037353  0.007
C  C182  1  0.22813947  0.57951403  0.13933699  1  0.545016  -0.009119  0.063679  0.063947  -0.011592  3.920142  -0.002
C  C183  1  0.24479111  0.51740573  0.20631160  1  0.013958  -0.018059  -0.00139  0.093242  -0.020166  4.037317  -0.01
C  C184  1  0.25817635  0.44681794  0.20280549  1  -0.021002  -0.000874  -0.085317  -0.175174  -0.00287  3.951451  0.001
C  C185  1  0.27558327  0.38621018  0.26454926  1  0.431689  -0.012126  0.038563  0.083905  -0.013417  3.969564  -0.006
C  C186  1  0.27058524  0.46016756  0.33083335  1  0.429346  -0.007883  0.043479  0.087301  -0.00896  3.938283  -0.003
C  C187  1  0.25255840  0.52370970  0.27188981  1  -0.053341  -0.000987  -0.080251  -0.157042  -0.002554  3.906959  0.001
C  C188  1  0.39864332  0.31073274  0.47455463  1  0.640648  -0.002487  0.080786  0.264481  -0.003311  4.127006  -0.002
C  C189  1  0.46659780  0.35415517  0.46351799  1  -0.057745  0.015431  -0.114131  -0.208735  0.006983  3.970838  0.01
C  C190  1  0.50666237  0.30946096  0.50587175  1  -0.044047  -0.00313  -0.101419  -0.069235  -0.003937  4.07013  -0.003
C  C191  1  0.48012651  0.22037372  0.56174178  1  -0.041067  0.013932  -0.121124  -0.135056  0.006374  4.099774  0.008
C  C192  1  0.41367999  0.17613336  0.57336473  1  -0.037736  -0.001674  -0.104121  -0.157438  -0.002874  4.028625  -0.002
C  C193  1  0.37373865  0.21996920  0.52905464  1  0.333221  0.011075  0.063207  0.074045  0.003814  4.036581  0.007
C  C194  1  0.28466770  0.10174826  0.57061016  1  0.542099  -0.022362  0.055002  0.046523  -0.02465  3.895507  -0.011
C  C195  1  0.20300259  0.05523564  0.60419509  1  0.007586  -0.011216  0.000857  0.102623  -0.012714  4.044841  -0.005
C  C196  1  0.19373995  0.98713158  0.59693535  1  -0.04313  -0.003463  -0.087974  -0.176205  -0.004668  3.950496  -0.001
C  C197  1  0.11477521  0.94476526  0.62904262  1  0.431794  -0.006342  0.038749  0.08826  -0.007576  3.955572  -0.002
C  C198  1  0.05289986  0.02940336  0.67716544  1  0.422802  -0.007133  0.045995  0.097116  -0.008012  3.938307  -0.003
C  C199  1  0.12946982  0.07489256  0.64691003  1  0.030961  -0.002117  -0.081979  -0.16152  -0.003683  3.947701  0.0
C  C200  1  0.81792938  0.85180429  0.93007413  1  0.654365  -0.001047  0.078918  0.259937  -0.001534  4.133627  0.001
C  C201  1  0.80346513  0.84581546  0.01224415  1  -0.016758  0.008258  -0.117956  -0.224536  0.003371  4.013219  0.006
C  C202  1  0.73354034  0.78267393  0.10556278  1  -0.13199  -0.003475  -0.102267  -0.078759  -0.004724  4.082746  -0.002
C  C203  1  0.67634982  0.72409839  0.11934029  1  0.013963  0.007183  -0.121041  -0.141319  0.002918  4.097485  0.004
C  C204  1  0.68994302  0.72846809  0.03926981  1  -0.017274  -0.003977  -0.098225  -0.1518  -0.004874  4.036018  -0.003
C  C205  1  0.76017507  0.79099811  0.94503002  1  0.291678  0.009339  0.066832  0.077774  0.003689  4.038651  0.007
C  C206  1  0.71866349  0.77162376  0.86097701  1  0.534892  -0.007791  0.063985  0.065  -0.010341  3.919693  -0.001
C  C207  1  0.72354344  0.75494989  0.79400481  1  0.010349  -0.018183  -0.001392  0.091975  -0.020292  4.038525  -0.01
C  C208  1  0.64950086  0.74157408  0.79742892  1  -0.012966  -0.000537  -0.085586  -0.174987  -0.002606  3.951815  0.001
C  C209  1  0.65076914  0.72432403  0.73551697  1  0.422292  -0.012221  0.038818  0.083945  -0.013503  3.969287  -0.006
C  C210  1  0.79102276  0.72941971  0.66928037  1  0.431565  -0.008053  0.043507  0.087437  -0.009126  3.938051  -0.003
C  C211  1  0.79549233  0.74729074  0.72838335  1  -0.048946  -0.000526  -0.079968  -0.156599  -0.002177  3.907764  0.001
C  C212  1  0.78529851  0.60135254  0.52557871  1  0.639237  -0.002481  0.081055  0.264732  -0.003325  4.126733  -0.002
C  C213  1  0.81760930  0.53331664  0.53676364  1  0.001896  0.0154  -0.114097  -0.208361  0.006998  3.969665  0.01
C  C214  1  0.81523459  0.49321497  0.49445863  1  -0.04225  -0.003139  -0.101445  -0.069756  -0.003949  4.069555  -0.003
C  C215  1  0.78209029  0.51976771  0.43850614  1  -0.042044  0.013956  -0.121142  -0.134854  0.006384  4.098842  0.008
C  C216  1  0.74951369  0.58625973  0.42677449  1  -0.101637  -0.001681  -0.103894  -0.157473  -0.002891  4.027474  -0.002
C  C217  1  0.74905479  0.62624949  0.47104436  1  0.344944  0.011116  0.063032  0.073665  0.00383  4.036011  0.007
C  C218  1  0.67243768  0.71541108  0.42940728  1  0.534917  -0.022058  0.055155  0.046801  -0.024252  3.89532  -0.011
C  C219  1  0.65952023  0.79708922  0.39580563  1  -0.007003  -0.011245  0.000377  0.102316  -0.012759  4.044287  -0.005
C  C220  1  0.58412764  0.80636264  0.40312599  1  -0.06855  -0.003403  -0.087596  -0.176241  -0.004599  3.950357  -0.001
C  C221  1  0.57382597  0.88531557  0.37102235  1  0.465787  -0.006358  0.039103  0.088836  -0.007612  3.954478  -0.002
C  C222  1  0.70660962  0.94718772  0.32283525  1  0.450562  -0.007096  0.045847  0.097121  -0.008031  3.938618  -0.003
C  C223  1  0.72189449  0.87063575  0.35304291  1  0.020504  -0.002127  -0.081729  -0.161207  -0.003619  3.947381  0.0
C  C224  1  0.25200985  0.21812471  0.93010107  1  0.619784  -0.001028  0.078963  0.259797  -0.001573  4.13324  0.001
C  C225  1  0.18433495  0.14194647  0.01231176  1  -0.067414  0.008411  -0.11782  -0.224556  0.003385  4.013681  0.006
C  C226  1  0.16100118  0.11181083  0.10560675  1  -0.010383  -0.003615  -0.102158  -0.077993  -0.00478  4.082943  -0.002
C  C227  1  0.20444411  0.15666392  0.11932329  1  -0.024892  0.007196  -0.121138  -0.142056  0.002933  4.097887  0.004
C  C228  1  0.27086655  0.23239646  0.03921571  1  -0.108381  -0.004108  -0.098474  -0.152599  -0.004923  4.036405  -0.003
C  C229  1  0.29481125  0.26404499  0.94499815  1  0.390846  0.009382  0.066648  0.077988  0.003697  4.0379  0.007
C  C230  1  0.42043136  0.36744298  0.86084328  1  0.542654  -0.008888  0.063744  0.064087  -0.011354  3.919934  -0.002
C  C231  1  0.48255450  0.45105908  0.79385044  1  0.031998  -0.01821  -0.001316  0.092928  -0.020343  4.037317  -0.01
C  C232  1  0.55317197  0.46097815  0.79729859  1  -0.016133  -0.000757  -0.085428  -0.174683  -0.002813  3.950651  0.001
C  C233  1  0.61379399  0.54013366  0.73547363  1  0.418949  -0.012285  0.038738  0.083673  -0.013539  3.968709  -0.006
C  C234  1  0.53979294  0.60134951  0.66922295  1  0.467089  -0.007957  0.043538  0.087334  -0.009074  3.937859  -0.003
C  C235  1  0.47623720  0.52437447  0.72825471  1  -0.084154  -0.00092  -0.080484  -0.157365  -0.00246  3.907415  0.001
C  C236  1  0.68915273  0.87323930  0.52552032  1  0.63285  -0.002435  0.081007  0.264506  -0.003282  4.126116  -0.002
C  C237  1  0.64580201  0.93025796  0.53646350  1  -0.058518  0.01543  -0.113961  -0.208091  0.006987  3.968484  0.01
C  C238  1  0.69060022  0.01267879  0.49396147  1  -0.019829  -0.003084  -0.101681  -0.069931  -0.003872  4.070406  -0.003
C  C239  1  0.77969061  0.04194513  0.43807407  1  -0.030317  0.013915  -0.120898  -0.135231  0.006378  4.099415  0.008
C  C240  1  0.82384748  0.98702511  0.42658127  1  -0.046728  -0.001635  -0.103997  -0.157119  -0.002823  4.028055  -0.002
C  C241  1  0.77991660  0.90277533  0.47098755  1  0.319902  0.011079  0.062967  0.074273  0.003808  4.035978  0.007
C  C242  1  0.89809225  0.85517301  0.42943121  1  0.557937  -0.022164  0.054795  0.046383  -0.024517  3.895614  -0.011
C  C243  1  0.94463051  0.80713513  0.39577873  1  -0.005233  -0.01111  0.000629  0.102707  -0.012552  4.044376  -0.005
C  C244  1  0.01274845  0.79061064  0.40302789  1  -0.055  -0.003488  -0.087623  -0.176324  -0.004665  3.950225  -0.001
C  C245  1  0.05516599  0.74378351  0.37090338  1  0.444318  -0.00618  0.038829  0.088873  -0.007434  3.953792  -0.002
C  C246  1  0.97054240  0.73005989  0.32274639  1  0.437971  -0.007013  0.045853  0.097148  -0.007903  3.938425  -0.003
C  C247  1  0.92502271  0.77637550  0.35299200  1  0.013748  -0.00219  -0.081835  -0.161519  -0.003709  3.94675  0.0
C  C248  1  0.46811307  0.00201018  0.43011121  1  0.613866  -0.001018  0.078914  0.259693  -0.001562  4.133421  0.001
C  C249  1  0.39193778  0.93434804  0.51231659  1  -0.066887  0.008424  -0.117911  -0.224415  0.00339  4.013322  0.006
C  C250  1  0.36179274  0.91101696  0.60561722  1  -0.01139  -0.003616  -0.102059  -0.078031  -0.004781  4.082784  -0.002
C  C251  1  0.40664850  0.95444714  0.61933859  1  -0.023717  0.007213  -0.121213  -0.142079  0.002941  4.097482  0.004
C  C252  1  0.48239217  0.02087079  0.53921442  1  -0.112021  -0.004119  -0.098493  -0.152574  -0.004927  4.036347  -0.003
C  C253  1  0.51403137  0.04481414  0.44500299  1  0.400622  0.009399  0.066759  0.077979  0.003701  4.038114  0.007
C  C254  1  0.61743826  0.17043113  0.36084037  1  0.542919  -0.008944  0.063816  0.064041  -0.011408  3.920004  -0.002
C  C255  1  0.70104988  0.23254590  0.29385331  1  0.031965  -0.018206  -0.001288  0.093101  -0.020339  4.037139  -0.01
C  C256  1  0.71097771  0.30315904  0.29730617  1  -0.015879  -0.000773  -0.08553  -0.174882  -0.00283  3.950549  0.001
C  C257  1  0.79014074  0.36378328  0.23547332  1  0.418815  -0.012287  0.038798  0.083807  -0.013539  3.968547  -0.006
C  C258  1  0.85134523  0.28977589  0.16921978  1  0.413534  -0.007992  0.043489  0.087346  -0.009062  3.937896  -0.003
C  C259  1  0.77436634  0.22622974  0.22825191  1  -0.030057  -0.000891  -0.080471  -0.157343  -0.002476  3.907443  0.001
C  C260  1  0.12325824  0.43915652  0.02550359  1  0.632686  -0.00244  0.080997  0.264459  -0.003287  4.126027  -0.002
C  C261  1  0.18027528  0.39580702  0.03645039  1  -0.058127  0.01543  -0.113969  -0.208119  0.006986  3.968712  0.01
C  C262  1  0.26269013  0.44060250  0.99396298  1  -0.020009  -0.003092  -0.101788  -0.069878  -0.003881  4.070287  -0.003
C  C263  1  0.29195912  0.52969657  0.93807906  1  -0.031609  0.013918  -0.120697  -0.134918  0.006379  4.099205  0.008
C  C264  1  0.23704169  0.57384999  0.92657261  1  -0.047035  -0.001644  -0.104136  -0.157363  -0.00283  4.028226  -0.002
C  C265  1  0.15279045  0.52991780  0.97097505  1  0.320523  0.011085  0.063054  0.074334  0.003811  4.036148  0.007
C  C266  1  0.10518347  0.64809034  0.92942787  1  0.557752  -0.022164  0.054957  0.046542  -0.024515  3.895266  -0.011
C  C267  1  0.05714508  0.69463450  0.89577092  1  -0.005456  -0.011133  0.000469  0.102459  -0.012577  4.04431  -0.005
C  C268  1  0.04061808  0.76275100  0.90301668  1  -0.0557  -0.003482  -0.087602  -0.176324  -0.00466  3.950426  -0.001
C  C269  1  0.99378678  0.80516783  0.87089513  1  0.444746  -0.006199  0.038764  0.088657  -0.007455  3.954173  -0.002
C  C270  1  0.98006958  0.72054647  0.82273952  1  0.43772  -0.007021  0.045823  0.096972  -0.007911  3.938489  -0.003
C  C271  1  0.02638175  0.67502644  0.85298636  1  0.013462  -0.002183  -0.081821  -0.161345  -0.003702  3.94671  0.0
C  C272  1  0.10178702  0.56790945  0.43010381  1  0.629578  -0.001067  0.079007  0.259974  -0.00155  4.133937  0.001
C  C273  1  0.09579256  0.55343797  0.51227676  1  -0.016726  0.008246  -0.117903  -0.22452  0.003366  4.01372  0.006
C  C274  1  0.03265058  0.48351218  0.60558525  1  -0.132242  -0.003481  -0.10218  -0.078354  -0.004732  4.082987  -0.002
C  C275  1  0.97407887  0.42632764  0.61935253  1  0.01418  0.007167  -0.121033  -0.141525  0.00291  4.098107  0.004
C  C276  1  0.97844262  0.43991763  0.53928799  1  -0.017535  -0.003981  -0.098209  -0.151788  -0.004877  4.036575  -0.003
C  C277  1  0.04098034  0.51015892  0.44504905  1  0.316806  0.009328  0.066659  0.077519  0.003683  4.038623  0.007
C  C278  1  0.02161336  0.46865910  0.36097409  1  0.534605  -0.007781  0.064218  0.065201  -0.010331  3.919513  -0.001
C  C279  1  0.00495400  0.47354676  0.29398903  1  0.011347  -0.018218  -0.001559  0.091933  -0.02033  4.038115  -0.01
C  C280  1  0.99158325  0.39950612  0.29741087  1  -0.021281  -0.000555  -0.085684  -0.175044  -0.002608  3.951532  0.001
C  C281  1  0.97434016  0.40077498  0.23549445  1  0.429727  -0.012226  0.038815  0.083788  -0.013531  3.969269  -0.006
C  C282  1  0.97942169  0.54102491  0.16926390  1  0.431205  -0.008067  0.043478  0.087432  -0.009142  3.938  -0.003
C  C283  1  0.99729135  0.54549746  0.22836456  1  -0.048913  -0.000519  -0.079902  -0.156612  -0.002173  3.907558  0.001
C  C284  1  0.85135857  0.53529078  0.02556710  1  0.63833  -0.002475  0.080897  0.26453  -0.003323  4.126968  -0.002
C  C285  1  0.78332512  0.56760377  0.03675058  1  0.00254  0.015396  -0.114073  -0.20842  0.006997  3.969729  0.01
C  C286  1  0.74321508  0.56522689  0.99445634  1  -0.041092  -0.003137  -0.10145  -0.069636  -0.003946  4.069447  -0.003
C  C287  1  0.76976989  0.53208399  0.93849736  1  -0.042501  0.013956  -0.121049  -0.134751  0.006384  4.099097  0.008
C  C288  1  0.83626082  0.49950852  0.92676716  1  -0.100999  -0.001675  -0.103945  -0.157791  -0.002886  4.028098  -0.002
C  C289  1  0.87625232  0.49904497  0.97103484  1  0.344076  0.011115  0.06309  0.073908  0.003831  4.036106  0.007
C  C290  1  0.96541714  0.42243520  0.92939269  1  0.535205  -0.022027  0.055142  0.046647  -0.024216  3.895631  -0.011
C  C291  1  0.04709398  0.40952354  0.89578868  1  -0.007869  -0.011225  0.000393  0.102402  -0.012738  4.044472  -0.005
C  C292  1  0.05637084  0.33413705  0.90309398  1  -0.069602  -0.0034  -0.087579  -0.176285  -0.004593  3.950491  -0.001
C  C293  1  0.13532756  0.32385285  0.87097803  1  0.464099  -0.006343  0.038873  0.088678  -0.007599  3.954804  -0.002
C  C294  1  0.19719359  0.45663977  0.82280036  1  0.452  -0.007088  0.045777  0.097152  -0.008024  3.938551  -0.003
C  C295  1  0.12063347  0.47190668  0.85302423  1  0.020127  -0.002127  -0.081695  -0.1613  -0.003615  3.947524  0.0
C  C296  1  0.43220388  0.53193401  0.56974851  1  0.606327  -0.001053  0.078465  0.259355  -0.001589  4.134154  0.001
C  C297  1  0.44671591  0.60812071  0.48755671  1  -0.047076  0.008371  -0.117858  -0.224553  0.003388  4.013362  0.006
C  C298  1  0.51671584  0.63833797  0.39425565  1  -0.061081  -0.003603  -0.101962  -0.077669  -0.004764  4.082283  -0.002
C  C299  1  0.57394221  0.59355725  0.38051957  1  -0.020144  0.007207  -0.12129  -0.142729  0.002933  4.098767  0.004
C  C300  1  0.56027266  0.51779647  0.46059149  1  -0.093795  -0.004019  -0.097944  -0.151511  -0.004901  4.036566  -0.003
C  C301  1  0.48996874  0.48608494  0.55480258  1  0.364256  0.00934  0.066582  0.077462  0.003693  4.039336  0.007
C  C302  1  0.53147554  0.38269528  0.63891437  1  0.532779  -0.007818  0.063673  0.064382  -0.010413  3.920918  -0.001
C  C303  1  0.52655213  0.29905666  0.70593810  1  0.039455  -0.018314  -0.001396  0.092502  -0.02043  4.038408  -0.01
C  C304  1  0.60054233  0.28901355  0.70259857  1  -0.016898  -0.000575  -0.085298  -0.174359  -0.002619  3.951587  0.001
C  C305  1  0.59918452  0.20980876  0.76454852  1  0.461212  -0.012337  0.038371  0.082961  -0.01361  3.969931  -0.006
C  C306  1  0.45891246  0.14882336  0.83070402  1  0.404781  -0.008163  0.043675  0.087762  -0.0092  3.937559  -0.003
C  C307  1  0.45454965  0.22583756  0.77152715  1  -0.068719  -0.000508  -0.080584  -0.157493  -0.00218  3.907701  0.001
C  C308  1  0.46468344  0.87684200  0.97445885  1  0.638896  -0.002473  0.08083  0.264832  -0.003308  4.126427  -0.002
C  C309  1  0.43231205  0.81993661  0.96338590  1  -0.00452  0.015395  -0.113925  -0.208467  0.006996  3.970327  0.01
C  C310  1  0.43465871  0.73752557  0.00572633  1  -0.054578  -0.003108  -0.101501  -0.06916  -0.003928  4.069979  -0.003
C  C311  1  0.46784371  0.70813617  0.06163679  1  -0.039686  0.013955  -0.121001  -0.13508  0.006388  4.100033  0.008
C  C312  1  0.50048675  0.76295450  0.07325268  1  -0.044017  -0.001676  -0.103911  -0.157695  -0.002862  4.028418  -0.002
C  C313  1  0.50095385  0.84722418  0.02895624  1  0.327526  0.011093  0.063151  0.0741  0.003834  4.035872  0.007
C  C314  1  0.57754266  0.89473522  0.07062282  1  0.542995  -0.021919  0.055405  0.047396  -0.024166  3.895397  -0.011
C  C315  1  0.59041042  0.94277347  0.10428889  1  0.023857  -0.011164  0.000301  0.101844  -0.012615  4.044577  -0.005
C  C316  1  0.66578179  0.95936974  0.09699824  1  -0.076776  -0.00339  -0.08745  -0.176045  -0.004577  3.950474  -0.001
C  C317  1  0.67604143  0.00621924  0.12911836  1  0.468505  -0.006253  0.038706  0.088473  -0.007493  3.954251  -0.002
C  C318  1  0.54320459  0.01979749  0.17738593  1  0.444956  -0.007012  0.04592  0.096793  -0.00794  3.937913  -0.003
C  C319  1  0.52796648  0.97348111  0.14712891  1  -0.005012  -0.002099  -0.081727  -0.160965  -0.003607  3.945826  0.0
C  C320  1  0.99801838  0.89821282  0.56982503  1  0.622418  -0.001075  0.078552  0.259122  -0.001541  4.134123  0.001
C  C321  1  0.06565350  0.90426502  0.48757397  1  -0.000417  0.008336  -0.117842  -0.224185  0.003395  4.013248  0.006
C  C322  1  0.08891106  0.96740326  0.39431234  1  -0.13487  -0.003554  -0.101963  -0.07788  -0.004751  4.082378  -0.002
C  C323  1  0.04542195  0.02592761  0.38067801  1  0.014787  0.007226  -0.121156  -0.141758  0.002945  4.097779  0.004
C  C324  1  0.97902211  0.02151791  0.46083994  1  -0.02978  -0.004013  -0.098679  -0.153198  -0.004908  4.03651  -0.003
C  C325  1  0.95514611  0.95896938  0.55501632  1  0.32285  0.009352  0.066559  0.078466  0.003709  4.037684  0.007
C  C326  1  0.82952927  0.97814570  0.63933636  1  0.544731  -0.009031  0.063737  0.064164  -0.011506  3.920058  -0.002
C  C327  1  0.76742433  0.99480258  0.70630463  1  0.011583  -0.018077  -0.001389  0.092987  -0.020189  4.037484  -0.01
C  C328  1  0.69683740  0.00818662  0.70279553  1  -0.017279  -0.000851  -0.08534  -0.175098  -0.002851  3.951412  0.001
C  C329  1  0.63621782  0.02558497  0.76454346  1  0.431584  -0.012143  0.038575  0.083808  -0.013434  3.969411  -0.006
C  C330  1  0.71016488  0.02059337  0.83083419  1  0.429495  -0.007901  0.043525  0.087276  -0.008978  3.938172  -0.003
C  C331  1  0.77371463  0.00257374  0.77188772  1  -0.052244  -0.000954  -0.080211  -0.15676  -0.002526  3.906598  0.001
C  C332  1  0.56071975  0.14863124  0.97456794  1  0.639412  -0.002487  0.08091  0.264634  -0.003312  4.127189  -0.002
C  C333  1  0.60414234  0.21658277  0.96353714  1  -0.054738  0.015434  -0.114272  -0.209001  0.006987  3.971072  0.01
C  C334  1  0.55945070  0.25665410  0.00588207  1  -0.045475  -0.003128  -0.101312  -0.068996  -0.003937  4.07008  -0.003
C  C335  1  0.47036675  0.23012944  0.06174426  1  -0.040456  0.013935  -0.121214  -0.135164  0.006376  4.100129  0.008
C  C336  1  0.42612564  0.16367951  0.07336932  1  -0.036094  -0.001676  -0.104007  -0.157287  -0.002877  4.028887  -0.002
C  C337  1  0.46995554  0.12373039  0.02906980  1  0.332181  0.011078  0.063244  0.074111  0.003816  4.036625  0.007
C  C338  1  0.35173524  0.03465552  0.07062662  1  0.541896  -0.022298  0.055033  0.046432  -0.024579  3.895383  -0.011
C  C339  1  0.30523361  0.95299271  0.10420196  1  0.00822  -0.011213  0.000879  0.10247  -0.01271  4.045376  -0.005
C  C340  1  0.23712989  0.94373525  0.09694360  1  -0.042719  -0.00345  -0.087967  -0.17621  -0.004654  3.95047  -0.001
C  C341  1  0.19476805  0.86477022  0.12904210  1  0.431475  -0.006346  0.038803  0.088431  -0.00758  3.955121  -0.002
C  C342  1  0.27940865  0.80289504  0.17716788  1  0.422747  -0.007131  0.045991  0.097054  -0.00801  3.938156  -0.003
C  C343  1  0.32489207  0.87946184  0.14691800  1  0.030886  -0.002104  -0.081886  -0.161181  -0.003669  3.947925  0.0
N  N344  1  0.65695591  0.21839903  0.13791442  1  -1.222557  0.022236  -0.311105  -0.260315  0.003688  3.497264  0.015
N  N345  1  0.39018415  0.27931156  0.32896880  1  -1.25124  0.048798  -0.331917  -0.23724  0.022921  3.550027  0.038
N  N346  1  0.15491161  0.27721045  0.54189554  1  -1.246136  0.043057  -0.330189  -0.27948  0.015852  3.600126  0.031
N  N347  1  0.28637971  0.36612946  0.66906358  1  -1.226241  0.050889  -0.330192  -0.234666  0.024062  3.531034  0.041
N  N348  1  0.20492099  0.64365876  0.13819997  1  -1.21922  0.022493  -0.312021  -0.260821  0.003871  3.49864  0.015
N  N349  1  0.28095525  0.39159733  0.32892438  1  -1.228019  0.048603  -0.331922  -0.237582  0.022699  3.549696  0.038
N  N350  1  0.30320044  0.18081675  0.54188234  1  -1.236298  0.043002  -0.330428  -0.279366  0.015858  3.602228  0.031
N  N351  1  0.04465533  0.96473654  0.66896107  1  -1.218085  0.050939  -0.330784  -0.234941  0.024035  3.532779  0.041
N  N352  1  0.78172669  0.79494660  0.86195626  1  -1.208172  0.022313  -0.311528  -0.260608  0.003793  3.497107  0.015
N  N353  1  0.72060455  0.71908324  0.67108036  1  -1.223284  0.048742  -0.332091  -0.237281  0.022953  3.549421  0.038
N  N354  1  0.72276910  0.69682857  0.45814580  1  -1.24849  0.04286  -0.330546  -0.27958  0.015831  3.601719  0.03
N  N355  1  0.63373958  0.95544660  0.33104010  1  -1.223958  0.05104  -0.330448  -0.234897  0.024066  3.531922  0.041
N  N356  1  0.35634690  0.34313445  0.86187764  1  -1.213466  0.022246  -0.311901  -0.260424  0.003769  3.498563  0.015
N  N357  1  0.60838714  0.60984911  0.67107398  1  -1.226803  0.04849  -0.33219  -0.237421  0.022694  3.549477  0.037
N  N358  1  0.81901981  0.84500951  0.45817782  1  -1.247053  0.043179  -0.330258  -0.27963  0.015914  3.601434  0.031
N  N359  1  0.03520848  0.71360164  0.33095700  1  -1.217487  0.050894  -0.330544  -0.235324  0.023991  3.531519  0.04
N  N360  1  0.59312053  0.10634453  0.36187692  1  -1.213722  0.022265  -0.312003  -0.260442  0.003776  3.498551  0.015
N  N361  1  0.85985200  0.35837373  0.17107080  1  -1.226673  0.048479  -0.332076  -0.237356  0.022686  3.549594  0.037
N  N362  1  0.09502801  0.56902014  0.95816803  1  -1.246394  0.043151  -0.330281  -0.279437  0.0159  3.601464  0.031
N  N363  1  0.96360905  0.78521663  0.83094538  1  -1.217302  0.050903  -0.33048  -0.235121  0.023993  3.531695  0.04
N  N364  1  0.04492596  0.53171596  0.36197311  1  -1.207928  0.022274  -0.311628  -0.260703  0.003757  3.497122  0.015
N  N365  1  0.96909377  0.47060461  0.17106086  1  -1.223105  0.048734  -0.331958  -0.237027  0.022949  3.549313  0.038
N  N366  1  0.94682958  0.47276028  0.95813742  1  -1.248144  0.04287  -0.330457  -0.279372  0.015839  3.601701  0.03
N  N367  1  0.20545294  0.38376602  0.83100661  1  -1.223721  0.051047  -0.330303  -0.234909  0.024063  3.531762  0.041
N  N368  1  0.46841491  0.40698441  0.63789904  1  -1.222549  0.022193  -0.310978  -0.260035  0.003681  3.497125  0.015
N  N369  1  0.52930772  0.14018909  0.82896290  1  -1.250866  0.04874  -0.331896  -0.237148  0.022898  3.549702  0.038
N  N370  1  0.52721438  0.90490768  0.04187891  1  -1.24681  0.043077  -0.330197  -0.279481  0.015854  3.600489  0.031
N  N371  1  0.61609833  0.03634171  0.16910764  1  -1.225631  0.0509  -0.330234  -0.234678  0.024068  3.530829  0.041
N  N372  1  0.89367748  0.95493178  0.63819113  1  -1.21975  0.022516  -0.312064  -0.260908  0.003864  3.498677  0.015
N  N373  1  0.64159367  0.03095747  0.82892503  1  -1.2282  0.048632  -0.331998  -0.237592  0.022714  3.549803  0.038
N  N374  1  0.43080501  0.05319074  0.04189656  1  -1.23648  0.04299  -0.330473  -0.279396  0.015851  3.601943  0.031
N  N375  1  0.21474521  0.79465304  0.16895478  1  -1.217633  0.050929  -0.330753  -0.23497  0.024031  3.532277  0.041
O  O376  1  0.75112755  0.11720479  0.15951327  1  -1.154881  0.10638  -0.341147  -0.50934  0.049668  2.391084  0.077
O  O377  1  0.20464769  0.21182460  0.43730065  1  -1.144847  0.125619  -0.341532  -0.505334  0.058563  2.356531  0.097
O  O378  1  0.08918803  0.72335217  0.15951946  1  -1.15319  0.106498  -0.341146  -0.509382  0.04966  2.39052  0.077
O  O379  1  0.35802065  0.35077628  0.43736516  1  -1.142802  0.125773  -0.341344  -0.505211  0.05857  2.356844  0.097
O  O380  1  0.88287700  0.91079170  0.84034562  1  -1.157359  0.106346  -0.341277  -0.509637  0.049592  2.391071  0.077
O  O381  1  0.78815552  0.64201327  0.56271755  1  -1.143879  0.12606  -0.341173  -0.504892  0.058602  2.356868  0.097
O  O382  1  0.27674966  0.24879367  0.84038424  1  -1.147946  0.106325  -0.341295  -0.509605  0.049614  2.390453  0.077
O  O383  1  0.64907654  0.79541064  0.56280696  1  -1.141283  0.125693  -0.341507  -0.505629  0.058526  2.356579  0.097
O  O384  1  0.49880592  0.02676025  0.34038581  1  -1.148333  0.106358  -0.341367  -0.509618  0.049633  2.390884  0.077
O  O385  1  0.04543010  0.39908235  0.06278474  1  -1.141109  0.125693  -0.341453  -0.505505  0.058528  2.356516  0.097
O  O386  1  0.16079253  0.63285587  0.34038172  1  -1.156447  0.106243  -0.341249  -0.509571  0.049577  2.390623  0.077
O  O387  1  0.89201907  0.53814408  0.06270549  1  -1.143182  0.126046  -0.341088  -0.504846  0.058597  2.357219  0.097
O  O388  1  0.36721939  0.50119257  0.65948051  1  -1.154752  0.106303  -0.34127  -0.509509  0.049636  2.390629  0.077
O  O389  1  0.46182943  0.95464905  0.93729387  1  -1.144873  0.125626  -0.341516  -0.505327  0.058569  2.356813  0.097
O  O390  1  0.97334761  0.83921778  0.65951460  1  -1.153282  0.106555  -0.341144  -0.509413  0.049688  2.391104  0.077
O  O391  1  0.60076136  0.10801210  0.93737820  1  -1.142778  0.125761  -0.341384  -0.505196  0.058565  2.357048  0.097
