# generated using pymatgen
data_Zn3P2H32C52(NO6)2
_symmetry_space_group_name_H-M   'P 1'
_cell_length_a   22.16276709
_cell_length_b   22.16275253
_cell_length_c   22.16274711
_cell_angle_alpha   106.16315269
_cell_angle_beta   107.16253449
_cell_angle_gamma   115.24857194
_symmetry_Int_Tables_number   1
_chemical_formula_structural   Zn3P2H32C52(NO6)2
_chemical_formula_sum   'Zn12 P8 H128 C208 N8 O48'
_cell_volume   8314.96871989
_cell_formula_units_Z   4
loop_
 _symmetry_equiv_pos_site_id
 _symmetry_equiv_pos_as_xyz
  1  'x, y, z'
loop_
 _atom_site_type_symbol
 _atom_site_label
 _atom_site_symmetry_multiplicity
 _atom_site_fract_x
 _atom_site_fract_y
 _atom_site_fract_z
 _atom_site_occupancy
 _atom_site_pbe_bader_charge
 _atom_site_pbe_bader_spin_density
 _atom_site_pbe_cm5_charge
 _atom_site_pbe_ddec_charge
 _atom_site_pbe_ddec_spin_density
 _atom_site_pbe_ddec_sum_bond_order
 _atom_site_pbe_magmom
Zn  Zn0  1  0.14793482  0.24999900  0.39793530  1  1.409202  0  0.690639  1.011758  0  2.210708  0
Zn  Zn1  1  0.35206377  0.75000050  0.10206329  1  1.408987  0  0.690629  1.011756  0  2.210657  0
Zn  Zn2  1  0.85206361  0.74999943  0.60206319  1  1.409189  0  0.69062  1.011761  0  2.210628  0
Zn  Zn3  1  0.64793581  0.25000043  0.89793532  1  1.409027  0  0.690636  1.01177  0  2.210711  0
Zn  Zn4  1  0.08463846  0.10579626  0.25314573  1  1.281957  0  0.687565  0.824942  0  2.399554  0
Zn  Zn5  1  0.41536122  0.66850625  0.02115606  1  1.279777  0  0.687552  0.824928  0  2.399269  0
Zn  Zn6  1  0.14734803  0.39420365  0.47884136  1  1.280661  0  0.687501  0.824823  0  2.399732  0
Zn  Zn7  1  0.35265118  0.83149378  0.24685570  1  1.278912  0  0.687552  0.824913  0  2.399623  0
Zn  Zn8  1  0.91535997  0.89420406  0.74685598  1  1.282099  0  0.687535  0.824878  0  2.399565  0
Zn  Zn9  1  0.58463949  0.33149342  0.97884255  1  1.27983  0  0.687531  0.824875  0  2.399304  0
Zn  Zn10  1  0.85265155  0.60579635  0.52115745  1  1.280475  0  0.687521  0.824869  0  2.39967  0
Zn  Zn11  1  0.64734725  0.16850654  0.75314510  1  1.278916  0  0.687537  0.824882  0  2.399604  0
P  P12  1  0.41183251  0.46167464  0.20192433  1  1.304284  0  0.026596  0.110955  0  3.619838  0
P  P13  1  0.08816710  0.29009084  0.04984170  1  1.341816  0  0.026572  0.110941  0  3.619853  0
P  P14  1  0.74024943  0.03832568  0.45015769  1  1.313643  0  0.026599  0.111026  0  3.619809  0
P  P15  1  0.75975248  0.20990824  0.29807635  1  1.33763  0  0.026592  0.110984  0  3.619865  0
P  P16  1  0.58816876  0.53832582  0.79807782  1  1.304359  0  0.026589  0.110978  0  3.619819  0
P  P17  1  0.91183134  0.70990900  0.95015717  1  1.341729  0  0.02657  0.110946  0  3.619848  0
P  P18  1  0.25975128  0.96167353  0.54984259  1  1.313666  0  0.026562  0.110922  0  3.619814  0
P  P19  1  0.24024880  0.79009174  0.70192296  1  1.337489  0  0.026579  0.110998  0  3.619852  0
H  H20  1  0.06972386  0.10149966  0.11790512  1  0.150787  0  0.120511  0.097195  0  1.028178  0
H  H21  1  0.43027661  0.54818112  0.03177602  1  0.098149  0  0.120548  0.093398  0  1.032539  0
H  H22  1  0.01640524  0.39850050  0.46822488  1  0.098178  0  0.120539  0.097272  0  1.028167  0
H  H23  1  0.48359544  0.95181945  0.38209597  1  0.126824  0  0.12055  0.097296  0  1.028168  0
H  H24  1  0.93027401  0.89850034  0.88209497  1  0.150757  0  0.120553  0.097304  0  1.028192  0
H  H25  1  0.56972579  0.45182092  0.96822689  1  0.098077  0  0.120563  0.09339  0  1.03258  0
H  H26  1  0.98359604  0.60150043  0.53177514  1  0.098547  0  0.120518  0.097241  0  1.02819  0
H  H27  1  0.51640470  0.04818039  0.61790431  1  0.126835  0  0.120522  0.097217  0  1.028162  0
H  H28  1  0.97505175  0.93896581  0.17738086  1  0.128523  0  0.133615  0.111749  0  0.958112  0
H  H29  1  0.52494770  0.70232930  0.96391412  1  0.134321  0  0.133629  0.111756  0  0.958174  0
H  H30  1  0.23841514  0.56103367  0.53608498  1  0.130054  0  0.133615  0.111716  0  0.958206  0
H  H31  1  0.26158444  0.79767053  0.32261813  1  0.137064  0  0.133621  0.111738  0  0.958177  0
H  H32  1  0.02494839  0.06103403  0.82261897  1  0.128501  0  0.133633  0.111771  0  0.958176  0
H  H33  1  0.47505243  0.29767054  0.03608616  1  0.134303  0  0.133622  0.111735  0  0.958175  0
H  H34  1  0.76158614  0.43896632  0.46391478  1  0.129961  0  0.13363  0.111756  0  0.95821  0
H  H35  1  0.73841570  0.20232978  0.67738183  1  0.137058  0  0.133619  0.111749  0  0.958164  0
H  H36  1  0.91054618  0.83363132  0.05124997  1  0.123173  0  0.103806  0.094994  0  1.042449  0
H  H37  1  0.58945338  0.64070426  0.92308556  1  0.119357  0  0.10379  0.094958  0  1.042527  0
H  H38  1  0.21761983  0.66636862  0.57691427  1  0.126968  0  0.103794  0.094961  0  1.042466  0
H  H39  1  0.28238077  0.85929572  0.44874790  1  0.124703  0  0.103793  0.094957  0  1.042531  0
H  H40  1  0.08945509  0.16636914  0.94874947  1  0.123151  0  0.103812  0.09498  0  1.042457  0
H  H41  1  0.41054732  0.35929542  0.07691531  1  0.119342  0  0.103822  0.094992  0  1.042497  0
H  H42  1  0.78238144  0.33363137  0.42308549  1  0.127006  0  0.1038  0.094993  0  1.042474  0
H  H43  1  0.71761937  0.14070459  0.55125161  1  0.124719  0  0.103795  0.094976  0  1.042487  0
H  H44  1  0.92397112  0.86619261  0.95709708  1  0.106184  0  0.107207  0.09539  0  1.040646  0
H  H45  1  0.57602882  0.53312655  0.94222234  1  0.070823  0  0.107216  0.095806  0  1.039919  0
H  H46  1  0.09090546  0.63380760  0.55777778  1  0.078578  0  0.107225  0.095406  0  1.040582  0
H  H47  1  0.40909477  0.96687380  0.54290165  1  0.090563  0  0.107228  0.095448  0  1.040606  0
H  H48  1  0.07602958  0.13380754  0.04290300  1  0.1062  0  0.107235  0.095458  0  1.040547  0
H  H49  1  0.42397188  0.46687361  0.05777955  1  0.070862  0  0.107228  0.095871  0  1.039832  0
H  H50  1  0.90909638  0.36619316  0.44222192  1  0.078596  0  0.107212  0.095383  0  1.040612  0
H  H51  1  0.59090480  0.03312619  0.45709806  1  0.090557  0  0.10722  0.095428  0  1.040621  0
H  H52  1  0.19836740  0.22169047  0.15637389  1  0.061762  0  0.097772  0.095472  0  1.024022  0
H  H53  1  0.30163144  0.45800586  0.02332250  1  0.062033  0  0.097788  0.095535  0  1.023901  0
H  H54  1  0.93468367  0.27830984  0.47667593  1  0.058596  0  0.097766  0.095457  0  1.024015  0
H  H55  1  0.56531674  0.04199387  0.34362546  1  0.055814  0  0.097779  0.095502  0  1.023994  0
H  H56  1  0.80163386  0.77830906  0.84362665  1  0.061759  0  0.097769  0.095465  0  1.024022  0
H  H57  1  0.69836756  0.54199382  0.97667650  1  0.062048  0  0.097763  0.09552  0  1.023913  0
H  H58  1  0.06531704  0.72169125  0.52332442  1  0.058624  0  0.097768  0.095484  0  1.024027  0
H  H59  1  0.43468340  0.95800691  0.65637418  1  0.055756  0  0.097764  0.095464  0  1.023987  0
H  H60  1  0.28055514  0.30918779  0.12293579  1  0.030679  0  0.092305  0.084141  0  1.026311  0
H  H61  1  0.21944420  0.34237923  0.02863239  1  0.028096  0  0.092302  0.084139  0  1.026221  0
H  H62  1  0.81374796  0.19081326  0.47136806  1  0.038906  0  0.092298  0.084105  0  1.026251  0
H  H63  1  0.68625422  0.15762054  0.37706557  1  0.031101  0  0.092346  0.084208  0  1.026162  0
H  H64  1  0.71944556  0.69081189  0.87706507  1  0.0309  0  0.092336  0.084183  0  1.026337  0
H  H65  1  0.78055538  0.65762030  0.97136673  1  0.028121  0  0.092314  0.084161  0  1.026226  0
H  H66  1  0.18625274  0.80918783  0.52863273  1  0.039097  0  0.092316  0.084165  0  1.026229  0
H  H67  1  0.31374649  0.84238007  0.62293419  1  0.03094  0  0.092342  0.084213  0  1.026203  0
H  H68  1  0.41792808  0.47920285  0.34397912  1  0.064589  0  0.104058  0.105262  0  0.999666  0
H  H69  1  0.08207138  0.42605026  0.06127489  1  0.067439  0  0.104058  0.105265  0  0.999592  0
H  H70  1  0.86477525  0.02079659  0.43872524  1  0.085903  0  0.104042  0.105244  0  0.999591  0
H  H71  1  0.63522624  0.07395034  0.15602174  1  0.061575  0  0.104039  0.105248  0  0.99966  0
H  H72  1  0.58207206  0.52079840  0.65602200  1  0.064622  0  0.104058  0.10525  0  0.99964  0
H  H73  1  0.91792819  0.57394974  0.93872527  1  0.067558  0  0.104048  0.105258  0  0.999605  0
H  H74  1  0.13522546  0.97920356  0.56127530  1  0.086003  0  0.104036  0.105235  0  0.999551  0
H  H75  1  0.36477560  0.92605043  0.84397796  1  0.061591  0  0.104067  0.10527  0  0.999603  0
H  H76  1  0.33173003  0.39263252  0.37548874  1  0.099627  0  0.11254  0.12136  0  0.980682  0
H  H77  1  0.16827009  0.54375901  0.06090219  1  0.099921  0  0.112511  0.121328  0  0.980632  0
H  H78  1  0.98285558  0.10736740  0.43909727  1  0.096295  0  0.112552  0.121383  0  0.980652  0
H  H79  1  0.51714400  0.95624120  0.12451090  1  0.1012  0  0.112535  0.121341  0  0.980709  0
H  H80  1  0.66827011  0.60736920  0.62451206  1  0.099624  0  0.112522  0.121354  0  0.980688  0
H  H81  1  0.83173005  0.45624176  0.93909835  1  0.099941  0  0.112495  0.12128  0  0.980651  0
H  H82  1  0.01714456  0.89263291  0.56090314  1  0.096506  0  0.112547  0.121383  0  0.980664  0
H  H83  1  0.48285727  0.04375926  0.87548899  1  0.101226  0  0.112527  0.121365  0  0.980692  0
H  H84  1  0.46790344  0.59165214  0.17871647  1  0.055977  0  0.096689  0.094749  0  0.99943  0
H  H85  1  0.03209688  0.21081194  0.12374836  1  0.037984  0  0.096671  0.094727  0  0.999454  0
H  H86  1  0.58706362  0.90834829  0.37625093  1  0.052267  0  0.09668  0.094741  0  0.999422  0
H  H87  1  0.91293802  0.28918807  0.32128591  1  0.065145  0  0.096638  0.094712  0  0.999449  0
H  H88  1  0.53209783  0.40834880  0.82128491  1  0.055971  0  0.096682  0.094738  0  0.999414  0
H  H89  1  0.96790212  0.78918680  0.87625219  1  0.038027  0  0.096692  0.094741  0  0.999435  0
H  H90  1  0.41293595  0.09165077  0.62374897  1  0.052268  0  0.096687  0.09476  0  0.999403  0
H  H91  1  0.08706325  0.71081239  0.67871489  1  0.065164  0  0.096675  0.094752  0  0.999443  0
H  H92  1  0.43887686  0.68890593  0.18760817  1  0.121547  0  0.102512  0.113438  0  1.052669  0
H  H93  1  0.06112270  0.24873109  0.25002900  1  0.122172  0  0.102497  0.113416  0  1.052718  0
H  H94  1  0.49870259  0.81109347  0.24997021  1  0.135648  0  0.10252  0.113446  0  1.052699  0
H  H95  1  0.00130015  0.25127037  0.31239275  1  0.136977  0  0.102502  0.113428  0  1.052725  0
H  H96  1  0.56112441  0.31109453  0.81239263  1  0.121565  0  0.102508  0.113415  0  1.052725  0
H  H97  1  0.93887687  0.75126938  0.74997174  1  0.122162  0  0.102511  0.113407  0  1.052695  0
H  H98  1  0.50129925  0.18890589  0.75003046  1  0.135632  0  0.102498  0.113419  0  1.052736  0
H  H99  1  0.99870113  0.74873056  0.68760772  1  0.137014  0  0.102503  0.113423  0  1.052716  0
H  H100  1  0.28246365  0.59007123  0.26210205  1  0.088881  0  0.106147  0.110982  0  0.996684  0
H  H101  1  0.21753569  0.47963803  0.30760754  1  0.102046  0  0.106151  0.110987  0  0.996663  0
H  H102  1  0.67203092  0.90992712  0.19239163  1  0.094787  0  0.106134  0.110973  0  0.996652  0
H  H103  1  0.82797169  0.02036265  0.23789825  1  0.094147  0  0.106132  0.110987  0  0.996681  0
H  H104  1  0.71753592  0.40992830  0.73789843  1  0.088889  0  0.106154  0.110984  0  0.996626  0
H  H105  1  0.78246444  0.52036181  0.69239320  1  0.102317  0  0.106147  0.110983  0  0.996734  0
H  H106  1  0.32796865  0.09007146  0.80760724  1  0.094813  0  0.106144  0.110986  0  0.996698  0
H  H107  1  0.17202902  0.97963796  0.76210151  1  0.094124  0  0.106129  0.110974  0  0.996703  0
H  H108  1  0.31243284  0.49254619  0.25498427  1  0.084064  0  0.095897  0.093792  0  1.058427  0
H  H109  1  0.18756840  0.44255109  0.18011391  1  0.083415  0  0.095908  0.093758  0  1.058435  0
H  H110  1  0.76243838  0.00745345  0.31988604  1  0.080208  0  0.095888  0.093786  0  1.058425  0
H  H111  1  0.73756359  0.05744820  0.24501623  1  0.090544  0  0.095914  0.093826  0  1.058403  0
H  H112  1  0.68756843  0.50745427  0.74501652  1  0.084081  0  0.095891  0.093726  0  1.058459  0
H  H113  1  0.81243116  0.55744750  0.81988676  1  0.083371  0  0.095897  0.093775  0  1.058388  0
H  H114  1  0.23756175  0.99254545  0.68011353  1  0.079145  0  0.095894  0.093748  0  1.058456  0
H  H115  1  0.26243712  0.94255195  0.75498385  1  0.091569  0  0.095917  0.093798  0  1.05841  0
H  H116  1  0.51858208  0.42026570  0.22839864  1  0.041655  0  0.096608  0.094318  0  1.006877  0
H  H117  1  0.98141746  0.20981658  0.90168378  1  0.053704  0  0.096603  0.094298  0  1.006957  0
H  H118  1  0.80813313  0.07973359  0.59831561  1  0.040745  0  0.096616  0.094338  0  1.006885  0
H  H119  1  0.69186740  0.29018219  0.27160127  1  0.053575  0  0.096611  0.094333  0  1.006871  0
H  H120  1  0.48141919  0.57973523  0.77160273  1  0.041339  0  0.096635  0.094346  0  1.006952  0
H  H121  1  0.01858041  0.79018202  0.09831548  1  0.053535  0  0.096585  0.09429  0  1.006916  0
H  H122  1  0.19186700  0.92026625  0.40168467  1  0.040718  0  0.096621  0.094361  0  1.006883  0
H  H123  1  0.30813161  0.70981655  0.72839747  1  0.053549  0  0.096606  0.094326  0  1.006883  0
H  H124  1  0.64581924  0.47749350  0.32957118  1  0.07657  0  0.104801  0.109493  0  1.000055  0
H  H125  1  0.85418095  0.18375317  0.83167507  1  0.082981  0  0.104813  0.109502  0  1.000031  0
H  H126  1  0.85207891  0.02250600  0.66832406  1  0.103656  0  0.104808  0.109459  0  0.999993  0
H  H127  1  0.64792210  0.31624600  0.17042815  1  0.075861  0  0.104809  0.109486  0  0.999924  0
H  H128  1  0.35418146  0.52250759  0.67042961  1  0.076563  0  0.104809  0.109499  0  1.000023  0
H  H129  1  0.14581748  0.81624526  0.16832432  1  0.082998  0  0.10479  0.109451  0  1.00001  0
H  H130  1  0.14792122  0.97749431  0.33167680  1  0.103676  0  0.104804  0.109476  0  1.000005  0
H  H131  1  0.35207803  0.68375384  0.82957214  1  0.075848  0  0.10481  0.10948  0  0.999951  0
H  H132  1  0.64148059  0.66735989  0.43912245  1  0.090842  0  0.110312  0.117135  0  0.989546  0
H  H133  1  0.85851812  0.29763752  0.02588117  1  0.086808  0  0.110332  0.117143  0  0.989426  0
H  H134  1  0.77175759  0.83263802  0.47411690  1  0.082711  0  0.110332  0.117184  0  0.989473  0
H  H135  1  0.72824021  0.20235803  0.06087936  1  0.078534  0  0.110335  0.117202  0  0.989429  0
H  H136  1  0.35851897  0.33264012  0.56087906  1  0.09165  0  0.110305  0.117129  0  0.989497  0
H  H137  1  0.14147918  0.70236076  0.97411783  1  0.086896  0  0.110315  0.117105  0  0.98946  0
H  H138  1  0.22824369  0.16736291  0.52588357  1  0.082697  0  0.110344  0.117151  0  0.989461  0
H  H139  1  0.27175993  0.79764228  0.93912015  1  0.078532  0  0.110299  0.117124  0  0.98945  0
H  H140  1  0.51407263  0.61121622  0.33837226  1  0.051498  0  0.100658  0.103402  0  1.009953  0
H  H141  1  0.98592715  0.32429733  0.09714467  1  0.111151  0  0.100737  0.103546  0  1.010044  0
H  H142  1  0.72715237  0.88878325  0.40285453  1  0.051307  0  0.100739  0.103545  0  1.010068  0
H  H143  1  0.77284664  0.17570072  0.16163067  1  0.049829  0  0.10073  0.103567  0  1.010024  0
H  H144  1  0.48592750  0.38878409  0.66162906  1  0.051489  0  0.100715  0.103506  0  1.00992  0
H  H145  1  0.01407129  0.67570298  0.90285523  1  0.111149  0  0.100747  0.10356  0  1.010051  0
H  H146  1  0.27284834  0.11121736  0.59714569  1  0.051311  0  0.100736  0.10355  0  1.010073  0
H  H147  1  0.22715293  0.82429833  0.83836878  1  0.049837  0  0.100739  0.103555  0  1.010041  0
C  C148  1  0.99547492  0.98791514  0.02717463  1  0.041944  0  0.001789  0.030047  0  3.983591  0
C  C149  1  0.50452307  0.53169798  0.99243844  1  0.046568  0  0.001744  0.030104  0  3.983009  0
C  C150  1  0.03925994  0.51208488  0.50756172  1  0.074575  0  0.001772  0.030014  0  3.983471  0
C  C151  1  0.46074053  0.96830241  0.47282525  1  -0.073013  0  0.001783  0.030009  0  3.983547  0
C  C152  1  0.00452182  0.01208519  0.97282476  1  0.077387  0  0.001727  0.02996  0  3.983611  0
C  C153  1  0.49547820  0.46830249  0.00756371  1  0.072856  0  0.001784  0.03016  0  3.982988  0
C  C154  1  0.96074133  0.48791605  0.49243920  1  0.045814  0  0.001769  0.030023  0  3.983539  0
C  C155  1  0.53926018  0.03169868  0.52717510  1  -0.016236  0  0.001795  0.030083  0  3.983595  0
C  C156  1  0.03194039  0.04131147  0.09901674  1  0.440647  0  0.057953  0.053265  0  3.867556  0
C  C157  1  0.46805826  0.56707511  0.00937007  1  0.491785  0  0.057946  0.055903  0  3.867945  0
C  C158  1  0.05770570  0.45868820  0.49063035  1  0.524171  0  0.057933  0.053172  0  3.867468  0
C  C159  1  0.44229452  0.93292469  0.40098291  1  0.514381  0  0.05795  0.053209  0  3.867479  0
C  C160  1  0.96805521  0.95868918  0.90098285  1  0.440732  0  0.057861  0.053063  0  3.867671  0
C  C161  1  0.53194584  0.43292786  0.99063362  1  0.491659  0  0.057899  0.055872  0  3.867983  0
C  C162  1  0.94229501  0.54131147  0.50936870  1  0.5238  0  0.057939  0.05314  0  3.867576  0
C  C163  1  0.55770619  0.06707640  0.59901698  1  0.514326  0  0.05795  0.05324  0  3.867547  0
C  C164  1  0.98028451  0.94985124  0.13360235  1  0.520413  0  0.063933  0.109162  0  3.891683  0
C  C165  1  0.51971371  0.65331755  0.96956556  1  0.455665  0  0.063923  0.109114  0  3.891998  0
C  C166  1  0.18375239  0.55014879  0.53043341  1  0.467285  0  0.063908  0.10915  0  3.891754  0
C  C167  1  0.31624786  0.84668281  0.36639600  1  0.440348  0  0.063918  0.109204  0  3.891657  0
C  C168  1  0.01971337  0.05014970  0.86639620  1  0.520333  0  0.063951  0.109177  0  3.891685  0
C  C169  1  0.48028756  0.34668292  0.03043658  1  0.455633  0  0.063974  0.109173  0  3.891849  0
C  C170  1  0.81624719  0.44985073  0.46956481  1  0.467466  0  0.063922  0.109167  0  3.891699  0
C  C171  1  0.68375285  0.15331827  0.63360389  1  0.440303  0  0.063916  0.109188  0  3.891627  0
C  C172  1  0.94395648  0.89278627  0.06416758  1  -0.069177  0  -0.076572  -0.114884  0  4.000975  0
C  C173  1  0.55604205  0.62021064  0.94882892  1  -0.017054  0  -0.076575  -0.114925  0  4.001281  0
C  C174  1  0.17138240  0.60721398  0.55117009  1  -0.010752  0  -0.076587  -0.114875  0  4.000964  0
C  C175  1  0.32861753  0.87978951  0.43583119  1  9.8e-05  0  -0.076622  -0.114932  0  4.001095  0
C  C176  1  0.05604196  0.10721451  0.93583200  1  -0.068884  0  -0.076623  -0.114891  0  4.000992  0
C  C177  1  0.44395921  0.37978936  0.05117265  1  -0.017303  0  -0.076697  -0.115065  0  4.001309  0
C  C178  1  0.82862058  0.39278741  0.44883012  1  -0.010747  0  -0.076596  -0.114943  0  4.000995  0
C  C179  1  0.67138205  0.12021143  0.56416922  1  0.000125  0  -0.076588  -0.114914  0  4.001064  0
C  C180  1  0.95183621  0.91175078  0.01093057  1  -0.085114  0  -0.057987  -0.07216  0  3.927737  0
C  C181  1  0.54816221  0.55909370  0.95991401  1  -0.04762  0  -0.057982  -0.072085  0  3.927649  0
C  C182  1  0.09918122  0.58825049  0.54008635  1  -0.096816  0  -0.05797  -0.072128  0  3.927563  0
C  C183  1  0.40081882  0.94090684  0.48906813  1  -0.012128  0  -0.057999  -0.072202  0  3.927749  0
C  C184  1  0.04816223  0.08825000  0.98906901  1  -0.08541  0  -0.057991  -0.072235  0  3.927699  0
C  C185  1  0.45183962  0.44090755  0.04008852  1  -0.047325  0  -0.057947  -0.072112  0  3.927538  0
C  C186  1  0.90082005  0.41175091  0.45991425  1  -0.096854  0  -0.057958  -0.072075  0  3.927608  0
C  C187  1  0.59918019  0.05909425  0.51093170  1  -0.012144  0  -0.057974  -0.072182  0  3.927781  0
C  C188  1  0.20750513  0.25013951  0.28650244  1  1.583598  0  0.22127  0.597878  0  4.170738  0
C  C189  1  0.29249129  0.57899568  0.04263184  1  1.573167  0  0.22129  0.597887  0  4.170726  0
C  C190  1  0.03636357  0.24985612  0.45736414  1  1.577887  0  0.221307  0.597901  0  4.170743  0
C  C191  1  0.46363607  0.92100281  0.21349258  1  1.584926  0  0.221325  0.597903  0  4.170667  0
C  C192  1  0.79249329  0.74985847  0.71349908  1  1.583563  0  0.221185  0.597748  0  4.170902  0
C  C193  1  0.70750658  0.42100337  0.95736484  1  1.573041  0  0.221278  0.597823  0  4.170845  0
C  C194  1  0.96363544  0.75014167  0.54263209  1  1.577997  0  0.221356  0.597997  0  4.170543  0
C  C195  1  0.53636239  0.07899607  0.78650107  1  1.584951  0  0.221236  0.597851  0  4.170774  0
C  C196  1  0.25983166  0.30199660  0.26779619  1  0.045956  0  -0.013241  -0.027043  0  3.950615  0
C  C197  1  0.24016414  0.50796191  0.04216198  1  0.031279  0  -0.013183  -0.026932  0  3.950666  0
C  C198  1  0.96579996  0.19800309  0.45783642  1  -0.007396  0  -0.013241  -0.027047  0  3.95056  0
C  C199  1  0.53420110  0.99203744  0.23220246  1  0.006865  0  -0.013234  -0.026987  0  3.95058  0
C  C200  1  0.74016790  0.69800105  0.73220468  1  0.045984  0  -0.013195  -0.026893  0  3.950666  0
C  C201  1  0.75983373  0.49203715  0.95783516  1  0.031277  0  -0.013269  -0.027084  0  3.950764  0
C  C202  1  0.03420132  0.80199831  0.54216418  1  -0.007406  0  -0.01322  -0.027003  0  3.950625  0
C  C203  1  0.46579904  0.00796380  0.76779686  1  0.006991  0  -0.013258  -0.027065  0  3.950656  0
C  C204  1  0.24606088  0.27856243  0.19688903  1  -0.059795  0  -0.085186  -0.08397  0  3.975785  0
C  C205  1  0.25393754  0.45082637  0.03250007  1  -0.04773  0  -0.08526  -0.084152  0  3.975978  0
C  C206  1  0.91832631  0.22143830  0.46749894  1  -0.016677  0  -0.085192  -0.083964  0  3.975819  0
C  C207  1  0.58167453  0.04917341  0.30311076  1  -0.034344  0  -0.085194  -0.084025  0  3.975794  0
C  C208  1  0.75394096  0.72143835  0.80311292  1  -0.0599  0  -0.085187  -0.083997  0  3.975829  0
C  C209  1  0.74606146  0.54917237  0.96749822  1  -0.047936  0  -0.085204  -0.084093  0  3.975979  0
C  C210  1  0.08167326  0.77856264  0.53250192  1  -0.016826  0  -0.085209  -0.08404  0  3.975822  0
C  C211  1  0.41832505  0.95082752  0.69688785  1  -0.034354  0  -0.085156  -0.08391  0  3.975746  0
C  C212  1  0.29238511  0.32757490  0.17854676  1  -0.008407  0  -0.091213  -0.107123  0  4.012605  0
C  C213  1  0.20761384  0.38616183  0.03518887  1  -0.02124  0  -0.09123  -0.107114  0  4.012619  0
C  C214  1  0.85097467  0.17242685  0.46481161  1  -0.035674  0  -0.091234  -0.107084  0  4.012518  0
C  C215  1  0.64902848  0.11383755  0.32145259  1  -0.006613  0  -0.091243  -0.107188  0  4.012518  0
C  C216  1  0.70761616  0.67242463  0.82145468  1  -0.008746  0  -0.091272  -0.107239  0  4.012717  0
C  C217  1  0.79238460  0.61383754  0.96480897  1  -0.021112  0  -0.091245  -0.107161  0  4.012588  0
C  C218  1  0.14902774  0.82757517  0.53518996  1  -0.035765  0  -0.091225  -0.107138  0  4.01254  0
C  C219  1  0.35097166  0.88616276  0.67854737  1  -0.005994  0  -0.091299  -0.107293  0  4.012675  0
C  C220  1  0.35434227  0.40052245  0.23100912  1  -0.479949  0  -0.022084  -0.031043  0  3.974958  0
C  C221  1  0.14565685  0.37666503  0.04617819  1  -0.484844  0  -0.022067  -0.031045  0  3.974876  0
C  C222  1  0.83048721  0.09947860  0.45382160  1  -0.474605  0  -0.022072  -0.031086  0  3.97484  0
C  C223  1  0.66951462  0.12333349  0.26899151  1  -0.541168  0  -0.022102  -0.031028  0  3.974946  0
C  C224  1  0.64565956  0.59947785  0.76899226  1  -0.479615  0  -0.02208  -0.03099  0  3.974982  0
C  C225  1  0.85434103  0.62333308  0.95381779  1  -0.484839  0  -0.022058  -0.030956  0  3.974935  0
C  C226  1  0.16951348  0.90052203  0.54618043  1  -0.474757  0  -0.022064  -0.031019  0  3.975025  0
C  C227  1  0.33048666  0.87666744  0.73100851  1  -0.541564  0  -0.022075  -0.031032  0  3.975009  0
C  C228  1  0.36916514  0.42311690  0.30243315  1  -0.015924  0  -0.081359  -0.090419  0  3.971031  0
C  C229  1  0.13083420  0.43326765  0.05394965  1  -0.035722  0  -0.081356  -0.090395  0  3.970965  0
C  C230  1  0.87931708  0.07688469  0.44604992  1  -0.052463  0  -0.081382  -0.090394  0  3.971022  0
C  C231  1  0.62068397  0.06673237  0.19756717  1  0.052551  0  -0.081369  -0.090461  0  3.971129  0
C  C232  1  0.63083613  0.57688404  0.69756867  1  -0.016142  0  -0.081373  -0.090416  0  3.971075  0
C  C233  1  0.86916425  0.56673218  0.94604787  1  -0.03557  0  -0.081371  -0.090479  0  3.971142  0
C  C234  1  0.12068362  0.92311547  0.55395153  1  -0.052558  0  -0.081363  -0.09039  0  3.971047  0
C  C235  1  0.37931731  0.93326856  0.80243195  1  0.052425  0  -0.081384  -0.090405  0  3.971136  0
C  C236  1  0.32173779  0.37478712  0.32050908  1  -0.075748  0  -0.075466  -0.079712  0  3.943535  0
C  C237  1  0.17826102  0.49876910  0.05304721  1  -0.046369  0  -0.075441  -0.079693  0  3.943694  0
C  C238  1  0.94572220  0.12521279  0.44695230  1  -0.036934  0  -0.075481  -0.079758  0  3.943599  0
C  C239  1  0.55427824  0.00122962  0.17949060  1  -0.087715  0  -0.075465  -0.079677  0  3.943663  0
C  C240  1  0.67826291  0.62521304  0.67949237  1  -0.075723  0  -0.075431  -0.079731  0  3.943554  0
C  C241  1  0.82173799  0.50123058  0.94695134  1  -0.04661  0  -0.075398  -0.079555  0  3.943628  0
C  C242  1  0.05427850  0.87478689  0.55304901  1  -0.037152  0  -0.075482  -0.07977  0  3.943662  0
C  C243  1  0.44572191  0.99877021  0.82050787  1  -0.087784  0  -0.075437  -0.079715  0  3.943745  0
C  C244  1  0.39181659  0.53488977  0.21605288  1  -0.535707  0  -0.022565  -0.031934  0  3.995128  0
C  C245  1  0.10818445  0.32423608  0.14307279  1  -0.510126  0  -0.02258  -0.031941  0  3.995022  0
C  C246  1  0.68116414  0.96510988  0.35692685  1  -0.471344  0  -0.022578  -0.031974  0  3.995153  0
C  C247  1  0.81883735  0.17576313  0.28394618  1  -0.513391  0  -0.022588  -0.032019  0  3.995203  0
C  C248  1  0.60818412  0.46511085  0.78394779  1  -0.535846  0  -0.022598  -0.031998  0  3.995218  0
C  C249  1  0.89181455  0.67576219  0.85692582  1  -0.510146  0  -0.022537  -0.031905  0  3.995264  0
C  C250  1  0.31883826  0.03488886  0.64307381  1  -0.471596  0  -0.022538  -0.031847  0  3.995138  0
C  C251  1  0.18116280  0.82423669  0.71605184  1  -0.513267  0  -0.02261  -0.031993  0  3.995171  0
C  C252  1  0.42742551  0.59108948  0.19759696  1  -0.047471  0  -0.091262  -0.108793  0  3.99626  0
C  C253  1  0.07257495  0.27016888  0.16366388  1  -0.049701  0  -0.091261  -0.108777  0  3.996061  0
C  C254  1  0.60650734  0.90891058  0.33633524  1  -0.093577  0  -0.091305  -0.108796  0  3.996224  0
C  C255  1  0.89349528  0.22983025  0.30240513  1  -0.04672  0  -0.091277  -0.108778  0  3.99612  0
C  C256  1  0.57257519  0.40891161  0.80240429  1  -0.047584  0  -0.091283  -0.108775  0  3.996142  0
C  C257  1  0.92742347  0.72982815  0.83633557  1  -0.049791  0  -0.091327  -0.108809  0  3.996298  0
C  C258  1  0.39349336  0.09108863  0.66366549  1  -0.093671  0  -0.091337  -0.108881  0  3.996204  0
C  C259  1  0.10650543  0.77017037  0.69759509  1  -0.046804  0  -0.091294  -0.108839  0  3.996157  0
C  C260  1  0.41175162  0.64621614  0.20292670  1  -0.018948  0  -0.087142  -0.088625  0  3.9499  0
C  C261  1  0.08824793  0.29117352  0.23446445  1  -0.011713  0  -0.087117  -0.088585  0  3.949767  0
C  C262  1  0.55671098  0.85378357  0.26553486  1  -0.044164  0  -0.087136  -0.088674  0  3.949847  0
C  C263  1  0.94329200  0.20882705  0.29707489  1  -0.058767  0  -0.087105  -0.088612  0  3.949762  0
C  C264  1  0.58825022  0.35378464  0.79707481  1  -0.019001  0  -0.087123  -0.088613  0  3.949867  0
C  C265  1  0.91174880  0.70882398  0.76553552  1  -0.011619  0  -0.087115  -0.088576  0  3.949908  0
C  C266  1  0.44329085  0.14621485  0.73446555  1  -0.043998  0  -0.087115  -0.08862  0  3.949895  0
C  C267  1  0.05670928  0.79117482  0.70292584  1  -0.058665  0  -0.087095  -0.088612  0  3.949829  0
C  C268  1  0.35862767  0.64533948  0.22545113  1  -0.008794  0  -0.018991  -0.031947  0  3.966653  0
C  C269  1  0.14137322  0.36682412  0.28671247  1  -0.023283  0  -0.018981  -0.031883  0  3.966664  0
C  C270  1  0.58011187  0.85465955  0.21328729  1  -0.011212  0  -0.018994  -0.031823  0  3.966558  0
C  C271  1  0.91989033  0.13317744  0.27455025  1  -0.003001  0  -0.019011  -0.031909  0  3.966734  0
C  C272  1  0.64137417  0.35466271  0.77455121  1  -0.00839  0  -0.019026  -0.032034  0  3.966926  0
C  C273  1  0.85862522  0.63317714  0.71328723  1  -0.02346  0  -0.019068  -0.032038  0  3.966822  0
C  C274  1  0.41988995  0.14533746  0.78671318  1  -0.011297  0  -0.019016  -0.031936  0  3.966705  0
C  C275  1  0.08011095  0.86682396  0.72544990  1  -0.003383  0  -0.018979  -0.031824  0  3.966645  0
C  C276  1  0.32321328  0.58970141  0.24419205  1  -0.046313  0  -0.07989  -0.082762  0  3.956945  0
C  C277  1  0.17678704  0.42097817  0.26648813  1  -0.048697  0  -0.079873  -0.082735  0  3.956918  0
C  C278  1  0.65449110  0.91029726  0.23351206  1  -0.04095  0  -0.079881  -0.082761  0  3.956903  0
C  C279  1  0.84551167  0.07902234  0.25580852  1  -0.062093  0  -0.07981  -0.082682  0  3.956814  0
C  C280  1  0.67678742  0.41029875  0.75580940  1  -0.046378  0  -0.07988  -0.082673  0  3.95687  0
C  C281  1  0.82321140  0.57902120  0.73351196  1  -0.048809  0  -0.07986  -0.082748  0  3.95703  0
C  C282  1  0.34551016  0.08969991  0.76648874  1  -0.040919  0  -0.079856  -0.082745  0  3.956998  0
C  C283  1  0.15448904  0.92097827  0.74419079  1  -0.062099  0  -0.07986  -0.082764  0  3.956964  0
C  C284  1  0.33998205  0.53531048  0.23993731  1  -0.056681  0  -0.090806  -0.108163  0  3.985619  0
C  C285  1  0.16001919  0.39995533  0.19532858  1  -0.066383  0  -0.090843  -0.108184  0  3.985651  0
C  C286  1  0.70462717  0.96468804  0.30467097  1  -0.059114  0  -0.090796  -0.10818  0  3.985686  0
C  C287  1  0.79537411  0.10004407  0.26006113  1  -0.055884  0  -0.09084  -0.108212  0  3.985624  0
C  C288  1  0.66001864  0.46468920  0.76006400  1  -0.056939  0  -0.090772  -0.108098  0  3.985604  0
C  C289  1  0.83998038  0.60004514  0.80467171  1  -0.066316  0  -0.090823  -0.10816  0  3.985744  0
C  C290  1  0.29537352  0.03530835  0.69532899  1  -0.058869  0  -0.090852  -0.108196  0  3.985733  0
C  C291  1  0.20462660  0.89995560  0.73993657  1  -0.055899  0  -0.090834  -0.108179  0  3.985649  0
C  C292  1  0.33975352  0.70297223  0.23079720  1  1.52019  0  0.204209  0.579067  0  4.162725  0
C  C293  1  0.16024305  0.39104181  0.36321759  1  1.526296  0  0.204174  0.579009  0  4.163004  0
C  C294  1  0.52782258  0.79702670  0.13678161  1  1.510538  0  0.204283  0.579094  0  4.162672  0
C  C295  1  0.97217943  0.10896536  0.26920444  1  1.507789  0  0.204175  0.579021  0  4.162831  0
C  C296  1  0.66024434  0.29702967  0.76920657  1  1.518594  0  0.204275  0.579142  0  4.162521  0
C  C297  1  0.83975482  0.60896008  0.63678348  1  1.526428  0  0.204335  0.579224  0  4.162619  0
C  C298  1  0.47217755  0.20297126  0.86321816  1  1.51091  0  0.20434  0.57923  0  4.162614  0
C  C299  1  0.02782358  0.89104120  0.73079538  1  1.508229  0  0.204283  0.579161  0  4.162662  0
C  C300  1  0.50710574  0.51131337  0.27702369  1  -0.516899  0  -0.023022  -0.031439  0  3.99031  0
C  C301  1  0.99289476  0.26991790  0.00420842  1  -0.59584  0  -0.02301  -0.031361  0  3.990157  0
C  C302  1  0.76571012  0.98868718  0.49579141  1  -0.474692  0  -0.02302  -0.031445  0  3.990215  0
C  C303  1  0.73429044  0.23008079  0.22297706  1  -0.502889  0  -0.02303  -0.031427  0  3.990145  0
C  C304  1  0.49289439  0.48868601  0.72297872  1  -0.516621  0  -0.022995  -0.031429  0  3.990183  0
C  C305  1  0.00710368  0.73008242  0.99579103  1  -0.596134  0  -0.022999  -0.03141  0  3.990156  0
C  C306  1  0.23429229  0.01131437  0.50420958  1  -0.474386  0  -0.022947  -0.031282  0  3.990104  0
C  C307  1  0.26570913  0.76991826  0.77702194  1  -0.502904  0  -0.023025  -0.031424  0  3.99022  0
C  C308  1  0.54518984  0.47440861  0.27467723  1  0.007854  0  -0.092478  -0.110055  0  4.013161  0
C  C309  1  0.95481047  0.22948711  0.92921890  1  0.009535  0  -0.092507  -0.110066  0  4.013027  0
C  C310  1  0.80026763  0.02559052  0.57077968  1  -0.002279  0  -0.092496  -0.110088  0  4.012872  0
C  C311  1  0.69973100  0.27051119  0.22532253  1  -0.051371  0  -0.092457  -0.11  0  4.012902  0
C  C312  1  0.45481029  0.52559171  0.72532499  1  0.008081  0  -0.092516  -0.110113  0  4.013297  0
C  C313  1  0.04518853  0.77051210  0.07078042  1  0.009956  0  -0.092466  -0.110023  0  4.012985  0
C  C314  1  0.19973250  0.97440838  0.42922080  1  -0.002186  0  -0.092562  -0.110226  0  4.012927  0
C  C315  1  0.30026857  0.72948833  0.77467660  1  -0.051373  0  -0.092509  -0.110093  0  4.01295  0
C  C316  1  0.61610642  0.50591233  0.33087859  1  -0.004668  0  -0.083443  -0.086521  0  3.973276  0
C  C317  1  0.88389394  0.21477158  0.88980615  1  0.011045  0  -0.083437  -0.085601  0  3.973885  0
C  C318  1  0.82496615  0.99408740  0.61019209  1  -0.042619  0  -0.083418  -0.08551  0  3.973797  0
C  C319  1  0.67503344  0.28522512  0.16912225  1  0.012396  0  -0.083452  -0.085622  0  3.973798  0
C  C320  1  0.38389485  0.49408861  0.66912414  1  -0.004779  0  -0.083459  -0.086469  0  3.973246  0
C  C321  1  0.11610337  0.78522670  0.11019195  1  0.011337  0  -0.083415  -0.085499  0  3.973869  0
C  C322  1  0.17503455  0.00591275  0.38980845  1  -0.042638  0  -0.083397  -0.085471  0  3.973707  0
C  C323  1  0.32496613  0.71477347  0.83087752  1  0.012445  0  -0.083405  -0.08551  0  3.973726  0
C  C324  1  0.65079106  0.57545684  0.39045486  1  -0.078727  0  -0.015396  -0.026601  0  3.957235  0
C  C325  1  0.84920841  0.23966284  0.92466656  1  -0.04665  0  -0.015453  -0.029427  0  3.960799  0
C  C326  1  0.81499877  0.92454363  0.57533251  1  -0.122664  0  -0.015462  -0.029405  0  3.960744  0
C  C327  1  0.68500113  0.26033375  0.10954516  1  -0.04815  0  -0.015439  -0.029377  0  3.960579  0
C  C328  1  0.34920851  0.42454316  0.60954620  1  -0.078784  0  -0.015426  -0.026703  0  3.957095  0
C  C329  1  0.15078945  0.76033481  0.07533335  1  -0.046815  0  -0.015481  -0.029489  0  3.960821  0
C  C330  1  0.18500364  0.07545886  0.42466828  1  -0.122881  0  -0.015489  -0.029558  0  3.960717  0
C  C331  1  0.31499900  0.73966609  0.89045512  1  -0.048092  0  -0.015452  -0.0294  0  3.9607  0
C  C332  1  0.61380989  0.61328076  0.39252853  1  -0.029813  0  -0.079353  -0.08395  0  3.956217  0
C  C333  1  0.88618922  0.27871642  0.99947244  1  -0.000802  0  -0.079315  -0.082999  0  3.956689  0
C  C334  1  0.77924581  0.88671701  0.50052595  1  0.074896  0  -0.079343  -0.083108  0  3.95668  0
C  C335  1  0.72075388  0.22127974  0.10747249  1  0.004296  0  -0.079333  -0.083099  0  3.95666  0
C  C336  1  0.38618968  0.38671831  0.60747272  1  -0.030615  0  -0.079285  -0.083861  0  3.956086  0
C  C337  1  0.11380808  0.72128186  0.00052656  1  -0.001286  0  -0.079291  -0.082953  0  3.956662  0
C  C338  1  0.22075660  0.11328454  0.49947504  1  0.075058  0  -0.079291  -0.082939  0  3.956471  0
C  C339  1  0.27924569  0.77871932  0.89252696  1  0.003944  0  -0.07928  -0.082999  0  3.956623  0
C  C340  1  0.54260983  0.58155249  0.33621544  1  0.016845  0  -0.089502  -0.108195  0  3.993974  0
C  C341  1  0.95739091  0.29360488  0.03894540  1  -0.080294  0  -0.089595  -0.108357  0  3.993876  0
C  C342  1  0.75466064  0.91844657  0.46105435  1  -0.052421  0  -0.089585  -0.108293  0  3.993939  0
C  C343  1  0.74533853  0.20639327  0.16378538  1  -0.036996  0  -0.089573  -0.108355  0  3.993932  0
C  C344  1  0.45739029  0.41844736  0.66378710  1  0.016875  0  -0.089575  -0.108321  0  3.994022  0
C  C345  1  0.04260809  0.70639527  0.96105417  1  -0.079865  0  -0.089585  -0.108323  0  3.993924  0
C  C346  1  0.24534176  0.08155451  0.53894696  1  -0.052809  0  -0.089603  -0.108372  0  3.993831  0
C  C347  1  0.25466047  0.79360594  0.83621349  1  -0.036665  0  -0.089589  -0.108345  0  3.993915  0
C  C348  1  0.72659436  0.60859948  0.45138392  1  1.564956  0  0.220426  0.596205  0  4.167898  0
C  C349  1  0.77340688  0.22478971  0.88200419  1  1.574645  0  0.220453  0.596961  0  4.168169  0
C  C350  1  0.84278564  0.89140119  0.61799253  1  1.560187  0  0.220487  0.596929  0  4.168121  0
C  C351  1  0.65721478  0.27520885  0.04861658  1  1.564217  0  0.220492  0.597018  0  4.168052  0
C  C352  1  0.27340635  0.39140068  0.54861707  1  1.564796  0  0.220417  0.59624  0  4.16786  0
C  C353  1  0.22658985  0.77520590  0.11799256  1  1.574022  0  0.220486  0.596926  0  4.168144  0
C  C354  1  0.15721506  0.10859802  0.38200685  1  1.560334  0  0.220488  0.597127  0  4.167983  0
C  C355  1  0.34278820  0.72479537  0.95138576  1  1.5642  0  0.220469  0.596951  0  4.168227  0
N  N356  1  0.02459736  0.02275651  0.15029375  1  -1.254127  0  -0.322903  -0.204616  0  3.581804  0
N  N357  1  0.47540142  0.62569518  0.99815765  1  -1.242215  0  -0.322922  -0.2044  0  3.580395  0
N  N358  1  0.12753742  0.47724328  0.50184064  1  -1.254833  0  -0.322926  -0.204589  0  3.581777  0
N  N359  1  0.37246271  0.87430466  0.34970500  1  -1.254589  0  -0.32291  -0.204648  0  3.581668  0
N  N360  1  0.97539881  0.97724350  0.84970584  1  -1.254104  0  -0.322904  -0.204567  0  3.581728  0
N  N361  1  0.52460211  0.37430559  0.00184482  1  -1.242151  0  -0.322866  -0.204304  0  3.580205  0
N  N362  1  0.87246330  0.52275733  0.49815687  1  -1.254898  0  -0.322908  -0.204573  0  3.581734  0
N  N363  1  0.62753687  0.12569627  0.65029451  1  -1.254493  0  -0.322907  -0.20465  0  3.58171  0
O  O364  1  0.16064801  0.18101095  0.23814534  1  -1.192955  0  -0.326074  -0.560061  0  2.355282  0
O  O365  1  0.33934824  0.57749615  0.02035899  1  -1.185523  0  -0.32611  -0.559484  0  2.354175  0
O  O366  1  0.05713268  0.31898738  0.47963483  1  -1.188188  0  -0.32611  -0.560147  0  2.355145  0
O  O367  1  0.44286375  0.92250436  0.26185256  1  -1.185573  0  -0.326111  -0.560098  0  2.355134  0
O  O368  1  0.83934928  0.81898687  0.76185580  1  -1.192955  0  -0.326036  -0.559987  0  2.355289  0
O  O369  1  0.66064909  0.42250541  0.97963686  1  -1.185481  0  -0.326096  -0.559495  0  2.354287  0
O  O370  1  0.94286634  0.68101135  0.52036166  1  -1.188214  0  -0.326098  -0.560118  0  2.35518  0
O  O371  1  0.55713242  0.07749611  0.73814535  1  -1.185728  0  -0.326045  -0.560022  0  2.355395  0
O  O372  1  0.21262106  0.27791773  0.34746472  1  -1.173091  0  -0.303094  -0.546945  0  2.348965  0
O  O373  1  0.28737671  0.63484130  0.06529789  1  -1.166969  0  -0.303047  -0.546977  0  2.349132  0
O  O374  1  0.06954658  0.22208066  0.43470494  1  -1.169272  0  -0.303033  -0.54682  0  2.349135  0
O  O375  1  0.43045282  0.86515791  0.15253330  1  -1.179459  0  -0.303075  -0.546921  0  2.349082  0
O  O376  1  0.78737565  0.72207837  0.65253577  1  -1.173018  0  -0.303054  -0.546923  0  2.348891  0
O  O377  1  0.71262115  0.36515730  0.93470318  1  -1.166915  0  -0.303058  -0.546897  0  2.349121  0
O  O378  1  0.93045017  0.77791729  0.56529020  1  -1.169187  0  -0.303091  -0.546945  0  2.348939  0
O  O379  1  0.56954620  0.13484270  0.84746460  1  -1.17935  0  -0.303068  -0.546937  0  2.348893  0
O  O380  1  0.37513140  0.75441427  0.21269632  1  -1.17848  0  -0.332076  -0.598738  0  2.441251  0
O  O381  1  0.12486404  0.33756452  0.37928145  1  -1.182239  0  -0.332062  -0.598703  0  2.441389  0
O  O382  1  0.45828122  0.74558582  0.12071574  1  -1.17992  0  -0.332066  -0.598721  0  2.441306  0
O  O383  1  0.04171884  0.16243767  0.28730225  1  -1.177043  0  -0.332003  -0.598678  0  2.441467  0
O  O384  1  0.62486703  0.24558464  0.78730410  1  -1.178544  0  -0.332041  -0.598678  0  2.441264  0
O  O385  1  0.87512929  0.66243299  0.62071570  1  -1.182338  0  -0.33206  -0.598694  0  2.44139  0
O  O386  1  0.54171949  0.25441432  0.87928254  1  -1.179955  0  -0.332076  -0.598761  0  2.44129  0
O  O387  1  0.95828187  0.83756530  0.71269815  1  -1.177033  0  -0.332055  -0.598734  0  2.441208  0
O  O388  1  0.29559512  0.70484452  0.25424350  1  -1.157208  0  -0.320778  -0.54067  0  2.091992  0
O  O389  1  0.20440392  0.45864889  0.40924999  1  -1.16873  0  -0.320714  -0.540603  0  2.092001  0
O  O390  1  0.54939699  0.79515268  0.09074566  1  -1.154506  0  -0.320834  -0.540763  0  2.091856  0
O  O391  1  0.95060310  0.04134995  0.24575551  1  -1.153993  0  -0.320803  -0.540712  0  2.091699  0
O  O392  1  0.70440956  0.29515782  0.74575973  1  -1.155614  0  -0.320822  -0.540739  0  2.091727  0
O  O393  1  0.79559167  0.54134657  0.59074729  1  -1.16876  0  -0.320863  -0.540791  0  2.091657  0
O  O394  1  0.45060484  0.20484290  0.90925172  1  -1.154858  0  -0.320846  -0.54076  0  2.091925  0
O  O395  1  0.04939762  0.95865018  0.75424007  1  -1.15411  0  -0.320848  -0.540775  0  2.091864  0
O  O396  1  0.75726177  0.57100458  0.44319844  1  -1.156987  0  -0.329588  -0.551543  0  2.338762  0
O  O397  1  0.74274155  0.18594375  0.81374443  1  -1.164794  0  -0.329568  -0.551435  0  2.338559  0
O  O398  1  0.87219978  0.92899900  0.68625551  1  -1.157414  0  -0.32961  -0.551455  0  2.338456  0
O  O399  1  0.62780369  0.31405846  0.05680126  1  -1.154597  0  -0.329638  -0.551527  0  2.338527  0
O  O400  1  0.24273781  0.42899541  0.55680082  1  -1.156968  0  -0.329591  -0.551558  0  2.338726  0
O  O401  1  0.25725802  0.81405672  0.18625721  1  -1.164759  0  -0.329629  -0.551472  0  2.338467  0
O  O402  1  0.12779979  0.07100194  0.31374626  1  -1.157411  0  -0.329599  -0.551529  0  2.338548  0
O  O403  1  0.37220270  0.68594668  0.94320054  1  -1.154558  0  -0.329632  -0.551541  0  2.338592  0
O  O404  1  0.75452652  0.66955401  0.50554070  1  -1.176502  0  -0.302961  -0.542334  0  2.34562  0
O  O405  1  0.74547381  0.25101292  0.91502924  1  -1.175253  0  -0.303001  -0.542266  0  2.345232  0
O  O406  1  0.83598255  0.83044465  0.58496925  1  -1.176881  0  -0.302993  -0.54224  0  2.345346  0
O  O407  1  0.66401708  0.24898738  0.99446292  1  -1.172239  0  -0.302974  -0.542255  0  2.345266  0
O  O408  1  0.24547361  0.33044584  0.49446094  1  -1.17647  0  -0.302955  -0.542339  0  2.345651  0
O  O409  1  0.25452234  0.74898239  0.08496997  1  -1.174771  0  -0.302988  -0.542232  0  2.345282  0
O  O410  1  0.16401930  0.16955847  0.41503199  1  -1.176916  0  -0.303016  -0.542344  0  2.345167  0
O  O411  1  0.33598702  0.75101464  0.00553916  1  -1.172247  0  -0.302954  -0.542205  0  2.345336  0
