# generated using pymatgen
data_ZnH23C32N5O6
_symmetry_space_group_name_H-M   'P 1'
_cell_length_a   16.54748202
_cell_length_b   16.54750672
_cell_length_c   25.59390186
_cell_angle_alpha   89.99992466
_cell_angle_beta   90.00007844
_cell_angle_gamma   119.99989510
_symmetry_Int_Tables_number   1
_chemical_formula_structural   ZnH23C32N5O6
_chemical_formula_sum   'Zn6 H138 C192 N30 O36'
_cell_volume   6069.20874881
_cell_formula_units_Z   6
loop_
 _symmetry_equiv_pos_site_id
 _symmetry_equiv_pos_as_xyz
  1  'x, y, z'
loop_
 _atom_site_type_symbol
 _atom_site_label
 _atom_site_symmetry_multiplicity
 _atom_site_fract_x
 _atom_site_fract_y
 _atom_site_fract_z
 _atom_site_occupancy
 _atom_site_pbe_bader_charge
 _atom_site_pbe_bader_spin_density
 _atom_site_pbe_cm5_charge
 _atom_site_pbe_ddec_charge
 _atom_site_pbe_ddec_spin_density
 _atom_site_pbe_ddec_sum_bond_order
 _atom_site_pbe_magmom
Zn  Zn0  1  0.28592960  0.57188066  0.00001512  1  1.24659  0  0.686671  0.744346  0  2.376582  0
Zn  Zn1  1  0.42811973  0.71404856  0.33334843  1  1.246589  0  0.686706  0.744431  0  2.376543  0
Zn  Zn2  1  0.28595220  0.71407134  0.66668207  1  1.24454  0  0.686661  0.74436  0  2.376561  0
Zn  Zn3  1  0.71407111  0.42811976  0.00001498  1  1.246534  0  0.68669  0.744399  0  2.376556  0
Zn  Zn4  1  0.57187981  0.28595187  0.33334790  1  1.246583  0  0.686706  0.74447  0  2.376463  0
Zn  Zn5  1  0.71404999  0.28593011  0.66668244  1  1.244665  0  0.686674  0.744381  0  2.376524  0
H  H6  1  0.32922820  0.67388713  0.16658485  1  0.098077  0  0.105373  0.1195  0  1.008066  0
H  H7  1  0.32611507  0.65534148  0.49991778  1  0.096101  0  0.105362  0.119488  0  1.00807  0
H  H8  1  0.34466167  0.67076979  0.83325265  1  0.095185  0  0.1054  0.11952  0  1.008066  0
H  H9  1  0.67077241  0.32611342  0.16658398  1  0.098032  0  0.105373  0.119513  0  1.00808  0
H  H10  1  0.67388844  0.34466106  0.49991885  1  0.096134  0  0.105394  0.119538  0  1.008095  0
H  H11  1  0.65533835  0.32922904  0.83325294  1  0.095196  0  0.105399  0.119534  0  1.008109  0
H  H12  1  0.17345486  0.77769097  0.08373180  1  0.055429  0  0.100323  0.109577  0  1.017674  0
H  H13  1  0.22230726  0.39576456  0.41706217  1  0.059068  0  0.100317  0.109577  0  1.017642  0
H  H14  1  0.60423821  0.82654626  0.75040211  1  0.05718  0  0.100372  0.109616  0  1.017754  0
H  H15  1  0.82654391  0.22230657  0.08373155  1  0.055382  0  0.100313  0.109557  0  1.017702  0
H  H16  1  0.77769241  0.60423575  0.41706116  1  0.059026  0  0.100316  0.109542  0  1.017606  0
H  H17  1  0.39576204  0.17345233  0.75040151  1  0.057178  0  0.100384  0.109648  0  1.017709  0
H  H18  1  0.78298070  0.17871596  0.25030091  1  0.087394  0  0.100416  0.110294  0  1.016495  0
H  H19  1  0.39573460  0.21701615  0.91697203  1  0.088433  0  0.100469  0.110415  0  1.016394  0
H  H20  1  0.82129224  0.60427034  0.58363015  1  0.088435  0  0.100464  0.110299  0  1.016579  0
H  H21  1  0.21701857  0.82128232  0.25030117  1  0.087386  0  0.100424  0.110298  0  1.016509  0
H  H22  1  0.60426554  0.78298257  0.91697227  1  0.088549  0  0.10047  0.110412  0  1.016403  0
H  H23  1  0.17871060  0.39573409  0.58363112  1  0.088433  0  0.10044  0.110283  0  1.016553  0
H  H24  1  0.36843455  0.46863700  0.94134529  1  0.100761  0  0.114631  0.083186  0  1.003835  0
H  H25  1  0.53135992  0.89979776  0.27467857  1  0.095373  0  0.114628  0.083169  0  1.003856  0
H  H26  1  0.10020118  0.63156087  0.60801336  1  0.099492  0  0.114636  0.083135  0  1.003923  0
H  H27  1  0.63156181  0.53136066  0.94134421  1  0.100725  0  0.11462  0.083211  0  1.003794  0
H  H28  1  0.46863885  0.10020344  0.27467849  1  0.095319  0  0.114618  0.083145  0  1.003855  0
H  H29  1  0.89979886  0.36843790  0.60801383  1  0.099514  0  0.114627  0.083167  0  1.003919  0
H  H30  1  0.46854561  0.36856729  0.39207704  1  0.101358  0  0.115332  0.083766  0  1.003129  0
H  H31  1  0.90002038  0.53145505  0.05874542  1  0.095622  0  0.115309  0.083743  0  1.003138  0
H  H32  1  0.63143791  0.09998006  0.72541210  1  0.100673  0  0.115309  0.083728  0  1.00313  0
H  H33  1  0.53145402  0.63143306  0.39207735  1  0.101744  0  0.11531  0.083706  0  1.00314  0
H  H34  1  0.09997895  0.46854313  0.05874587  1  0.095292  0  0.11532  0.083738  0  1.003016  0
H  H35  1  0.36856818  0.90002234  0.72541086  1  0.100709  0  0.115322  0.083773  0  1.003119  0
H  H36  1  0.42569327  0.35911208  0.96449619  1  0.108391  0  0.107153  0.124331  0  1.033903  0
H  H37  1  0.64088554  0.06658205  0.29782902  1  0.13446  0  0.107141  0.124313  0  1.033915  0
H  H38  1  0.93341792  0.57430220  0.63116458  1  0.104969  0  0.107135  0.124332  0  1.033995  0
H  H39  1  0.57430373  0.64088615  0.96449575  1  0.108664  0  0.107138  0.12429  0  1.033954  0
H  H40  1  0.35911516  0.93341964  0.29782930  1  0.134493  0  0.107148  0.124328  0  1.033894  0
H  H41  1  0.06658241  0.42569749  0.63116504  1  0.104531  0  0.107132  0.124357  0  1.033976  0
H  H42  1  0.35911384  0.42571545  0.36886636  1  0.108465  0  0.107509  0.124672  0  1.032898  0
H  H43  1  0.06660066  0.64088695  0.03553478  1  0.133376  0  0.107564  0.124712  0  1.03281  0
H  H44  1  0.57428641  0.93339879  0.70220228  1  0.10375  0  0.107526  0.124657  0  1.03285  0
H  H45  1  0.64088550  0.57428398  0.36886721  1  0.108601  0  0.107519  0.124714  0  1.032843  0
H  H46  1  0.93339829  0.35911161  0.03553490  1  0.13337  0  0.107549  0.124706  0  1.032814  0
H  H47  1  0.42571679  0.06660287  0.70220103  1  0.103782  0  0.107521  0.124664  0  1.032835  0
H  H48  1  0.36190273  0.38342824  0.12565024  1  0.155721  0  0.114201  0.145563  0  1.061395  0
H  H49  1  0.61657334  0.97847237  0.45898419  1  0.153993  0  0.114184  0.145523  0  1.061382  0
H  H50  1  0.02152793  0.63809631  0.79231738  1  0.176817  0  0.114177  0.145479  0  1.061485  0
H  H51  1  0.63809791  0.61657106  0.12565027  1  0.155726  0  0.114194  0.145532  0  1.061442  0
H  H52  1  0.38342935  0.02152736  0.45898332  1  0.154015  0  0.114198  0.145537  0  1.061452  0
H  H53  1  0.97847505  0.36190559  0.79231793  1  0.176785  0  0.114233  0.145599  0  1.061508  0
H  H54  1  0.38346429  0.36190060  0.20772215  1  0.155796  0  0.113852  0.145229  0  1.061933  0
H  H55  1  0.97843621  0.61653446  0.87438971  1  0.152619  0  0.113853  0.14524  0  1.061892  0
H  H56  1  0.63809309  0.02156199  0.54105650  1  0.176818  0  0.113863  0.145258  0  1.061891  0
H  H57  1  0.61653810  0.63810302  0.20772292  1  0.155521  0  0.113842  0.145252  0  1.061944  0
H  H58  1  0.02156394  0.38346787  0.87438938  1  0.152608  0  0.113865  0.145256  0  1.061841  0
H  H59  1  0.36190632  0.97843982  0.54105597  1  0.176832  0  0.113849  0.145255  0  1.061958  0
H  H60  1  0.31171017  0.49330080  0.09650925  1  0.137536  0  0.120662  0.098145  0  0.998801  0
H  H61  1  0.50670117  0.81840688  0.42984211  1  0.134941  0  0.12065  0.098099  0  0.9988  0
H  H62  1  0.18159304  0.68828764  0.76317690  1  0.131944  0  0.120649  0.098165  0  0.998803  0
H  H63  1  0.68828983  0.50669793  0.09650902  1  0.137321  0  0.120635  0.098094  0  0.998834  0
H  H64  1  0.49330017  0.18159298  0.42984238  1  0.134932  0  0.120656  0.098161  0  0.998816  0
H  H65  1  0.81840990  0.31171430  0.76317773  1  0.13196  0  0.120655  0.098125  0  0.998815  0
H  H66  1  0.49355257  0.31196417  0.23692098  1  0.136142  0  0.120173  0.097751  0  0.999379  0
H  H67  1  0.81840999  0.50644642  0.90358805  1  0.137467  0  0.120165  0.09774  0  0.999357  0
H  H68  1  0.68803455  0.18158776  0.57025482  1  0.132444  0  0.120181  0.097784  0  0.999401  0
H  H69  1  0.50644684  0.68803639  0.23692082  1  0.136723  0  0.120156  0.097738  0  0.999369  0
H  H70  1  0.18158959  0.49355526  0.90358855  1  0.138116  0  0.120189  0.097785  0  0.99938  0
H  H71  1  0.31196620  0.81841391  0.57025399  1  0.132626  0  0.120173  0.097763  0  0.999421  0
H  H72  1  0.52446590  0.21612406  0.03583172  1  0.1149  0  0.104229  0.111032  0  1.061547  0
H  H73  1  0.78387482  0.30833909  0.36916237  1  0.130282  0  0.104264  0.111091  0  1.061542  0
H  H74  1  0.69166100  0.47553296  0.70249870  1  0.123296  0  0.104261  0.111078  0  1.061507  0
H  H75  1  0.47553452  0.78387666  0.03583185  1  0.114376  0  0.104224  0.111014  0  1.061588  0
H  H76  1  0.21612488  0.69165998  0.36916313  1  0.130173  0  0.104257  0.11109  0  1.061558  0
H  H77  1  0.30834324  0.52446766  0.70249929  1  0.12321  0  0.104272  0.11114  0  1.061476  0
H  H78  1  0.21634342  0.52479920  0.29730898  1  0.120693  0  0.103279  0.109994  0  1.064111  0
H  H79  1  0.30845493  0.78365487  0.96397748  1  0.124683  0  0.103301  0.110016  0  1.064091  0
H  H80  1  0.47520142  0.69154349  0.63064389  1  0.118973  0  0.103293  0.10999  0  1.064091  0
H  H81  1  0.78365548  0.47520067  0.29731003  1  0.121442  0  0.1033  0.11002  0  1.064134  0
H  H82  1  0.69154588  0.21634438  0.96397828  1  0.124673  0  0.103282  0.110009  0  1.064134  0
H  H83  1  0.52479951  0.30845681  0.63064486  1  0.119369  0  0.103279  0.109986  0  1.064087  0
H  H84  1  0.56132733  0.09015708  0.04372977  1  0.044445  0  0.101816  0.102181  0  1.015065  0
H  H85  1  0.90984158  0.47116962  0.37705955  1  0.07071  0  0.101836  0.102197  0  1.015047  0
H  H86  1  0.52883153  0.43866949  0.71039466  1  0.086326  0  0.101846  0.102197  0  1.015042  0
H  H87  1  0.43867284  0.90984268  0.04372936  1  0.04445  0  0.10183  0.102163  0  1.015056  0
H  H88  1  0.09015838  0.52883040  0.37705956  1  0.070686  0  0.101835  0.102188  0  1.015041  0
H  H89  1  0.47117196  0.56132826  0.71039458  1  0.083426  0  0.101854  0.102182  0  1.015007  0
H  H90  1  0.09025113  0.56152076  0.28944453  1  0.03902  0  0.101189  0.101342  0  1.016154  0
H  H91  1  0.47126912  0.90974806  0.95611234  1  0.070185  0  0.101173  0.101294  0  1.016186  0
H  H92  1  0.43847880  0.52872945  0.62277566  1  0.087817  0  0.101158  0.101198  0  1.01622  0
H  H93  1  0.90974724  0.43847722  0.28944534  1  0.038969  0  0.101172  0.101248  0  1.016185  0
H  H94  1  0.52873054  0.09025355  0.95611272  1  0.070157  0  0.101179  0.101307  0  1.016132  0
H  H95  1  0.56152107  0.47127190  0.62277496  1  0.087306  0  0.101148  0.101223  0  1.01622  0
H  H96  1  0.41736137  0.00617340  0.19098044  1  0.040925  0  0.097798  0.098372  0  1.015421  0
H  H97  1  0.99382840  0.41118541  0.52431032  1  0.07632  0  0.097811  0.098383  0  1.015316  0
H  H98  1  0.58881159  0.58263770  0.85764572  1  0.05514  0  0.097816  0.098425  0  1.015363  0
H  H99  1  0.58263876  0.99382521  0.19098127  1  0.040645  0  0.097806  0.098369  0  1.015446  0
H  H100  1  0.00616936  0.58881200  0.52430980  1  0.076174  0  0.097814  0.098405  0  1.01536  0
H  H101  1  0.41118925  0.41735910  0.85764571  1  0.055501  0  0.097798  0.098404  0  1.015374  0
H  H102  1  0.00581276  0.41673816  0.14246345  1  0.041375  0  0.098541  0.099637  0  1.012813  0
H  H103  1  0.41092329  0.99418549  0.80913117  1  0.071243  0  0.098525  0.099589  0  1.012861  0
H  H104  1  0.58326145  0.58907856  0.47579499  1  0.057898  0  0.098511  0.099547  0  1.01285  0
H  H105  1  0.99418480  0.58325940  0.14246343  1  0.041415  0  0.098539  0.099644  0  1.012824  0
H  H106  1  0.58907269  0.00581494  0.80913050  1  0.072161  0  0.098524  0.099626  0  1.012839  0
H  H107  1  0.41673786  0.41092334  0.47579460  1  0.057827  0  0.098534  0.099581  0  1.012861  0
H  H108  1  0.38004243  0.13535963  0.18353055  1  0.096472  0  0.103498  0.101459  0  1.015385  0
H  H109  1  0.86463973  0.24468150  0.51686207  1  0.094282  0  0.103487  0.101458  0  1.015351  0
H  H110  1  0.75531709  0.61995749  0.85019674  1  0.080548  0  0.103481  0.101404  0  1.015405  0
H  H111  1  0.61995709  0.86463838  0.18353191  1  0.096375  0  0.103489  0.101461  0  1.015349  0
H  H112  1  0.13535731  0.75531662  0.51686192  1  0.094664  0  0.103505  0.101473  0  1.015382  0
H  H113  1  0.24468416  0.38004252  0.85019700  1  0.080148  0  0.103482  0.101402  0  1.015358  0
H  H114  1  0.13468790  0.37927273  0.14991491  1  0.098597  0  0.104444  0.102504  0  1.013501  0
H  H115  1  0.24458242  0.86531229  0.81658332  1  0.098141  0  0.104446  0.102486  0  1.013531  0
H  H116  1  0.62072814  0.75541743  0.48324983  1  0.075879  0  0.104434  0.102472  0  1.013556  0
H  H117  1  0.86531027  0.62072543  0.14991513  1  0.098631  0  0.104439  0.102497  0  1.013426  0
H  H118  1  0.75541531  0.13468639  0.81658347  1  0.098206  0  0.104431  0.102487  0  1.013431  0
H  H119  1  0.37926988  0.24458454  0.48325034  1  0.075926  0  0.104463  0.102507  0  1.013535  0
H  H120  1  0.46154891  0.28583220  0.02944264  1  0.52269  0  0.3096  0.289572  0  1.002308  0
H  H121  1  0.71416928  0.17571351  0.36277455  1  0.52219  0  0.309628  0.289573  0  1.002457  0
H  H122  1  0.82428447  0.53845068  0.69611049  1  0.525229  0  0.309618  0.289615  0  1.00231  0
H  H123  1  0.53845331  0.71417034  0.02944289  1  0.522848  0  0.309635  0.289617  0  1.002239  0
H  H124  1  0.28583041  0.82428558  0.36277486  1  0.520979  0  0.309637  0.2896  0  1.00243  0
H  H125  1  0.17571751  0.46154979  0.69611023  1  0.524649  0  0.309633  0.289624  0  1.002269  0
H  H126  1  0.28537424  0.46110231  0.30392272  1  0.523286  0  0.309262  0.289509  0  1.001941  0
H  H127  1  0.17572647  0.71462612  0.97059152  1  0.523402  0  0.309271  0.289495  0  1.002016  0
H  H128  1  0.53889723  0.82427217  0.63725794  1  0.522008  0  0.30925  0.289481  0  1.001974  0
H  H129  1  0.71462492  0.53889851  0.30392366  1  0.523793  0  0.309256  0.289512  0  1.001955  0
H  H130  1  0.82427391  0.28537478  0.97059121  1  0.523396  0  0.309269  0.289474  0  1.002059  0
H  H131  1  0.46110241  0.17572821  0.63725623  1  0.521993  0  0.30928  0.289493  0  1.002021  0
H  H132  1  0.14251100  0.89074844  0.19836373  1  0.436839  0  0.308797  0.301225  0  0.94281  0
H  H133  1  0.10925953  0.25176961  0.53169456  1  0.442314  0  0.308818  0.301232  0  0.942784  0
H  H134  1  0.74824226  0.85748944  0.86503337  1  0.432953  0  0.30872  0.301084  0  0.943083  0
H  H135  1  0.85748819  0.10924991  0.19836360  1  0.437439  0  0.308788  0.301193  0  0.94285  0
H  H136  1  0.89074117  0.74823211  0.53169353  1  0.442787  0  0.308835  0.301277  0  0.942777  0
H  H137  1  0.25175902  0.14251055  0.86503306  1  0.432982  0  0.30871  0.301076  0  0.94307  0
H  H138  1  0.87400198  0.12604987  0.13306172  1  0.434966  0  0.309264  0.302443  0  0.940926  0
H  H139  1  0.25204571  0.12599546  0.79973158  1  0.450389  0  0.30931  0.302469  0  0.940923  0
H  H140  1  0.87394462  0.74794934  0.46639437  1  0.431799  0  0.309306  0.302501  0  0.940811  0
H  H141  1  0.12599712  0.87394856  0.13306185  1  0.43498  0  0.309294  0.302497  0  0.940852  0
H  H142  1  0.74795391  0.87400375  0.79973187  1  0.450531  0  0.309241  0.302374  0  0.941093  0
H  H143  1  0.12605659  0.25205308  0.46639620  1  0.432278  0  0.309305  0.302428  0  0.941  0
C  C144  1  0.25967082  0.68085737  0.06970159  1  1.550805  0  0.204692  0.568768  0  4.206323  0
C  C145  1  0.31913932  0.57881236  0.40303340  1  1.570329  0  0.204698  0.568765  0  4.206144  0
C  C146  1  0.42118868  0.74032992  0.73637099  1  1.542336  0  0.20465  0.568689  0  4.206482  0
C  C147  1  0.74032809  0.31914245  0.06970156  1  1.550883  0  0.204677  0.568758  0  4.206375  0
C  C148  1  0.68085972  0.42118737  0.40303363  1  1.570491  0  0.204727  0.568814  0  4.206129  0
C  C149  1  0.57881110  0.25967033  0.73637126  1  1.542263  0  0.204662  0.568754  0  4.206388  0
C  C150  1  0.68023160  0.25894177  0.26360166  1  1.547701  0  0.204963  0.568472  0  4.204563  0
C  C151  1  0.57871318  0.31976871  0.93026938  1  1.567219  0  0.204964  0.568391  0  4.204711  0
C  C152  1  0.74106451  0.42129504  0.59693610  1  1.537902  0  0.20481  0.568227  0  4.205055  0
C  C153  1  0.31976769  0.74105649  0.26360207  1  1.547616  0  0.204949  0.568465  0  4.204419  0
C  C154  1  0.42128940  0.68023240  0.93027072  1  1.567235  0  0.204978  0.568243  0  4.204836  0
C  C155  1  0.25893991  0.57871023  0.59693581  1  1.537959  0  0.204944  0.568355  0  4.204776  0
C  C156  1  0.25084039  0.72094196  0.12048007  1  0.001309  0  -0.02197  -0.022773  0  4.021625  0
C  C157  1  0.27906039  0.52989913  0.45381230  1  -0.003792  0  -0.022014  -0.022755  0  4.021612  0
C  C158  1  0.47010343  0.74916165  0.78714911  1  0.041959  0  -0.021929  -0.022697  0  4.021584  0
C  C159  1  0.74915929  0.27905709  0.12047970  1  0.00132  0  -0.02193  -0.022743  0  4.021609  0
C  C160  1  0.72094149  0.47010261  0.45381213  1  -0.003601  0  -0.022033  -0.022803  0  4.021674  0
C  C161  1  0.52989678  0.25083819  0.78714935  1  0.041785  0  -0.021951  -0.022754  0  4.021587  0
C  C162  1  0.72149900  0.25127947  0.21299783  1  -0.004989  0  -0.022816  -0.024087  0  4.023962  0
C  C163  1  0.52977981  0.27849882  0.87966669  1  -0.098072  0  -0.022853  -0.024019  0  4.023659  0
C  C164  1  0.74872431  0.47022129  0.54633066  1  -0.017555  0  -0.022784  -0.024066  0  4.023945  0
C  C165  1  0.27849961  0.74871825  0.21299820  1  -0.004822  0  -0.022842  -0.024164  0  4.024023  0
C  C166  1  0.47022002  0.72149899  0.87966687  1  -0.098189  0  -0.022838  -0.023918  0  4.023589  0
C  C167  1  0.25127882  0.52978283  0.54633042  1  -0.01988  0  -0.022803  -0.024133  0  4.024051  0
C  C168  1  0.29026548  0.71076242  0.16666296  1  0.034803  0  -0.089648  -0.130882  0  3.940773  0
C  C169  1  0.28923720  0.57950282  0.49999555  1  0.066963  0  -0.089648  -0.130896  0  3.940853  0
C  C170  1  0.42049957  0.70973464  0.83333081  1  0.069417  0  -0.089727  -0.131008  0  3.940713  0
C  C171  1  0.70973202  0.28923641  0.16666255  1  0.034855  0  -0.089667  -0.13095  0  3.940763  0
C  C172  1  0.71076554  0.42049685  0.49999619  1  0.064735  0  -0.089683  -0.130984  0  3.94082  0
C  C173  1  0.57950261  0.29026565  0.83333145  1  0.06958  0  -0.089706  -0.131  0  3.940719  0
C  C174  1  0.20128425  0.76907297  0.12065624  1  -0.078196  0  -0.098559  -0.2161  0  3.930706  0
C  C175  1  0.23092734  0.43221464  0.45398775  1  -0.065762  0  -0.098607  -0.216268  0  3.930836  0
C  C176  1  0.56779254  0.79871643  0.78732496  1  -0.146131  0  -0.098615  -0.216205  0  3.930776  0
C  C177  1  0.79871423  0.23092487  0.12065556  1  -0.076692  0  -0.098596  -0.216117  0  3.930741  0
C  C178  1  0.76907299  0.56778623  0.45398754  1  -0.065617  0  -0.098566  -0.216116  0  3.930871  0
C  C179  1  0.43220802  0.20128306  0.78732515  1  -0.144409  0  -0.09863  -0.216241  0  3.93075  0
C  C180  1  0.77306090  0.20518561  0.21322449  1  -0.099316  0  -0.098281  -0.215917  0  3.93128  0
C  C181  1  0.43212154  0.22693587  0.87989446  1  0.00537  0  -0.098291  -0.216127  0  3.931123  0
C  C182  1  0.79481357  0.56787796  0.54655531  1  -0.122591  0  -0.098297  -0.215901  0  3.931322  0
C  C183  1  0.22693796  0.79481307  0.21322438  1  -0.09939  0  -0.09829  -0.215922  0  3.93133  0
C  C184  1  0.56787889  0.77306254  0.87989429  1  0.005399  0  -0.09834  -0.216172  0  3.931143  0
C  C185  1  0.20518766  0.43212565  0.54655549  1  -0.122535  0  -0.098284  -0.215922  0  3.931314  0
C  C186  1  0.18774198  0.80600115  0.16705946  1  0.435295  0  0.089982  0.299358  0  4.133291  0
C  C187  1  0.19400538  0.38174468  0.50039256  1  0.443497  0  0.090061  0.299566  0  4.133054  0
C  C188  1  0.61826182  0.81225680  0.83373017  1  0.425237  0  0.089967  0.299428  0  4.133257  0
C  C189  1  0.81225717  0.19399724  0.16705921  1  0.43383  0  0.090015  0.299389  0  4.133266  0
C  C190  1  0.80599552  0.61825804  0.50039117  1  0.443331  0  0.089975  0.299374  0  4.133309  0
C  C191  1  0.38173976  0.18774289  0.83372994  1  0.423501  0  0.089982  0.299504  0  4.13316  0
C  C192  1  0.36854920  0.44782079  0.98181041  1  0.457642  0  0.035868  0.091748  0  3.996956  0
C  C193  1  0.55217812  0.92072963  0.31514289  1  0.462882  0  0.035806  0.091651  0  3.996906  0
C  C194  1  0.07926937  0.63144539  0.64847768  1  0.465673  0  0.035869  0.091792  0  3.996932  0
C  C195  1  0.63144912  0.55217733  0.98180970  1  0.457982  0  0.035861  0.091689  0  3.996965  0
C  C196  1  0.44782106  0.07927117  0.31514281  1  0.462901  0  0.03586  0.091732  0  3.996951  0
C  C197  1  0.92073012  0.36855272  0.64847816  1  0.465533  0  0.035866  0.091725  0  3.99697  0
C  C198  1  0.44789554  0.36873087  0.35158379  1  0.458317  0  0.036112  0.092429  0  3.995404  0
C  C199  1  0.92083442  0.55210583  0.01825140  1  0.461508  0  0.036133  0.092448  0  3.995585  0
C  C200  1  0.63127195  0.07916526  0.68491848  1  0.461277  0  0.036131  0.092461  0  3.995456  0
C  C201  1  0.55210387  0.63126728  0.35158412  1  0.458096  0  0.036149  0.092575  0  3.99542  0
C  C202  1  0.07916356  0.44789250  0.01825068  1  0.461866  0  0.03615  0.0925  0  3.995467  0
C  C203  1  0.36873157  0.92083608  0.68491761  1  0.461419  0  0.036084  0.092345  0  3.995271  0
C  C204  1  0.39987544  0.38692651  0.99466664  1  -0.045909  0  -0.096304  -0.241448  0  3.950756  0
C  C205  1  0.61307078  0.01294900  0.32799910  1  -0.063873  0  -0.096278  -0.241327  0  3.950713  0
C  C206  1  0.98705111  0.60011781  0.66133506  1  -0.05057  0  -0.096224  -0.241377  0  3.950751  0
C  C207  1  0.60012255  0.61307194  0.99466663  1  -0.046698  0  -0.096263  -0.241368  0  3.950755  0
C  C208  1  0.38692936  0.98705204  0.32799976  1  -0.063594  0  -0.096253  -0.241312  0  3.950652  0
C  C209  1  0.01294961  0.39988150  0.66133511  1  -0.049835  0  -0.096249  -0.241411  0  3.950774  0
C  C210  1  0.38696854  0.39999650  0.33867130  1  -0.047067  0  -0.095386  -0.239768  0  3.947528  0
C  C211  1  0.01302484  0.61303180  0.00533969  1  -0.064184  0  -0.095472  -0.239849  0  3.947644  0
C  C212  1  0.60000391  0.98697288  0.67200680  1  -0.044579  0  -0.095396  -0.239747  0  3.947548  0
C  C213  1  0.61303007  0.60000367  0.33867171  1  -0.047202  0  -0.095417  -0.239895  0  3.947634  0
C  C214  1  0.98697363  0.38696845  0.00533905  1  -0.064435  0  -0.095484  -0.239885  0  3.947705  0
C  C215  1  0.39999699  0.01302866  0.67200595  1  -0.044521  0  -0.095371  -0.239661  0  3.947332  0
C  C216  1  0.39871102  0.36137633  0.04744257  1  0.358528  0  0.124461  0.304726  0  3.992428  0
C  C217  1  0.63862264  0.03733333  0.38077574  1  0.370148  0  0.124473  0.30469  0  3.992427  0
C  C218  1  0.96266653  0.60128558  0.71411130  1  0.360772  0  0.124455  0.304795  0  3.99227  0
C  C219  1  0.60128796  0.63862222  0.04744255  1  0.358642  0  0.124444  0.304725  0  3.992439  0
C  C220  1  0.36137828  0.96266695  0.38077600  1  0.370087  0  0.124469  0.304749  0  3.992468  0
C  C221  1  0.03733573  0.39871582  0.71411136  1  0.360677  0  0.124433  0.304755  0  3.992245  0
C  C222  1  0.36137963  0.39878498  0.28589466  1  0.359828  0  0.124748  0.304867  0  3.99257  0
C  C223  1  0.03740399  0.63862032  0.95256298  1  0.37369  0  0.124813  0.304995  0  3.992505  0
C  C224  1  0.60121307  0.96259412  0.61922939  1  0.358967  0  0.124767  0.304907  0  3.992525  0
C  C225  1  0.63862081  0.60121577  0.28589469  1  0.359199  0  0.12475  0.304887  0  3.992513  0
C  C226  1  0.96259515  0.36137939  0.95256195  1  0.373578  0  0.124825  0.305019  0  3.992378  0
C  C227  1  0.39878714  0.03740688  0.61922853  1  0.358845  0  0.124792  0.304846  0  3.992423  0
C  C228  1  0.36626412  0.40096014  0.08467524  1  0.079079  0  -0.090003  -0.224565  0  3.912614  0
C  C229  1  0.59904256  0.96530367  0.41800841  1  0.076388  0  -0.089996  -0.224511  0  3.912436  0
C  C230  1  0.03469826  0.63373700  0.75134239  1  0.059884  0  -0.090003  -0.224488  0  3.912664  0
C  C231  1  0.63373612  0.59903956  0.08467528  1  0.078807  0  -0.089992  -0.224511  0  3.912532  0
C  C232  1  0.40095972  0.03469646  0.41800833  1  0.076285  0  -0.090011  -0.224548  0  3.912577  0
C  C233  1  0.96530467  0.36626495  0.75134253  1  0.059911  0  -0.09006  -0.224636  0  3.912659  0
C  C234  1  0.40103922  0.36632173  0.24869481  1  0.079041  0  -0.091063  -0.226169  0  3.914191  0
C  C235  1  0.96528085  0.59895773  0.91536353  1  0.077421  0  -0.091145  -0.22627  0  3.914284  0
C  C236  1  0.63367421  0.03471810  0.58202954  1  0.061775  0  -0.091151  -0.226274  0  3.914349  0
C  C237  1  0.59896193  0.63368192  0.24869635  1  0.079651  0  -0.091095  -0.226165  0  3.91432  0
C  C238  1  0.03472005  0.40104385  0.91536360  1  0.077336  0  -0.091135  -0.226252  0  3.914378  0
C  C239  1  0.36632491  0.96528400  0.58202863  1  0.06185  0  -0.091151  -0.226312  0  3.914273  0
C  C240  1  0.33674684  0.46159856  0.06820487  1  0.42602  0  0.045698  0.110174  0  3.94335  0
C  C241  1  0.53840322  0.87514705  0.40153849  1  0.428631  0  0.045714  0.110265  0  3.943223  0
C  C242  1  0.12485382  0.66325142  0.73487248  1  0.432931  0  0.045643  0.10999  0  3.943497  0
C  C243  1  0.66325251  0.53839961  0.06820420  1  0.426268  0  0.045691  0.110154  0  3.943303  0
C  C244  1  0.46159964  0.12485370  0.40153799  1  0.428689  0  0.045685  0.110129  0  3.943335  0
C  C245  1  0.87514813  0.33675030  0.73487335  1  0.433386  0  0.045647  0.110095  0  3.943344  0
C  C246  1  0.46175266  0.33692550  0.26520503  1  0.422837  0  0.044697  0.108812  0  3.945636  0
C  C247  1  0.87517264  0.53824693  0.93187253  1  0.424365  0  0.044711  0.108821  0  3.9456  0
C  C248  1  0.66307473  0.12482663  0.59853930  1  0.431235  0  0.044675  0.108751  0  3.94574  0
C  C249  1  0.53824955  0.66307708  0.26520571  1  0.422194  0  0.044693  0.108751  0  3.945759  0
C  C250  1  0.12482622  0.46175186  0.93187223  1  0.423713  0  0.04463  0.108721  0  3.945763  0
C  C251  1  0.33692546  0.87517440  0.59853845  1  0.430904  0  0.044688  0.108839  0  3.94568  0
C  C252  1  0.41601760  0.25289978  0.10678802  1  1.366808  0  0.245414  0.481308  0  4.089298  0
C  C253  1  0.74709547  0.16311793  0.44011956  1  1.364123  0  0.245346  0.481329  0  4.08912  0
C  C254  1  0.83688325  0.58397899  0.77345585  1  1.369874  0  0.245427  0.481238  0  4.089185  0
C  C255  1  0.58397920  0.74709852  0.10678710  1  1.366799  0  0.245493  0.481388  0  4.089044  0
C  C256  1  0.25290328  0.83688210  0.44012139  1  1.363662  0  0.245436  0.48134  0  4.089098  0
C  C257  1  0.16312014  0.41602128  0.77345601  1  1.36977  0  0.245456  0.481331  0  4.089115  0
C  C258  1  0.25320204  0.41643038  0.22640426  1  1.357986  0  0.245808  0.482329  0  4.087482  0
C  C259  1  0.16322540  0.74679895  0.89307265  1  1.361363  0  0.245775  0.482282  0  4.087855  0
C  C260  1  0.58356904  0.83677151  0.55973871  1  1.367403  0  0.245763  0.482188  0  4.087667  0
C  C261  1  0.74679459  0.58356812  0.22640323  1  1.358734  0  0.245836  0.482419  0  4.087531  0
C  C262  1  0.83677245  0.25319963  0.89307277  1  1.361272  0  0.245811  0.482376  0  4.087912  0
C  C263  1  0.41642754  0.16322951  0.55974009  1  1.368424  0  0.24567  0.482128  0  4.087753  0
C  C264  1  0.44740177  0.18263743  0.10915503  1  -0.046256  0  -0.018962  -0.039406  0  3.992166  0
C  C265  1  0.81735940  0.26476370  0.44248691  1  -0.03054  0  -0.019035  -0.039445  0  3.99213  0
C  C266  1  0.73523741  0.55259573  0.77582240  1  -0.024877  0  -0.018995  -0.039259  0  3.99196  0
C  C267  1  0.55259729  0.81736103  0.10915598  1  -0.046585  0  -0.018997  -0.039321  0  3.992042  0
C  C268  1  0.18263901  0.73523668  0.44248720  1  -0.030366  0  -0.018942  -0.03932  0  3.991992  0
C  C269  1  0.26476599  0.44740454  0.77582263  1  -0.024891  0  -0.019037  -0.039417  0  3.992169  0
C  C270  1  0.18275244  0.44754221  0.22404779  1  -0.008006  0  -0.018786  -0.040394  0  3.992028  0
C  C271  1  0.26478643  0.81724803  0.89071585  1  -0.045007  0  -0.018709  -0.04045  0  3.992095  0
C  C272  1  0.55245820  0.73521121  0.55738114  1  -0.019045  0  -0.018697  -0.040309  0  3.992181  0
C  C273  1  0.81724548  0.55245620  0.22404764  1  -0.009096  0  -0.018753  -0.040383  0  3.992097  0
C  C274  1  0.73521107  0.18275091  0.89071633  1  -0.043061  0  -0.018742  -0.040445  0  3.992316  0
C  C275  1  0.44753967  0.26478972  0.55738091  1  -0.02447  0  -0.01869  -0.040324  0  3.992062  0
C  C276  1  0.49938840  0.17052394  0.06986796  1  -0.055668  0  -0.086612  -0.096589  0  3.97116  0
C  C277  1  0.82947479  0.32886387  0.40319823  1  -0.004331  0  -0.086609  -0.096562  0  3.971158  0
C  C278  1  0.67113703  0.50061224  0.73653413  1  -0.076243  0  -0.086647  -0.096696  0  3.971279  0
C  C279  1  0.50061182  0.82947578  0.06986768  1  -0.055082  0  -0.086584  -0.0966  0  3.97113  0
C  C280  1  0.17052426  0.67113586  0.40319896  1  -0.004356  0  -0.086664  -0.096671  0  3.971243  0
C  C281  1  0.32886552  0.49939008  0.73653437  1  -0.076366  0  -0.086629  -0.096722  0  3.971138  0
C  C282  1  0.17064158  0.49957678  0.26332509  1  -0.064669  0  -0.088077  -0.098961  0  3.975825  0
C  C283  1  0.32893439  0.82935810  0.92999359  1  -0.01627  0  -0.0881  -0.098879  0  3.975801  0
C  C284  1  0.50042284  0.67106605  0.59665808  1  -0.075458  0  -0.088103  -0.098949  0  3.975875  0
C  C285  1  0.82935701  0.50042218  0.26332577  1  -0.064544  0  -0.088062  -0.098955  0  3.975886  0
C  C286  1  0.67106507  0.17064130  0.92999442  1  -0.016122  0  -0.088123  -0.098988  0  3.97608  0
C  C287  1  0.49957830  0.32893524  0.59665784  1  -0.070768  0  -0.08809  -0.098955  0  3.975865  0
C  C288  1  0.52041627  0.09937389  0.07409440  1  -0.040851  0  -0.088738  -0.127326  0  3.968682  0
C  C289  1  0.90062520  0.42104062  0.40742423  1  -0.081827  0  -0.088757  -0.127473  0  3.968878  0
C  C290  1  0.57896161  0.47958630  0.74075815  1  -0.062665  0  -0.088735  -0.127376  0  3.968937  0
C  C291  1  0.47958671  0.90062789  0.07409404  1  -0.040868  0  -0.088762  -0.127348  0  3.968722  0
C  C292  1  0.09937350  0.57895946  0.40742380  1  -0.081853  0  -0.088741  -0.127413  0  3.968865  0
C  C293  1  0.42104164  0.52041532  0.74075923  1  -0.059834  0  -0.088769  -0.127326  0  3.968774  0
C  C294  1  0.09944508  0.52052755  0.25911819  1  -0.037848  0  -0.089563  -0.128542  0  3.972449  0
C  C295  1  0.42107891  0.90055288  0.92578635  1  -0.078963  0  -0.089616  -0.128587  0  3.972635  0
C  C296  1  0.47947256  0.57892034  0.59244969  1  -0.064842  0  -0.089582  -0.128422  0  3.972557  0
C  C297  1  0.90055125  0.47947125  0.25911856  1  -0.037244  0  -0.089571  -0.128401  0  3.972531  0
C  C298  1  0.57891985  0.09944722  0.92578676  1  -0.079475  0  -0.089607  -0.128522  0  3.97264  0
C  C299  1  0.52052893  0.42108061  0.59244938  1  -0.064215  0  -0.089562  -0.128454  0  3.972654  0
C  C300  1  0.49087638  0.03923152  0.11735628  1  -0.033201  0  0.000768  0.082285  0  3.997051  0
C  C301  1  0.96076853  0.45164205  0.45068494  1  0.015594  0  0.000838  0.082491  0  3.997125  0
C  C302  1  0.54835776  0.50912526  0.78401921  1  0.050891  0  0.000771  0.082383  0  3.997129  0
C  C303  1  0.50912460  0.96076745  0.11735590  1  0.012708  0  0.000706  0.08228  0  3.996988  0
C  C304  1  0.03923042  0.54835537  0.45068527  1  -0.013139  0  0.000756  0.082423  0  3.997131  0
C  C305  1  0.45164349  0.49087354  0.78401956  1  0.004175  0  0.000779  0.082378  0  3.997066  0
C  C306  1  0.03924219  0.49089095  0.21587975  1  0.014037  0  0.000853  0.082252  0  3.996867  0
C  C307  1  0.45164869  0.96075798  0.88254791  1  -0.034292  0  0.000864  0.082213  0  3.996802  0
C  C308  1  0.50910913  0.54835200  0.54921129  1  -0.009739  0  0.000794  0.082083  0  3.996765  0
C  C309  1  0.96075617  0.50910582  0.21588054  1  -0.031142  0  0.000871  0.082176  0  3.996828  0
C  C310  1  0.54834835  0.03924262  0.88254835  1  -0.062331  0  0.000929  0.08223  0  3.996802  0
C  C311  1  0.49089350  0.45165022  0.54921093  1  -0.056281  0  0.000835  0.082129  0  3.996829  0
C  C312  1  0.44195277  0.05372208  0.15764359  1  -0.039187  0  -0.091718  -0.136528  0  3.986502  0
C  C313  1  0.94627921  0.38822853  0.49097307  1  -0.091833  0  -0.091756  -0.136658  0  3.986369  0
C  C314  1  0.61176982  0.55804787  0.82430811  1  -0.13961  0  -0.091745  -0.136655  0  3.986524  0
C  C315  1  0.55804827  0.94627683  0.15764404  1  -0.038879  0  -0.091663  -0.136492  0  3.986468  0
C  C316  1  0.05371910  0.61176953  0.49097297  1  -0.091692  0  -0.091766  -0.136686  0  3.986529  0
C  C317  1  0.38823063  0.44194931  0.82430767  1  -0.140052  0  -0.091733  -0.13663  0  3.986467  0
C  C318  1  0.05362092  0.44177600  0.17567293  1  -0.035265  0  -0.089969  -0.132952  0  3.978884  0
C  C319  1  0.38815336  0.94637812  0.84234105  1  -0.033085  0  -0.089978  -0.132857  0  3.978745  0
C  C320  1  0.55822590  0.61184784  0.50900483  1  -0.079074  0  -0.089854  -0.132673  0  3.978604  0
C  C321  1  0.94637703  0.55822117  0.17567328  1  -0.036144  0  -0.089983  -0.132952  0  3.978856  0
C  C322  1  0.61184292  0.05362323  0.84234036  1  -0.033981  0  -0.089959  -0.132881  0  3.978682  0
C  C323  1  0.44177502  0.38815487  0.50900448  1  -0.079043  0  -0.089902  -0.132757  0  3.97876  0
C  C324  1  0.42028666  0.12455070  0.15340582  1  0.00389  0  -0.083585  -0.091028  0  3.990686  0
C  C325  1  0.87544795  0.29573384  0.48673691  1  -0.056071  0  -0.083564  -0.090981  0  3.990489  0
C  C326  1  0.70426406  0.57971223  0.82007159  1  0.041248  0  -0.083594  -0.091026  0  3.990688  0
C  C327  1  0.57971376  0.87544761  0.15340635  1  0.004278  0  -0.08358  -0.091053  0  3.990618  0
C  C328  1  0.12455000  0.70426457  0.48673679  1  -0.056407  0  -0.083598  -0.091027  0  3.990679  0
C  C329  1  0.29573689  0.42028687  0.82007108  1  0.042088  0  -0.083542  -0.09094  0  3.990733  0
C  C330  1  0.12444382  0.42010621  0.17989312  1  -0.030262  0  -0.08101  -0.085616  0  3.983251  0
C  C331  1  0.29566137  0.87555740  0.84656196  1  -0.027671  0  -0.080995  -0.085578  0  3.983367  0
C  C332  1  0.57989420  0.70434034  0.51322729  1  0.047321  0  -0.081024  -0.085635  0  3.983327  0
C  C333  1  0.87555534  0.57989216  0.17989417  1  -0.029852  0  -0.081032  -0.085656  0  3.983351  0
C  C334  1  0.70433657  0.12444350  0.84656247  1  -0.029694  0  -0.080953  -0.085564  0  3.983256  0
C  C335  1  0.42010447  0.29566220  0.51322739  1  0.047307  0  -0.081032  -0.085626  0  3.983304  0
N  N336  1  0.33700762  0.48523256  0.01771315  1  -1.249352  0  -0.346246  -0.258989  0  3.600384  0
N  N337  1  0.51476695  0.85177325  0.35104677  1  -1.259488  0  -0.346182  -0.258982  0  3.600242  0
N  N338  1  0.14822582  0.66298865  0.68438039  1  -1.249588  0  -0.346185  -0.258901  0  3.600337  0
N  N339  1  0.66299070  0.51476542  0.01771250  1  -1.249416  0  -0.346206  -0.258956  0  3.600409  0
N  N340  1  0.48523333  0.14822645  0.35104628  1  -1.259534  0  -0.346234  -0.259012  0  3.600385  0
N  N341  1  0.85177484  0.33701193  0.68438123  1  -1.250077  0  -0.346174  -0.2589  0  3.600266  0
N  N342  1  0.48540990  0.33723323  0.31570731  1  -1.24685  0  -0.345903  -0.259474  0  3.600818  0
N  N343  1  0.85182167  0.51459026  0.98237519  1  -1.257873  0  -0.345869  -0.25945  0  3.600791  0
N  N344  1  0.66277005  0.14817764  0.64904156  1  -1.251574  0  -0.345854  -0.259422  0  3.600671  0
N  N345  1  0.51458928  0.66276757  0.31570796  1  -1.246849  0  -0.34587  -0.259449  0  3.600671  0
N  N346  1  0.14817882  0.48540932  0.98237606  1  -1.257891  0  -0.345851  -0.259449  0  3.600703  0
N  N347  1  0.33723273  0.85182445  0.64904111  1  -1.251815  0  -0.345843  -0.259433  0  3.600643  0
N  N348  1  0.42883803  0.29907907  0.05961856  1  -1.273174  0  -0.391276  -0.375574  0  3.523965  0
N  N349  1  0.70091961  0.12975677  0.39295089  1  -1.280479  0  -0.391274  -0.375648  0  3.523934  0
N  N350  1  0.87024352  0.57115963  0.72628721  1  -1.281458  0  -0.391323  -0.375663  0  3.524033  0
N  N351  1  0.57116226  0.70091936  0.05961884  1  -1.273279  0  -0.391302  -0.375626  0  3.52396  0
N  N352  1  0.29908132  0.87024349  0.39295118  1  -1.27919  0  -0.391313  -0.375732  0  3.523939  0
N  N353  1  0.12975946  0.42884106  0.72628695  1  -1.280788  0  -0.391294  -0.375637  0  3.523939  0
N  N354  1  0.29900933  0.42877687  0.27371046  1  -1.272196  0  -0.390999  -0.375901  0  3.522209  0
N  N355  1  0.12976652  0.70099160  0.94037923  1  -1.282213  0  -0.390958  -0.37584  0  3.522341  0
N  N356  1  0.57122203  0.87023218  0.60704527  1  -1.275222  0  -0.390932  -0.375761  0  3.522304  0
N  N357  1  0.70099083  0.57122293  0.27371136  1  -1.272755  0  -0.39104  -0.376001  0  3.522277  0
N  N358  1  0.87023105  0.29900727  0.94037895  1  -1.282125  0  -0.390943  -0.375816  0  3.522281  0
N  N359  1  0.42877686  0.12976894  0.60704474  1  -1.275233  0  -0.390931  -0.375695  0  3.522335  0
N  N360  1  0.13365405  0.84855367  0.16759548  1  -1.233241  0  -0.598223  -0.627216  0  3.302003  0
N  N361  1  0.15146352  0.28510444  0.50092865  1  -1.246962  0  -0.598326  -0.627243  0  3.301932  0
N  N362  1  0.71490152  0.86634186  0.83426469  1  -1.252168  0  -0.598084  -0.626954  0  3.302477  0
N  N363  1  0.86634509  0.15144472  0.16759532  1  -1.233839  0  -0.598189  -0.62713  0  3.302127  0
N  N364  1  0.84853669  0.71489898  0.50092760  1  -1.247053  0  -0.598291  -0.627284  0  3.301797  0
N  N365  1  0.28509850  0.13365697  0.83426442  1  -1.252029  0  -0.598178  -0.627095  0  3.302262  0
O  O366  1  0.29361312  0.62547997  0.07082806  1  -1.164106  0  -0.325957  -0.540343  0  2.310096  0
O  O367  1  0.37451380  0.66813384  0.40415944  1  -1.173537  0  -0.325967  -0.540403  0  2.310041  0
O  O368  1  0.33186861  0.70638673  0.73749506  1  -1.165172  0  -0.32594  -0.540352  0  2.31011  0
O  O369  1  0.70638493  0.37451829  0.07082679  1  -1.16413  0  -0.325948  -0.540367  0  2.310133  0
O  O370  1  0.62548516  0.33186719  0.40416008  1  -1.173836  0  -0.325949  -0.540365  0  2.31003  0
O  O371  1  0.66813178  0.29361412  0.73749499  1  -1.1652  0  -0.325948  -0.540363  0  2.310036  0
O  O372  1  0.62444131  0.29238538  0.26234351  1  -1.163792  0  -0.325471  -0.539915  0  2.30982  0
O  O373  1  0.66794445  0.37556224  0.92900933  1  -1.172398  0  -0.325424  -0.53982  0  2.309788  0
O  O374  1  0.70762464  0.33206042  0.59567801  1  -1.16295  0  -0.325343  -0.53977  0  2.309814  0
O  O375  1  0.37555823  0.70761384  0.26234322  1  -1.163804  0  -0.325454  -0.539854  0  2.30973  0
O  O376  1  0.33205632  0.62443706  0.92900946  1  -1.172334  0  -0.325445  -0.539829  0  2.309782  0
O  O377  1  0.29237987  0.66794355  0.59567729  1  -1.163058  0  -0.325432  -0.539858  0  2.309841  0
O  O378  1  0.23281685  0.70077489  0.02801390  1  -1.214739  0  -0.322284  -0.579727  0  2.258352  0
O  O379  1  0.29922111  0.53204389  0.36134536  1  -1.217779  0  -0.32227  -0.579658  0  2.258327  0
O  O380  1  0.46796060  0.76718356  0.69468138  1  -1.216336  0  -0.322263  -0.579679  0  2.258373  0
O  O381  1  0.76718331  0.29922489  0.02801353  1  -1.214792  0  -0.32231  -0.579744  0  2.258344  0
O  O382  1  0.70077823  0.46795554  0.36134556  1  -1.217745  0  -0.322312  -0.579742  0  2.258344  0
O  O383  1  0.53203843  0.23281744  0.69468163  1  -1.216296  0  -0.322267  -0.579724  0  2.258363  0
O  O384  1  0.69997566  0.23206439  0.30535381  1  -1.214025  0  -0.323098  -0.580136  0  2.25825  0
O  O385  1  0.53209171  0.30002129  0.97202032  1  -1.217031  0  -0.323153  -0.580148  0  2.258366  0
O  O386  1  0.76793958  0.46791736  0.63868627  1  -1.215433  0  -0.323041  -0.579991  0  2.258482  0
O  O387  1  0.30002273  0.76793357  0.30535418  1  -1.214055  0  -0.323109  -0.580156  0  2.258178  0
O  O388  1  0.46790893  0.69998056  0.97202169  1  -1.217175  0  -0.323117  -0.580006  0  2.258419  0
O  O389  1  0.23206403  0.53208630  0.63868561  1  -1.215331  0  -0.323103  -0.580029  0  2.258301  0
O  O390  1  0.37758872  0.26561477  0.14480681  1  -1.132283  0  -0.276308  -0.458772  0  2.161929  0
O  O391  1  0.73437716  0.11197537  0.47814113  1  -1.127815  0  -0.276284  -0.458786  0  2.161783  0
O  O392  1  0.88802939  0.62240883  0.81147585  1  -1.135342  0  -0.27631  -0.458763  0  2.161789  0
O  O393  1  0.62240747  0.73437932  0.14480829  1  -1.132247  0  -0.276383  -0.458885  0  2.161705  0
O  O394  1  0.26562330  0.88802417  0.47814215  1  -1.127408  0  -0.276337  -0.458781  0  2.161813  0
O  O395  1  0.11197397  0.37759269  0.81147561  1  -1.135299  0  -0.276329  -0.458794  0  2.161759  0
O  O396  1  0.26662656  0.37871106  0.18829989  1  -1.127632  0  -0.275273  -0.458095  0  2.164889  0
O  O397  1  0.11208387  0.73337486  0.85496902  1  -1.127613  0  -0.275302  -0.45808  0  2.165048  0
O  O398  1  0.62128933  0.88791768  0.52163431  1  -1.135857  0  -0.275289  -0.458076  0  2.164784  0
O  O399  1  0.73336864  0.62128403  0.18830117  1  -1.128189  0  -0.275244  -0.458075  0  2.164952  0
O  O400  1  0.88791462  0.26662308  0.85496957  1  -1.127582  0  -0.27535  -0.458171  0  2.165091  0
O  O401  1  0.37870433  0.11208262  0.52163493  1  -1.136546  0  -0.275283  -0.458078  0  2.164796  0
