# generated using pymatgen
data_Zn4H12C24O13
_symmetry_space_group_name_H-M   'P 1'
_cell_length_a   25.73997773
_cell_length_b   25.74002659
_cell_length_c   25.73998167
_cell_angle_alpha   89.99996375
_cell_angle_beta   89.99981935
_cell_angle_gamma   89.99993634
_symmetry_Int_Tables_number   1
_chemical_formula_structural   Zn4H12C24O13
_chemical_formula_sum   'Zn32 H96 C192 O104'
_cell_volume   17053.96594230
_cell_formula_units_Z   8
loop_
 _symmetry_equiv_pos_site_id
 _symmetry_equiv_pos_as_xyz
  1  'x, y, z'
loop_
 _atom_site_type_symbol
 _atom_site_label
 _atom_site_symmetry_multiplicity
 _atom_site_fract_x
 _atom_site_fract_y
 _atom_site_fract_z
 _atom_site_occupancy
 _atom_site_pbe_bader_charge
 _atom_site_pbe_bader_spin_density
 _atom_site_pbe_cm5_charge
 _atom_site_pbe_ddec_charge
 _atom_site_pbe_ddec_spin_density
 _atom_site_pbe_ddec_sum_bond_order
 _atom_site_pbe_magmom
Zn  Zn0  1  0.18673826  0.82811357  0.23206527  1  1.316234  0  0.673154  0.969422  0  2.342825  0
Zn  Zn1  1  0.31326009  0.17188597  0.73206563  1  1.316324  0  0.673141  0.969401  0  2.342708  0
Zn  Zn2  1  0.81326117  0.32810985  0.26793393  1  1.316268  0  0.673113  0.969336  0  2.342757  0
Zn  Zn3  1  0.68673949  0.67188602  0.76793554  1  1.316252  0  0.673104  0.969364  0  2.342831  0
Zn  Zn4  1  0.23206678  0.18673873  0.82811283  1  1.316294  0  0.673143  0.969387  0  2.342784  0
Zn  Zn5  1  0.73206584  0.31326223  0.17188504  1  1.316426  0  0.673177  0.969428  0  2.342731  0
Zn  Zn6  1  0.26793399  0.81326114  0.32811377  1  1.316256  0  0.673141  0.969401  0  2.342757  0
Zn  Zn7  1  0.76793551  0.68673564  0.67188522  1  1.316591  0  0.673132  0.969394  0  2.342702  0
Zn  Zn8  1  0.82811529  0.23206567  0.18674079  1  1.31631  0  0.673175  0.969425  0  2.342629  0
Zn  Zn9  1  0.17188853  0.73206587  0.31326079  1  1.31626  0  0.673132  0.969413  0  2.342772  0
Zn  Zn10  1  0.32811424  0.26793363  0.81326183  1  1.316281  0  0.673206  0.969501  0  2.342663  0
Zn  Zn11  1  0.67188796  0.76793412  0.68673812  1  1.316288  0  0.673123  0.969369  0  2.342843  0
Zn  Zn12  1  0.81326241  0.17188840  0.76793317  1  1.316282  0  0.673139  0.969363  0  2.342781  0
Zn  Zn13  1  0.68673825  0.82811290  0.26793436  1  1.316294  0  0.673181  0.969458  0  2.342617  0
Zn  Zn14  1  0.18673795  0.67188747  0.73206528  1  1.31626  0  0.67307  0.969305  0  2.342894  0
Zn  Zn15  1  0.31326157  0.32811441  0.23206639  1  1.316275  0  0.673147  0.969437  0  2.342764  0
Zn  Zn16  1  0.76793467  0.81326130  0.17188716  1  1.316283  0  0.673132  0.969372  0  2.34277  0
Zn  Zn17  1  0.26793444  0.68673742  0.82811339  1  1.316246  0  0.673124  0.969427  0  2.342857  0
Zn  Zn18  1  0.73206746  0.18673928  0.67188777  1  1.316268  0  0.673115  0.969361  0  2.342785  0
Zn  Zn19  1  0.23206361  0.31326052  0.32811321  1  1.316486  0  0.673139  0.969402  0  2.3427  0
Zn  Zn20  1  0.17188616  0.76793553  0.81326230  1  1.316425  0  0.67311  0.969383  0  2.342797  0
Zn  Zn21  1  0.82811137  0.26793300  0.68673764  1  1.316261  0  0.673136  0.969298  0  2.342914  0
Zn  Zn22  1  0.67188760  0.73206602  0.18673777  1  1.316262  0  0.673128  0.969356  0  2.342798  0
Zn  Zn23  1  0.32811233  0.23206397  0.31325993  1  1.316292  0  0.673109  0.969356  0  2.342833  0
Zn  Zn24  1  0.26568438  0.73431448  0.23431498  1  1.304841  0  0.668599  0.946191  0  2.458455  0
Zn  Zn25  1  0.23431475  0.26568312  0.73431398  1  1.30487  0  0.668568  0.946089  0  2.458599  0
Zn  Zn26  1  0.73431555  0.23431434  0.26568544  1  1.304848  0  0.66855  0.946052  0  2.458521  0
Zn  Zn27  1  0.76568434  0.76568463  0.76568558  1  1.304821  0  0.668609  0.946193  0  2.45846  0
Zn  Zn28  1  0.73431280  0.26568556  0.76568656  1  1.304854  0  0.668662  0.946282  0  2.458206  0
Zn  Zn29  1  0.76568398  0.73431575  0.26568484  1  1.304811  0  0.668472  0.945975  0  2.458753  0
Zn  Zn30  1  0.26568552  0.76568414  0.73431532  1  1.304838  0  0.668711  0.946496  0  2.458196  0
Zn  Zn31  1  0.23431517  0.23431463  0.23431674  1  1.304805  0  0.668492  0.945996  0  2.458757  0
H  H32  1  0.17490324  0.83825232  0.06433711  1  0.119945  0  0.109612  0.114599  0  0.98966  0
H  H33  1  0.16837423  0.81962074  0.96857864  1  0.104305  0  0.109258  0.113961  0  0.9918  0
H  H34  1  0.27208130  0.70403212  0.08349319  1  0.105958  0  0.109706  0.116002  0  0.994404  0
H  H35  1  0.26625975  0.68585897  0.98783651  1  0.106037  0  0.109858  0.115735  0  0.99175  0
H  H36  1  0.32509759  0.16174773  0.56433434  1  0.119944  0  0.10961  0.114651  0  0.989613  0
H  H37  1  0.33162765  0.18037866  0.46857512  1  0.104197  0  0.109218  0.113939  0  0.991721  0
H  H38  1  0.22791908  0.29596675  0.58349375  1  0.105907  0  0.109736  0.116053  0  0.99438  0
H  H39  1  0.23374052  0.31414042  0.48783749  1  0.106102  0  0.109828  0.115673  0  0.991732  0
H  H40  1  0.82509774  0.33825158  0.43566479  1  0.119945  0  0.109602  0.11462  0  0.989619  0
H  H41  1  0.83162830  0.31961909  0.53142282  1  0.104273  0  0.109242  0.113892  0  0.991808  0
H  H42  1  0.72792099  0.20403266  0.41650530  1  0.105968  0  0.109713  0.11603  0  0.994356  0
H  H43  1  0.73374254  0.18585782  0.51216154  1  0.106097  0  0.109841  0.115662  0  0.991741  0
H  H44  1  0.67490472  0.66174690  0.93566567  1  0.119965  0  0.109624  0.114594  0  0.989645  0
H  H45  1  0.66837505  0.68038003  0.03142455  1  0.104272  0  0.109245  0.113969  0  0.991738  0
H  H46  1  0.77208231  0.79596582  0.91650501  1  0.105868  0  0.1097  0.116014  0  0.994386  0
H  H47  1  0.76626049  0.81414092  0.01216210  1  0.106043  0  0.109854  0.115695  0  0.991714  0
H  H48  1  0.06433547  0.17490278  0.83825219  1  0.11993  0  0.109597  0.11459  0  0.989662  0
H  H49  1  0.96857754  0.16837315  0.81962138  1  0.104257  0  0.109252  0.113928  0  0.991797  0
H  H50  1  0.08349376  0.27207909  0.70403331  1  0.10599  0  0.109707  0.116016  0  0.994432  0
H  H51  1  0.98783801  0.26625848  0.68585976  1  0.10612  0  0.109831  0.115669  0  0.991772  0
H  H52  1  0.56433572  0.32509642  0.16174932  1  0.119978  0  0.109626  0.114613  0  0.98967  0
H  H53  1  0.46857647  0.33162677  0.18037924  1  0.104255  0  0.109245  0.113942  0  0.991752  0
H  H54  1  0.58349292  0.22792087  0.29596697  1  0.106009  0  0.109695  0.115997  0  0.994485  0
H  H55  1  0.48783585  0.23374142  0.31414118  1  0.106052  0  0.109866  0.115723  0  0.991748  0
H  H56  1  0.43566294  0.82509748  0.33825143  1  0.119953  0  0.109619  0.114638  0  0.989656  0
H  H57  1  0.53142102  0.83162578  0.31961840  1  0.104351  0  0.10926  0.113967  0  0.991798  0
H  H58  1  0.41650624  0.72792009  0.20403112  1  0.105954  0  0.109709  0.116034  0  0.994368  0
H  H59  1  0.51216330  0.73374171  0.18585923  1  0.106076  0  0.109888  0.115765  0  0.991757  0
H  H60  1  0.93566489  0.67490223  0.66174898  1  0.119979  0  0.109618  0.114602  0  0.989652  0
H  H61  1  0.03142360  0.66837204  0.68038095  1  0.104279  0  0.109229  0.113894  0  0.991807  0
H  H62  1  0.91650455  0.77208041  0.79596974  1  0.105902  0  0.109693  0.116029  0  0.994314  0
H  H63  1  0.01216147  0.76625768  0.81414251  1  0.106051  0  0.10991  0.115741  0  0.991751  0
H  H64  1  0.83825216  0.06433508  0.17489972  1  0.119894  0  0.109574  0.114598  0  0.989629  0
H  H65  1  0.81962073  0.96857580  0.16837071  1  0.104214  0  0.10923  0.113944  0  0.991727  0
H  H66  1  0.70403238  0.08349555  0.27207909  1  0.10598  0  0.109739  0.116075  0  0.994342  0
H  H67  1  0.68585821  0.98783884  0.26625870  1  0.10611  0  0.109843  0.115629  0  0.991767  0
H  H68  1  0.16174757  0.56433567  0.32509731  1  0.119948  0  0.109602  0.11461  0  0.989661  0
H  H69  1  0.18037933  0.46857740  0.33162801  1  0.10426  0  0.109262  0.113981  0  0.991698  0
H  H70  1  0.29596810  0.58349372  0.22791870  1  0.105961  0  0.109709  0.116023  0  0.994355  0
H  H71  1  0.31414143  0.48783685  0.23374155  1  0.106088  0  0.109819  0.115623  0  0.991751  0
H  H72  1  0.33824933  0.43566266  0.82509898  1  0.119967  0  0.109592  0.114568  0  0.989708  0
H  H73  1  0.31962066  0.53142286  0.83162735  1  0.104278  0  0.109236  0.113912  0  0.991764  0
H  H74  1  0.20403065  0.41650583  0.72792159  1  0.105963  0  0.109711  0.116043  0  0.994417  0
H  H75  1  0.18585886  0.51216386  0.73374133  1  0.10607  0  0.109848  0.115689  0  0.991721  0
H  H76  1  0.66174802  0.93566590  0.67490435  1  0.120002  0  0.109646  0.114651  0  0.989607  0
H  H77  1  0.68037947  0.03142440  0.66837430  1  0.104303  0  0.109231  0.113938  0  0.991707  0
H  H78  1  0.79596594  0.91650536  0.77208253  1  0.105873  0  0.10973  0.116032  0  0.994282  0
H  H79  1  0.81414013  0.01216169  0.76626072  1  0.106085  0  0.109789  0.11562  0  0.991651  0
H  H80  1  0.82509705  0.16174694  0.93566598  1  0.119954  0  0.109609  0.114623  0  0.989642  0
H  H81  1  0.83162722  0.18038046  0.03142329  1  0.104273  0  0.109239  0.113946  0  0.991779  0
H  H82  1  0.72791821  0.29596714  0.91650679  1  0.105899  0  0.109713  0.116009  0  0.994399  0
H  H83  1  0.73374248  0.31414029  0.01216348  1  0.106087  0  0.109821  0.115627  0  0.99175  0
H  H84  1  0.67490192  0.83825231  0.43566526  1  0.119924  0  0.109578  0.114583  0  0.989659  0
H  H85  1  0.66837225  0.81962021  0.53142409  1  0.104237  0  0.109244  0.113955  0  0.991756  0
H  H86  1  0.77208043  0.70403173  0.41650546  1  0.105945  0  0.109703  0.116041  0  0.994359  0
H  H87  1  0.76625822  0.68586001  0.51216211  1  0.106126  0  0.109832  0.115682  0  0.991795  0
H  H88  1  0.17490565  0.66174652  0.56433442  1  0.11997  0  0.109624  0.11459  0  0.989643  0
H  H89  1  0.16837510  0.68037940  0.46857678  1  0.104284  0  0.109254  0.113958  0  0.991772  0
H  H90  1  0.27208279  0.79596582  0.58349313  1  0.105886  0  0.109721  0.116027  0  0.994398  0
H  H91  1  0.26625969  0.81413988  0.48783689  1  0.106082  0  0.109829  0.115669  0  0.991708  0
H  H92  1  0.32509556  0.33825275  0.06433509  1  0.119952  0  0.109661  0.114674  0  0.989598  0
H  H93  1  0.33162484  0.31961961  0.96857699  1  0.104306  0  0.109231  0.113935  0  0.991785  0
H  H94  1  0.22791876  0.20403305  0.08349459  1  0.105957  0  0.109704  0.116025  0  0.994359  0
H  H95  1  0.23374058  0.18585951  0.98783788  1  0.106093  0  0.109842  0.115706  0  0.991754  0
H  H96  1  0.93566521  0.82509803  0.16174974  1  0.119972  0  0.109613  0.114596  0  0.989686  0
H  H97  1  0.03142352  0.83162688  0.18038210  1  0.104312  0  0.109258  0.113926  0  0.991769  0
H  H98  1  0.91650614  0.72792017  0.29596862  1  0.10594  0  0.109724  0.116045  0  0.994362  0
H  H99  1  0.01216228  0.73374195  0.31414139  1  0.106091  0  0.109827  0.115645  0  0.99178  0
H  H100  1  0.43566496  0.67490284  0.83825183  1  0.119946  0  0.10961  0.114627  0  0.989655  0
H  H101  1  0.53142420  0.66837288  0.81962036  1  0.104244  0  0.109227  0.113902  0  0.991821  0
H  H102  1  0.41650659  0.77207917  0.70403340  1  0.106007  0  0.109726  0.116051  0  0.994429  0
H  H103  1  0.51216366  0.76625900  0.68585919  1  0.106078  0  0.109856  0.115714  0  0.991697  0
H  H104  1  0.56433540  0.17490295  0.66174739  1  0.119949  0  0.109611  0.114621  0  0.989605  0
H  H105  1  0.46857655  0.16837270  0.68037926  1  0.104252  0  0.109232  0.113919  0  0.991756  0
H  H106  1  0.58349327  0.27208150  0.79596654  1  0.105894  0  0.109718  0.116017  0  0.994405  0
H  H107  1  0.48783582  0.26625833  0.81413959  1  0.106087  0  0.109803  0.115573  0  0.991799  0
H  H108  1  0.06433384  0.32509781  0.33825062  1  0.119984  0  0.109619  0.11464  0  0.989638  0
H  H109  1  0.96857552  0.33162917  0.31962020  1  0.104216  0  0.109222  0.113914  0  0.991756  0
H  H110  1  0.08349457  0.22791846  0.20403219  1  0.10595  0  0.109748  0.11607  0  0.994221  0
H  H111  1  0.98783804  0.23374080  0.18585786  1  0.106064  0  0.109867  0.115742  0  0.99177  0
H  H112  1  0.16174890  0.93566651  0.82509716  1  0.119997  0  0.109608  0.114577  0  0.989637  0
H  H113  1  0.18037995  0.03142462  0.83162773  1  0.104258  0  0.10925  0.113976  0  0.991703  0
H  H114  1  0.29596868  0.91650682  0.72791895  1  0.105959  0  0.109715  0.116025  0  0.99437  0
H  H115  1  0.31414246  0.01216275  0.73374012  1  0.106039  0  0.109887  0.115762  0  0.991663  0
H  H116  1  0.83825117  0.43566398  0.67490034  1  0.11993  0  0.109605  0.114632  0  0.989607  0
H  H117  1  0.81962018  0.53142225  0.66837392  1  0.104295  0  0.109274  0.113974  0  0.991794  0
H  H118  1  0.70403024  0.41650632  0.77207895  1  0.105938  0  0.109671  0.115974  0  0.994466  0
H  H119  1  0.68585924  0.51216357  0.76625999  1  0.106047  0  0.109885  0.115746  0  0.991777  0
H  H120  1  0.66174824  0.56433505  0.17490411  1  0.119989  0  0.109607  0.11459  0  0.989659  0
H  H121  1  0.68038040  0.46857601  0.16837380  1  0.1043  0  0.109246  0.113921  0  0.99178  0
H  H122  1  0.79596652  0.58349498  0.27208151  1  0.105959  0  0.109728  0.116052  0  0.994289  0
H  H123  1  0.81414143  0.48783812  0.26625905  1  0.106098  0  0.109869  0.115713  0  0.991748  0
H  H124  1  0.33824994  0.06433570  0.32509525  1  0.120017  0  0.109635  0.114625  0  0.989718  0
H  H125  1  0.31962198  0.96857681  0.33162530  1  0.104245  0  0.109255  0.113953  0  0.991745  0
H  H126  1  0.20403279  0.08349274  0.22791862  1  0.105881  0  0.109727  0.116012  0  0.994404  0
H  H127  1  0.18586055  0.98783563  0.23373927  1  0.106053  0  0.1098  0.115618  0  0.991809  0
C  C128  1  0.22795642  0.78122940  0.13652707  1  1.576879  0  0.226919  0.600512  0  4.169133  0
C  C129  1  0.22406724  0.77223876  0.07925937  1  -0.015199  0  -0.013191  -0.030852  0  3.963449  0
C  C130  1  0.19459017  0.80494776  0.04716925  1  -0.018547  0  -0.078962  -0.091464  0  3.964969  0
C  C131  1  0.19101486  0.79464600  0.99415711  1  -0.104516  0  -0.078705  -0.090179  0  3.964137  0
C  C132  1  0.24975069  0.72914983  0.05786772  1  -0.014802  0  -0.07951  -0.089598  0  3.970787  0
C  C133  1  0.24643182  0.71903059  0.00502037  1  -0.088417  0  -0.080045  -0.09104  0  3.975783  0
C  C134  1  0.21487323  0.74085275  0.91578679  1  1.570029  0  0.231596  0.610376  0  4.157386  0
C  C135  1  0.21706817  0.75173695  0.97284743  1  0.004176  0  -0.0117  -0.031072  0  3.965217  0
C  C136  1  0.27204340  0.21876982  0.63652832  1  1.576887  0  0.226989  0.600625  0  4.169119  0
C  C137  1  0.27593160  0.22776011  0.57925981  1  -0.01521  0  -0.013174  -0.030809  0  3.963554  0
C  C138  1  0.30541033  0.19505229  0.54716884  1  -0.018502  0  -0.07903  -0.091631  0  3.964899  0
C  C139  1  0.30898694  0.20535377  0.49415520  1  -0.104498  0  -0.078621  -0.090078  0  3.964019  0
C  C140  1  0.25024899  0.27084750  0.55786783  1  -0.014965  0  -0.079589  -0.089718  0  3.970862  0
C  C141  1  0.25356842  0.28096755  0.50502085  1  -0.088131  0  -0.079952  -0.090883  0  3.975597  0
C  C142  1  0.28512454  0.25915057  0.41578842  1  1.569964  0  0.23154  0.610118  0  4.157759  0
C  C143  1  0.28293254  0.24826206  0.47284713  1  0.004116  0  -0.011745  -0.031154  0  3.965277  0
C  C144  1  0.77204229  0.28123188  0.36347215  1  1.577004  0  0.226913  0.600473  0  4.169394  0
C  C145  1  0.77593148  0.27223964  0.42074025  1  -0.015219  0  -0.013237  -0.030957  0  3.963598  0
C  C146  1  0.80541085  0.30494665  0.45282996  1  -0.018562  0  -0.078974  -0.091518  0  3.964974  0
C  C147  1  0.80898770  0.29464516  0.50584243  1  -0.104281  0  -0.078653  -0.090017  0  3.963962  0
C  C148  1  0.75025118  0.22914994  0.44213154  1  -0.014669  0  -0.079558  -0.089629  0  3.970671  0
C  C149  1  0.75357085  0.21902989  0.49497812  1  -0.088571  0  -0.07997  -0.090876  0  3.975588  0
C  C150  1  0.78512628  0.24084956  0.58421317  1  1.57005  0  0.23151  0.610068  0  4.15753  0
C  C151  1  0.78293405  0.25173612  0.52715135  1  0.003982  0  -0.011735  -0.031153  0  3.964997  0
C  C152  1  0.72795769  0.71876781  0.86347166  1  1.576984  0  0.226928  0.600491  0  4.169352  0
C  C153  1  0.72406987  0.72776040  0.92073938  1  -0.014926  0  -0.013216  -0.030902  0  3.963497  0
C  C154  1  0.69459195  0.69505182  0.95282998  1  -0.01879  0  -0.078986  -0.091505  0  3.964884  0
C  C155  1  0.69101418  0.70535397  0.00584252  1  -0.104476  0  -0.078704  -0.090122  0  3.964013  0
C  C156  1  0.74975126  0.77084853  0.94213172  1  -0.01479  0  -0.079587  -0.089688  0  3.97086  0
C  C157  1  0.74643143  0.78096894  0.99497869  1  -0.088353  0  -0.079947  -0.09089  0  3.975687  0
C  C158  1  0.71487419  0.75915031  0.08421353  1  1.570056  0  0.231459  0.609979  0  4.157453  0
C  C159  1  0.71706737  0.74826261  0.02715211  1  0.004216  0  -0.011726  -0.031144  0  3.965248  0
C  C160  1  0.13652790  0.22795904  0.78123259  1  1.577005  0  0.226914  0.60044  0  4.169404  0
C  C161  1  0.07925980  0.22406902  0.77223967  1  -0.015277  0  -0.013218  -0.030985  0  3.963629  0
C  C162  1  0.04717038  0.19459043  0.80494838  1  -0.018538  0  -0.078979  -0.091482  0  3.964995  0
C  C163  1  0.99415801  0.19101337  0.79464696  1  -0.104307  0  -0.07864  -0.090006  0  3.963984  0
C  C164  1  0.05786823  0.24975006  0.72915148  1  -0.014699  0  -0.079575  -0.089619  0  3.970815  0
C  C165  1  0.00502204  0.24642997  0.71903073  1  -0.088577  0  -0.079983  -0.090902  0  3.975538  0
C  C166  1  0.91578661  0.21487394  0.74084906  1  1.570087  0  0.231439  0.609973  0  4.157325  0
C  C167  1  0.97284919  0.21706582  0.75173786  1  0.004058  0  -0.011706  -0.031156  0  3.964882  0
C  C168  1  0.63652842  0.27204320  0.21876830  1  1.576917  0  0.22689  0.600464  0  4.169273  0
C  C169  1  0.57925912  0.27593211  0.22776140  1  -0.015209  0  -0.013141  -0.030772  0  3.963429  0
C  C170  1  0.54716977  0.30540919  0.19505240  1  -0.018591  0  -0.07898  -0.091521  0  3.965022  0
C  C171  1  0.49415766  0.30898691  0.20535358  1  -0.104296  0  -0.078719  -0.090118  0  3.964059  0
C  C172  1  0.55786705  0.25025071  0.27084927  1  -0.014677  0  -0.079546  -0.089632  0  3.970968  0
C  C173  1  0.50502083  0.25357008  0.28096980  1  -0.088577  0  -0.080016  -0.090985  0  3.975666  0
C  C174  1  0.41578767  0.28512604  0.25914901  1  1.57003  0  0.231502  0.610076  0  4.157613  0
C  C175  1  0.47284835  0.28293332  0.24826197  1  0.003974  0  -0.011711  -0.031101  0  3.965057  0
C  C176  1  0.36347341  0.77204242  0.28122976  1  1.576897  0  0.226896  0.6005  0  4.169118  0
C  C177  1  0.42074193  0.77593322  0.27223821  1  -0.015165  0  -0.013183  -0.030838  0  3.963394  0
C  C178  1  0.45283124  0.80540985  0.30494797  1  -0.018563  0  -0.079027  -0.091583  0  3.965028  0
C  C179  1  0.50584296  0.80898519  0.29464484  1  -0.104535  0  -0.078695  -0.090155  0  3.964151  0
C  C180  1  0.44213247  0.75024949  0.22914919  1  -0.014702  0  -0.079486  -0.08959  0  3.970774  0
C  C181  1  0.49497869  0.75356920  0.21903022  1  -0.088628  0  -0.080079  -0.091067  0  3.975831  0
C  C182  1  0.58421298  0.78512660  0.24085137  1  1.570041  0  0.231551  0.610144  0  4.157363  0
C  C183  1  0.52715192  0.78293161  0.25173609  1  0.004155  0  -0.01174  -0.031119  0  3.965143  0
C  C184  1  0.86347435  0.72795775  0.71876815  1  1.57681  0  0.226867  0.600355  0  4.16962  0
C  C185  1  0.92074012  0.72406844  0.72776341  1  -0.01517  0  -0.01319  -0.030791  0  3.963443  0
C  C186  1  0.95283034  0.69458983  0.69505394  1  -0.018463  0  -0.078965  -0.091498  0  3.964814  0
C  C187  1  0.00584350  0.69101343  0.70535575  1  -0.10426  0  -0.078694  -0.090081  0  3.964123  0
C  C188  1  0.94213166  0.74974982  0.77085081  1  -0.014658  0  -0.079521  -0.089675  0  3.970654  0
C  C189  1  0.99497940  0.74642928  0.78097078  1  -0.088533  0  -0.080036  -0.090961  0  3.97563  0
C  C190  1  0.08421254  0.71487504  0.75915014  1  1.570077  0  0.23148  0.610078  0  4.157775  0
C  C191  1  0.02715346  0.71706583  0.74826328  1  0.00389  0  -0.011717  -0.031156  0  3.965271  0
C  C192  1  0.78123101  0.13652771  0.22795499  1  1.576345  0  0.22681  0.600287  0  4.169485  0
C  C193  1  0.77224036  0.07926127  0.22406807  1  -0.018176  0  -0.013204  -0.030745  0  3.963507  0
C  C194  1  0.80494675  0.04717038  0.19458782  1  -0.015603  0  -0.078941  -0.091541  0  3.964864  0
C  C195  1  0.79464513  0.99415659  0.19101217  1  -0.104233  0  -0.078671  -0.090113  0  3.964078  0
C  C196  1  0.72915211  0.05786853  0.24974882  1  -0.01484  0  -0.079557  -0.089749  0  3.9708  0
C  C197  1  0.71903170  0.00502127  0.24642989  1  -0.088271  0  -0.079992  -0.090854  0  3.975553  0
C  C198  1  0.74084867  0.91578840  0.21487476  1  1.569971  0  0.231587  0.610181  0  4.157776  0
C  C199  1  0.75173714  0.97284699  0.21706548  1  0.003923  0  -0.011729  -0.031151  0  3.965299  0
C  C200  1  0.21877097  0.63652672  0.27204277  1  1.576832  0  0.226876  0.600463  0  4.169387  0
C  C201  1  0.22776051  0.57926026  0.27593244  1  -0.015246  0  -0.013234  -0.030898  0  3.963613  0
C  C202  1  0.19505338  0.54716939  0.30541077  1  -0.018488  0  -0.079022  -0.091582  0  3.964896  0
C  C203  1  0.20535567  0.49415584  0.30898653  1  -0.104469  0  -0.078626  -0.090107  0  3.964013  0
C  C204  1  0.27084957  0.55786827  0.25025016  1  -0.014635  0  -0.07951  -0.089633  0  3.970805  0
C  C205  1  0.28096848  0.50502100  0.25356912  1  -0.088528  0  -0.07992  -0.090802  0  3.975667  0
C  C206  1  0.25914834  0.41578955  0.28512670  1  1.57016  0  0.231542  0.610188  0  4.157892  0
C  C207  1  0.24826291  0.47284660  0.28293206  1  0.004051  0  -0.011714  -0.03108  0  3.965476  0
C  C208  1  0.28123076  0.36347281  0.77204389  1  1.576838  0  0.226827  0.600341  0  4.169652  0
C  C209  1  0.27223887  0.42073965  0.77593278  1  -0.015301  0  -0.013187  -0.030809  0  3.963665  0
C  C210  1  0.30494552  0.45282972  0.80541098  1  -0.018518  0  -0.078951  -0.091474  0  3.964985  0
C  C211  1  0.29464400  0.50584327  0.80898674  1  -0.10446  0  -0.078666  -0.090044  0  3.964094  0
C  C212  1  0.22915106  0.44213088  0.75025100  1  -0.014639  0  -0.07962  -0.089772  0  3.97093  0
C  C213  1  0.21903136  0.49497893  0.75356919  1  -0.088497  0  -0.079924  -0.090826  0  3.975575  0
C  C214  1  0.24085179  0.58421308  0.78512548  1  1.569999  0  0.231464  0.609983  0  4.157724  0
C  C215  1  0.25173684  0.52715330  0.78293278  1  0.004111  0  -0.01174  -0.031189  0  3.965374  0
C  C216  1  0.71876900  0.86347361  0.72795832  1  1.576768  0  0.226893  0.600379  0  4.169595  0
C  C217  1  0.72775966  0.92073851  0.72407017  1  -0.015065  0  -0.013191  -0.030755  0  3.963633  0
C  C218  1  0.69505337  0.95282941  0.69459234  1  -0.018768  0  -0.078994  -0.091569  0  3.964897  0
C  C219  1  0.70535500  0.00584321  0.69101453  1  -0.104468  0  -0.078639  -0.090108  0  3.963938  0
C  C220  1  0.77084706  0.94213084  0.74975155  1  -0.015041  0  -0.079534  -0.089603  0  3.970618  0
C  C221  1  0.78096748  0.99497810  0.74643139  1  -0.088084  0  -0.079953  -0.090966  0  3.975519  0
C  C222  1  0.75914867  0.08420983  0.71487419  1  1.570146  0  0.231421  0.609966  0  4.158202  0
C  C223  1  0.74826329  0.02715201  0.71706731  1  0.004067  0  -0.011727  -0.03103  0  3.965415  0
C  C224  1  0.77204270  0.21877141  0.86347369  1  1.576881  0  0.226822  0.600415  0  4.169184  0
C  C225  1  0.77593344  0.22776089  0.92074179  1  -0.015204  0  -0.013139  -0.030723  0  3.963495  0
C  C226  1  0.80541012  0.19505189  0.95283229  1  -0.01851  0  -0.079033  -0.091619  0  3.964957  0
C  C227  1  0.80898620  0.20535598  0.00584521  1  -0.104512  0  -0.078656  -0.090082  0  3.964199  0
C  C228  1  0.75024998  0.27084904  0.94213266  1  -0.014724  0  -0.079547  -0.089653  0  3.970792  0
C  C229  1  0.75356847  0.28096828  0.99497923  1  -0.088431  0  -0.079918  -0.090759  0  3.975551  0
C  C230  1  0.78512550  0.25914962  0.08421125  1  1.570051  0  0.231545  0.610191  0  4.157534  0
C  C231  1  0.78293134  0.24826270  0.02715372  1  0.004051  0  -0.011765  -0.031274  0  3.965403  0
C  C232  1  0.72795533  0.78123255  0.36347361  1  1.576755  0  0.226884  0.60034  0  4.169377  0
C  C233  1  0.72406791  0.77223759  0.42074017  1  -0.015153  0  -0.013189  -0.03072  0  3.963478  0
C  C234  1  0.69458879  0.80494736  0.45282998  1  -0.018528  0  -0.078984  -0.09156  0  3.964914  0
C  C235  1  0.69101296  0.79464626  0.50584284  1  -0.1043  0  -0.078652  -0.090116  0  3.964096  0
C  C236  1  0.74974974  0.72915021  0.44213177  1  -0.014668  0  -0.079547  -0.089697  0  3.9708  0
C  C237  1  0.74642992  0.71903132  0.49497875  1  -0.08854  0  -0.079972  -0.090951  0  3.975652  0
C  C238  1  0.71487574  0.74085063  0.58421428  1  1.570073  0  0.231394  0.609968  0  4.15754  0
C  C239  1  0.71706581  0.75173875  0.52715247  1  0.003998  0  -0.01168  -0.031038  0  3.964968  0
C  C240  1  0.22795839  0.71876933  0.63652745  1  1.576964  0  0.226914  0.600395  0  4.16953  0
C  C241  1  0.22406881  0.72776040  0.57925974  1  -0.015249  0  -0.013156  -0.030698  0  3.963418  0
C  C242  1  0.19459177  0.69505184  0.54716964  1  -0.018555  0  -0.078981  -0.0915  0  3.964835  0
C  C243  1  0.19101531  0.70535410  0.49415678  1  -0.104484  0  -0.078722  -0.090186  0  3.964059  0
C  C244  1  0.24975182  0.77084815  0.55786806  1  -0.014761  0  -0.079623  -0.089768  0  3.970807  0
C  C245  1  0.24643177  0.78096820  0.50502148  1  -0.088406  0  -0.079934  -0.090872  0  3.9756  0
C  C246  1  0.21487401  0.75914970  0.41578760  1  1.570005  0  0.231519  0.610149  0  4.157556  0
C  C247  1  0.21706779  0.74826275  0.47284785  1  0.004153  0  -0.011715  -0.031114  0  3.965178  0
C  C248  1  0.27204260  0.28123145  0.13652833  1  1.576881  0  0.226928  0.600527  0  4.169289  0
C  C249  1  0.27593159  0.27223963  0.07926022  1  -0.015231  0  -0.013138  -0.0307  0  3.963503  0
C  C250  1  0.30540872  0.30494861  0.04716962  1  -0.018563  0  -0.078996  -0.091579  0  3.96495  0
C  C251  1  0.30898416  0.29464606  0.99415708  1  -0.104487  0  -0.078724  -0.090194  0  3.964142  0
C  C252  1  0.25024942  0.22915151  0.05786904  1  -0.014845  0  -0.079553  -0.089685  0  3.970864  0
C  C253  1  0.25356847  0.21903071  0.00502246  1  -0.088403  0  -0.080039  -0.091056  0  3.975722  0
C  C254  1  0.28512415  0.24085167  0.91578606  1  1.570067  0  0.231399  0.610029  0  4.157661  0
C  C255  1  0.28293175  0.25173704  0.97284826  1  0.004206  0  -0.011694  -0.03102  0  3.965153  0
C  C256  1  0.86347356  0.77204255  0.21876856  1  1.576954  0  0.226899  0.600358  0  4.169437  0
C  C257  1  0.92074010  0.77593218  0.22776187  1  -0.015276  0  -0.013193  -0.030752  0  3.963516  0
C  C258  1  0.95282952  0.80541078  0.19505394  1  -0.018568  0  -0.078978  -0.091611  0  3.964973  0
C  C259  1  0.00584189  0.80898705  0.20535536  1  -0.104295  0  -0.078708  -0.089982  0  3.963981  0
C  C260  1  0.94213128  0.75024998  0.27084968  1  -0.014705  0  -0.079542  -0.08966  0  3.970797  0
C  C261  1  0.99497747  0.75356968  0.28097003  1  -0.088577  0  -0.080027  -0.090937  0  3.975641  0
C  C262  1  0.08421251  0.78512610  0.25914899  1  1.570046  0  0.23149  0.610117  0  4.157676  0
C  C263  1  0.02715071  0.78293266  0.24826290  1  0.003982  0  -0.011688  -0.03118  0  3.96506  0
C  C264  1  0.36347187  0.72795762  0.78123091  1  1.57697  0  0.226938  0.600534  0  4.169374  0
C  C265  1  0.42073923  0.72406754  0.77223936  1  -0.018237  0  -0.013235  -0.030887  0  3.96364  0
C  C266  1  0.45282974  0.69459007  0.80494758  1  -0.015585  0  -0.079021  -0.091612  0  3.965015  0
C  C267  1  0.50584262  0.69101313  0.79464640  1  -0.104266  0  -0.078638  -0.090003  0  3.964177  0
C  C268  1  0.44213207  0.74975011  0.72915227  1  -0.0149  0  -0.079596  -0.089701  0  3.971021  0
C  C269  1  0.49497868  0.74643074  0.71903135  1  -0.088276  0  -0.079945  -0.090895  0  3.975597  0
C  C270  1  0.58421262  0.71487399  0.74085136  1  1.570007  0  0.231461  0.609968  0  4.157556  0
C  C271  1  0.52715233  0.71706710  0.75173802  1  0.003958  0  -0.011726  -0.031163  0  3.965233  0
C  C272  1  0.63652687  0.22795723  0.71877100  1  1.576866  0  0.226917  0.600565  0  4.169136  0
C  C273  1  0.57925952  0.22406682  0.72776138  1  -0.015237  0  -0.013145  -0.030813  0  3.963506  0
C  C274  1  0.54716904  0.19459057  0.69505202  1  -0.01851  0  -0.079015  -0.091593  0  3.9648  0
C  C275  1  0.49415577  0.19101368  0.70535475  1  -0.104488  0  -0.078636  -0.089988  0  3.964054  0
C  C276  1  0.55786743  0.24975094  0.77084846  1  -0.014937  0  -0.079613  -0.089706  0  3.970801  0
C  C277  1  0.50501966  0.24643123  0.78096744  1  -0.088335  0  -0.079946  -0.090754  0  3.975641  0
C  C278  1  0.41578886  0.21487537  0.75914822  1  1.570038  0  0.231496  0.610187  0  4.15763  0
C  C279  1  0.47284604  0.21706921  0.74826079  1  0.004249  0  -0.011705  -0.031234  0  3.965488  0
C  C280  1  0.13652672  0.27204462  0.28123222  1  1.576746  0  0.226911  0.600474  0  4.169292  0
C  C281  1  0.07926056  0.27593199  0.27223813  1  -0.015176  0  -0.013187  -0.030717  0  3.963498  0
C  C282  1  0.04716955  0.30541137  0.30494566  1  -0.018488  0  -0.079017  -0.091678  0  3.964858  0
C  C283  1  0.99415562  0.30898738  0.29464501  1  -0.104256  0  -0.07865  -0.090059  0  3.963993  0
C  C284  1  0.05786863  0.25024944  0.22915112  1  -0.014816  0  -0.079606  -0.08973  0  3.97066  0
C  C285  1  0.00502127  0.25356843  0.21903076  1  -0.088364  0  -0.079974  -0.091001  0  3.975585  0
C  C286  1  0.91578774  0.28512461  0.24085062  1  1.569957  0  0.231524  0.610058  0  4.157834  0
C  C287  1  0.97284683  0.28293382  0.25173710  1  0.003948  0  -0.011717  -0.031078  0  3.965142  0
C  C288  1  0.21876811  0.86347427  0.77204267  1  1.576792  0  0.226818  0.600279  0  4.1698  0
C  C289  1  0.22776148  0.92074032  0.77593036  1  -0.015198  0  -0.013162  -0.030709  0  3.963609  0
C  C290  1  0.19505354  0.95283043  0.80540906  1  -0.018524  0  -0.078987  -0.091487  0  3.964921  0
C  C291  1  0.20535477  0.00584306  0.80898626  1  -0.104249  0  -0.078707  -0.09024  0  3.964054  0
C  C292  1  0.27084896  0.94213228  0.75024884  1  -0.014848  0  -0.079567  -0.089675  0  3.970897  0
C  C293  1  0.28096975  0.99497876  0.75356854  1  -0.088383  0  -0.08003  -0.091034  0  3.975654  0
C  C294  1  0.25915007  0.08421009  0.78512600  1  1.570068  0  0.23157  0.610237  0  4.157845  0
C  C295  1  0.24826276  0.02715227  0.78293295  1  0.003889  0  -0.011687  -0.031051  0  3.965269  0
C  C296  1  0.78122893  0.36347215  0.72795605  1  1.576916  0  0.226823  0.600413  0  4.169136  0
C  C297  1  0.77223861  0.42074133  0.72406715  1  -0.015149  0  -0.013195  -0.030811  0  3.963404  0
C  C298  1  0.80494651  0.45283026  0.69458844  1  -0.018558  0  -0.078934  -0.091495  0  3.964901  0
C  C299  1  0.79464578  0.50584264  0.69101423  1  -0.104285  0  -0.07873  -0.090165  0  3.964115  0
C  C300  1  0.72914839  0.44213293  0.74974944  1  -0.01463  0  -0.079469  -0.089613  0  3.97084  0
C  C301  1  0.71903025  0.49497982  0.74643125  1  -0.088603  0  -0.08007  -0.091021  0  3.97588  0
C  C302  1  0.74085117  0.58421321  0.71487406  1  1.57004  0  0.231527  0.610144  0  4.157497  0
C  C303  1  0.75173660  0.52715227  0.71706715  1  0.00395  0  -0.011706  -0.031108  0  3.965186  0
C  C304  1  0.71876875  0.63652801  0.22795726  1  1.576815  0  0.226865  0.600403  0  4.16936  0
C  C305  1  0.72776142  0.57926233  0.22406876  1  -0.015194  0  -0.0132  -0.030767  0  3.963674  0
C  C306  1  0.69505438  0.54717148  0.19459056  1  -0.018598  0  -0.078971  -0.091557  0  3.964946  0
C  C307  1  0.70535474  0.49415793  0.19101402  1  -0.104253  0  -0.078682  -0.09004  0  3.964091  0
C  C308  1  0.77084884  0.55786916  0.24974976  1  -0.014723  0  -0.079609  -0.089757  0  3.970791  0
C  C309  1  0.78096854  0.50502150  0.24643080  1  -0.088505  0  -0.079962  -0.090899  0  3.975581  0
C  C310  1  0.75914616  0.41578735  0.21487684  1  1.57  0  0.231462  0.610051  0  4.157796  0
C  C311  1  0.74826189  0.47284829  0.21706720  1  0.00392  0  -0.011722  -0.031138  0  3.965304  0
C  C312  1  0.28123167  0.13652681  0.27204128  1  1.576842  0  0.226875  0.600385  0  4.16943  0
C  C313  1  0.27223868  0.07925997  0.27593137  1  -0.015278  0  -0.0132  -0.030828  0  3.963528  0
C  C314  1  0.30494653  0.04716985  0.30540959  1  -0.018574  0  -0.078974  -0.091538  0  3.964966  0
C  C315  1  0.29464607  0.99415722  0.30898584  1  -0.104474  0  -0.078728  -0.090082  0  3.96409  0
C  C316  1  0.22915168  0.05786803  0.25024883  1  -0.014768  0  -0.079578  -0.089614  0  3.970963  0
C  C317  1  0.21903164  0.00502155  0.25356666  1  -0.088407  0  -0.080025  -0.090972  0  3.975815  0
C  C318  1  0.24085162  0.91578671  0.28512424  1  1.570056  0  0.231436  0.610043  0  4.157641  0
C  C319  1  0.25173855  0.97284842  0.28293073  1  0.004219  0  -0.011601  -0.031094  0  3.965238  0
O  O320  1  0.20008572  0.81690420  0.15683753  1  -1.167399  0  -0.312548  -0.543516  0  2.308131  0
O  O321  1  0.18102009  0.76546037  0.88923748  1  -1.163912  0  -0.313592  -0.544076  0  2.324394  0
O  O322  1  0.24757222  0.70772457  0.89844097  1  -1.176087  0  -0.317328  -0.554229  0  2.341728  0
O  O323  1  0.25930608  0.75146057  0.16084640  1  -1.180545  0  -0.317143  -0.547564  0  2.368714  0
O  O324  1  0.29991365  0.18309540  0.65683638  1  -1.167428  0  -0.312591  -0.543561  0  2.307959  0
O  O325  1  0.31898050  0.23454297  0.38923630  1  -1.163738  0  -0.31364  -0.544005  0  2.324304  0
O  O326  1  0.25242717  0.29227410  0.39844463  1  -1.176203  0  -0.317253  -0.554035  0  2.342016  0
O  O327  1  0.24069367  0.24853825  0.66084772  1  -1.180599  0  -0.31713  -0.547542  0  2.368776  0
O  O328  1  0.79991101  0.31690782  0.34316361  1  -1.167455  0  -0.31252  -0.543446  0  2.308159  0
O  O329  1  0.81898056  0.26545751  0.61076363  1  -1.163818  0  -0.313632  -0.543976  0  2.324293  0
O  O330  1  0.75242694  0.20772451  0.60155784  1  -1.176196  0  -0.317246  -0.554029  0  2.341943  0
O  O331  1  0.74069266  0.25146270  0.33915323  1  -1.180657  0  -0.317102  -0.547482  0  2.368825  0
O  O332  1  0.70008670  0.68309537  0.84316284  1  -1.167476  0  -0.312492  -0.543443  0  2.308215  0
O  O333  1  0.68101788  0.73454234  0.11076373  1  -1.163844  0  -0.313578  -0.543904  0  2.324168  0
O  O334  1  0.74757386  0.79227379  0.10155847  1  -1.176186  0  -0.317191  -0.553925  0  2.341859  0
O  O335  1  0.75930816  0.74853661  0.83915262  1  -1.180694  0  -0.317116  -0.547487  0  2.368826  0
O  O336  1  0.15683595  0.20008764  0.81690625  1  -1.167432  0  -0.312511  -0.543489  0  2.308221  0
O  O337  1  0.88923645  0.18101695  0.76545713  1  -1.163844  0  -0.313645  -0.543983  0  2.32413  0
O  O338  1  0.89844164  0.24757361  0.70772628  1  -1.176186  0  -0.31719  -0.553929  0  2.341914  0
O  O339  1  0.16084768  0.25930982  0.75146446  1  -1.180709  0  -0.317137  -0.547445  0  2.368771  0
O  O340  1  0.65683889  0.29991185  0.18309535  1  -1.16745  0  -0.312519  -0.543478  0  2.308249  0
O  O341  1  0.38923561  0.31897918  0.23453986  1  -1.163837  0  -0.313625  -0.544029  0  2.324312  0
O  O342  1  0.39844225  0.25242794  0.29227456  1  -1.176121  0  -0.317214  -0.553985  0  2.341907  0
O  O343  1  0.66084698  0.24069472  0.24853985  1  -1.180549  0  -0.317144  -0.547575  0  2.368806  0
O  O344  1  0.34316213  0.79991186  0.31690503  1  -1.167352  0  -0.312526  -0.54349  0  2.308147  0
O  O345  1  0.61076384  0.81898086  0.26545779  1  -1.163845  0  -0.313632  -0.544002  0  2.324244  0
O  O346  1  0.60155844  0.75242656  0.20772429  1  -1.176142  0  -0.31722  -0.554023  0  2.341778  0
O  O347  1  0.33915333  0.74069477  0.25145901  1  -1.180557  0  -0.317127  -0.547592  0  2.368747  0
O  O348  1  0.84316399  0.70009028  0.68309723  1  -1.167426  0  -0.312427  -0.543309  0  2.308337  0
O  O349  1  0.11076429  0.68101959  0.73454054  1  -1.163821  0  -0.313637  -0.544047  0  2.324266  0
O  O350  1  0.10155903  0.74757040  0.79227290  1  -1.176236  0  -0.317203  -0.553928  0  2.342076  0
O  O351  1  0.83915180  0.75930776  0.74853704  1  -1.180553  0  -0.317158  -0.547568  0  2.36883  0
O  O352  1  0.81690590  0.15683576  0.20008583  1  -1.166903  0  -0.3125  -0.54341  0  2.308166  0
O  O353  1  0.76545715  0.88923675  0.18101807  1  -1.163757  0  -0.313686  -0.544074  0  2.324294  0
O  O354  1  0.70772583  0.89844382  0.24757220  1  -1.176187  0  -0.317269  -0.554048  0  2.342027  0
O  O355  1  0.75146247  0.16084627  0.25930586  1  -1.180613  0  -0.317055  -0.547396  0  2.368755  0
O  O356  1  0.18309489  0.65683790  0.29990920  1  -1.167322  0  -0.312479  -0.543459  0  2.308153  0
O  O357  1  0.23454222  0.38923752  0.31897914  1  -1.163923  0  -0.313648  -0.544059  0  2.324463  0
O  O358  1  0.29227547  0.39844224  0.25242889  1  -1.176212  0  -0.317313  -0.554153  0  2.341862  0
O  O359  1  0.24853910  0.66084681  0.24069266  1  -1.180607  0  -0.317127  -0.547512  0  2.368711  0
O  O360  1  0.31690481  0.34316239  0.79991100  1  -1.167416  0  -0.312454  -0.543407  0  2.308326  0
O  O361  1  0.26545975  0.61076392  0.81898055  1  -1.163867  0  -0.313668  -0.544002  0  2.324292  0
O  O362  1  0.20772671  0.60155769  0.75242737  1  -1.176101  0  -0.317167  -0.553878  0  2.341915  0
O  O363  1  0.25146118  0.33915273  0.74069427  1  -1.180519  0  -0.317128  -0.547508  0  2.368775  0
O  O364  1  0.68309770  0.84316286  0.70008890  1  -1.167335  0  -0.312508  -0.543449  0  2.308296  0
O  O365  1  0.73454185  0.11076228  0.68102183  1  -1.163888  0  -0.313627  -0.544036  0  2.324574  0
O  O366  1  0.79227218  0.10155788  0.74757151  1  -1.176167  0  -0.317205  -0.55395  0  2.342013  0
O  O367  1  0.74853628  0.83915310  0.75930834  1  -1.180596  0  -0.317161  -0.547523  0  2.368797  0
O  O368  1  0.79990952  0.18309389  0.84316206  1  -1.167293  0  -0.312458  -0.543476  0  2.308141  0
O  O369  1  0.81898176  0.23454006  0.11076212  1  -1.163779  0  -0.313697  -0.544118  0  2.324094  0
O  O370  1  0.75242846  0.29227469  0.10155785  1  -1.176249  0  -0.317206  -0.553978  0  2.341895  0
O  O371  1  0.74069382  0.24854258  0.83915514  1  -1.180573  0  -0.317173  -0.547594  0  2.368605  0
O  O372  1  0.70009013  0.81690464  0.34316438  1  -1.167429  0  -0.312486  -0.543394  0  2.308358  0
O  O373  1  0.68101940  0.76545979  0.61076563  1  -1.163858  0  -0.313576  -0.543961  0  2.324119  0
O  O374  1  0.74757312  0.70772671  0.60155808  1  -1.176193  0  -0.317198  -0.55396  0  2.342037  0
O  O375  1  0.75930701  0.75146023  0.33915304  1  -1.180496  0  -0.317137  -0.547507  0  2.3684  0
O  O376  1  0.20008811  0.68309688  0.65683716  1  -1.167355  0  -0.312513  -0.543396  0  2.30829  0
O  O377  1  0.18101973  0.73454253  0.38923636  1  -1.163797  0  -0.313679  -0.544084  0  2.324347  0
O  O378  1  0.24757218  0.79227398  0.39844176  1  -1.176155  0  -0.317222  -0.55399  0  2.341892  0
O  O379  1  0.25930762  0.74853889  0.66084559  1  -1.180689  0  -0.317114  -0.547567  0  2.36874  0
O  O380  1  0.29991320  0.31690350  0.15683792  1  -1.167406  0  -0.312562  -0.543513  0  2.308175  0
O  O381  1  0.31897814  0.26545847  0.88923431  1  -1.163794  0  -0.313553  -0.543984  0  2.324405  0
O  O382  1  0.25242409  0.20772586  0.89844307  1  -1.176227  0  -0.317176  -0.55394  0  2.341839  0
O  O383  1  0.24069212  0.25145954  0.16084620  1  -1.180568  0  -0.317122  -0.547585  0  2.368663  0
O  O384  1  0.84316356  0.79991162  0.18309606  1  -1.167388  0  -0.312501  -0.54339  0  2.30819  0
O  O385  1  0.11076384  0.81897998  0.23454053  1  -1.163843  0  -0.313621  -0.54404  0  2.324341  0
O  O386  1  0.10155787  0.75242759  0.29227331  1  -1.176111  0  -0.317235  -0.554023  0  2.342018  0
O  O387  1  0.83915338  0.74069177  0.24853786  1  -1.180668  0  -0.317121  -0.547475  0  2.368719  0
O  O388  1  0.34316140  0.70008663  0.81690269  1  -1.167408  0  -0.312544  -0.543497  0  2.308205  0
O  O389  1  0.61076312  0.68101814  0.76545857  1  -1.16385  0  -0.313659  -0.543978  0  2.32419  0
O  O390  1  0.60155804  0.74757287  0.70772698  1  -1.176086  0  -0.317185  -0.553927  0  2.341924  0
O  O391  1  0.33915331  0.75930726  0.75146208  1  -1.180713  0  -0.317122  -0.547585  0  2.368819  0
O  O392  1  0.65683699  0.20008896  0.68309418  1  -1.167316  0  -0.312489  -0.543483  0  2.30804  0
O  O393  1  0.38923801  0.18101995  0.73453715  1  -1.163816  0  -0.31364  -0.544103  0  2.324042  0
O  O394  1  0.39844185  0.24757231  0.79227259  1  -1.176205  0  -0.31725  -0.55405  0  2.342015  0
O  O395  1  0.66084579  0.25930604  0.74854176  1  -1.180582  0  -0.317169  -0.547638  0  2.368648  0
O  O396  1  0.15683669  0.29991248  0.31690315  1  -1.167476  0  -0.312494  -0.5434  0  2.308286  0
O  O397  1  0.88923560  0.31897967  0.26545556  1  -1.163736  0  -0.313636  -0.543982  0  2.324448  0
O  O398  1  0.89844514  0.25242652  0.20772437  1  -1.176237  0  -0.317279  -0.554043  0  2.342002  0
O  O399  1  0.16084809  0.24069306  0.25146255  1  -1.180495  0  -0.317102  -0.547502  0  2.368593  0
O  O400  1  0.18309827  0.84316311  0.79990988  1  -1.167435  0  -0.312415  -0.543288  0  2.308463  0
O  O401  1  0.23454586  0.11076406  0.81897959  1  -1.163888  0  -0.313688  -0.544119  0  2.324525  0
O  O402  1  0.29227446  0.10155622  0.75242856  1  -1.176159  0  -0.317305  -0.554097  0  2.341886  0
O  O403  1  0.24853821  0.83915338  0.74069296  1  -1.180524  0  -0.317112  -0.547591  0  2.368813  0
O  O404  1  0.81690578  0.34316175  0.70008846  1  -1.167377  0  -0.312472  -0.543404  0  2.30806  0
O  O405  1  0.76545690  0.61076330  0.68101890  1  -1.163852  0  -0.313706  -0.544099  0  2.324495  0
O  O406  1  0.70772404  0.60155819  0.74757382  1  -1.176187  0  -0.317187  -0.553982  0  2.34176  0
O  O407  1  0.75145847  0.33915439  0.75930578  1  -1.180559  0  -0.317112  -0.547569  0  2.368685  0
O  O408  1  0.68309470  0.65683687  0.20009016  1  -1.167394  0  -0.312481  -0.543424  0  2.308188  0
O  O409  1  0.73453937  0.38923495  0.18102294  1  -1.163796  0  -0.313581  -0.544029  0  2.324429  0
O  O410  1  0.79227202  0.39844351  0.24757572  1  -1.176124  0  -0.317218  -0.553967  0  2.341886  0
O  O411  1  0.74853872  0.66084769  0.25930804  1  -1.180591  0  -0.317131  -0.547496  0  2.368644  0
O  O412  1  0.31690531  0.15683640  0.29990953  1  -1.167379  0  -0.312461  -0.543376  0  2.30825  0
O  O413  1  0.26545961  0.88923659  0.31897971  1  -1.163791  0  -0.313598  -0.544017  0  2.324221  0
O  O414  1  0.20772578  0.89844138  0.25242692  1  -1.176177  0  -0.317206  -0.553946  0  2.341922  0
O  O415  1  0.25146206  0.16084655  0.24069125  1  -1.180565  0  -0.31712  -0.547483  0  2.368725  0
O  O416  1  0.22185363  0.77814506  0.27814490  1  -1.227321  0  -0.570635  -1.027242  0  2.527434  0
O  O417  1  0.27814380  0.22185524  0.77814651  1  -1.227363  0  -0.570595  -1.027182  0  2.527503  0
O  O418  1  0.77814547  0.27814645  0.22185432  1  -1.227492  0  -0.570552  -1.027085  0  2.527382  0
O  O419  1  0.72185534  0.72185488  0.72185579  1  -1.227549  0  -0.570641  -1.027294  0  2.52738  0
O  O420  1  0.77814432  0.22185575  0.72185392  1  -1.227423  0  -0.570587  -1.027077  0  2.527367  0
O  O421  1  0.72185377  0.77814674  0.22185542  1  -1.227331  0  -0.57056  -1.027177  0  2.527621  0
O  O422  1  0.22185560  0.72185669  0.77814411  1  -1.227426  0  -0.570637  -1.027396  0  2.527428  0
O  O423  1  0.27814417  0.27814555  0.27814730  1  -1.227483  0  -0.570544  -1.027159  0  2.527576  0
