# generated using pymatgen
data_Ni2H14C24N4O9F4
_symmetry_space_group_name_H-M   'P 1'
_cell_length_a   13.90687897
_cell_length_b   20.39753250
_cell_length_c   20.39752870
_cell_angle_alpha   89.99998637
_cell_angle_beta   89.99997902
_cell_angle_gamma   89.99999682
_symmetry_Int_Tables_number   1
_chemical_formula_structural   Ni2H14C24N4O9F4
_chemical_formula_sum   'Ni16 H112 C192 N32 O72 F32'
_cell_volume   5786.08569341
_cell_formula_units_Z   8
loop_
 _symmetry_equiv_pos_site_id
 _symmetry_equiv_pos_as_xyz
  1  'x, y, z'
loop_
 _atom_site_type_symbol
 _atom_site_label
 _atom_site_symmetry_multiplicity
 _atom_site_fract_x
 _atom_site_fract_y
 _atom_site_fract_z
 _atom_site_occupancy
 _atom_site_pbe_bader_charge
 _atom_site_pbe_bader_spin_density
 _atom_site_pbe_cm5_charge
 _atom_site_pbe_ddec_charge
 _atom_site_pbe_ddec_spin_density
 _atom_site_pbe_ddec_sum_bond_order
 _atom_site_pbe_magmom
Ni  Ni0  1  0.34207875  0.38175836  0.53513533  1  1.182836  1.564422  0.655676  0.810471  1.775483  2.454408  1.551
Ni  Ni1  1  0.34207877  0.96486469  0.38175883  1  1.182852  1.564424  0.655724  0.81058  1.775485  2.454292  1.551
Ni  Ni2  1  0.15792097  0.88175856  0.46486452  1  1.18283  1.564421  0.655721  0.810586  1.775482  2.454272  1.551
Ni  Ni3  1  0.34207937  0.11824163  0.96486438  1  1.182851  1.564422  0.655681  0.810481  1.775483  2.454356  1.551
Ni  Ni4  1  0.15792094  0.46486449  0.61824100  1  1.182853  1.564422  0.655725  0.810594  1.775483  2.454217  1.551
Ni  Ni5  1  0.15792089  0.03513551  0.88175826  1  1.182855  1.564423  0.655678  0.810466  1.775483  2.454376  1.551
Ni  Ni6  1  0.34207886  0.53513530  0.11824118  1  1.182852  1.564423  0.655703  0.810512  1.775484  2.454362  1.551
Ni  Ni7  1  0.15792109  0.61824095  0.03513554  1  1.182848  1.564422  0.655717  0.810604  1.775484  2.454226  1.551
Ni  Ni8  1  0.65792101  0.61824089  0.46486449  1  1.182851  1.564422  0.655729  0.810617  1.775484  2.454181  1.551
Ni  Ni9  1  0.65792100  0.03513505  0.61824148  1  1.182836  1.564422  0.655728  0.81061  1.775484  2.454246  1.551
Ni  Ni10  1  0.84207880  0.11824118  0.53513530  1  1.182846  1.564421  0.655726  0.810569  1.775483  2.45428  1.551
Ni  Ni11  1  0.65792112  0.88175909  0.03513495  1  1.182855  1.564421  0.655727  0.810568  1.775483  2.454285  1.551
Ni  Ni12  1  0.84207882  0.53513525  0.38175882  1  1.182849  1.564422  0.655699  0.810522  1.775484  2.454339  1.551
Ni  Ni13  1  0.84207888  0.96486472  0.11824106  1  1.182858  1.564423  0.655672  0.810433  1.775484  2.454385  1.551
Ni  Ni14  1  0.65792091  0.46486493  0.88175864  1  1.18285  1.564422  0.65572  0.810579  1.775483  2.454258  1.551
Ni  Ni15  1  0.84207867  0.38175879  0.96486477  1  1.182845  1.564421  0.655711  0.810539  1.775483  2.454329  1.551
H  H16  1  0.20056675  0.34535199  0.61761054  1  0.645629  8.9e-05  0.291725  0.384518  0.000367  0.956783  0.0
H  H17  1  0.20056608  0.88238904  0.34535200  1  0.645627  8.9e-05  0.291731  0.384511  0.000367  0.956789  0.0
H  H18  1  0.29943369  0.84535171  0.38238932  1  0.645629  8.9e-05  0.291738  0.384528  0.000367  0.956763  0.0
H  H19  1  0.20056669  0.15464850  0.88238920  1  0.645625  8.9e-05  0.291724  0.384508  0.000367  0.956798  0.0
H  H20  1  0.29943364  0.38238931  0.65464834  1  0.645627  8.9e-05  0.291737  0.384519  0.000367  0.956777  0.0
H  H21  1  0.29943360  0.11761069  0.84535187  1  0.645629  8.9e-05  0.291741  0.384518  0.000367  0.956779  0.0
H  H22  1  0.20056614  0.61761096  0.15464805  1  0.645627  8.9e-05  0.291713  0.384451  0.000367  0.956877  0.0
H  H23  1  0.29943377  0.65464828  0.11761070  1  0.645627  8.9e-05  0.291743  0.384526  0.000367  0.956765  0.0
H  H24  1  0.79943374  0.65464824  0.38238928  1  0.645627  8.9e-05  0.291737  0.384519  0.000367  0.956777  0.0
H  H25  1  0.79943368  0.11761070  0.65464831  1  0.645626  8.9e-05  0.291736  0.384518  0.000367  0.956779  0.0
H  H26  1  0.70056607  0.15464803  0.61761099  1  0.645626  8.9e-05  0.291731  0.384507  0.000367  0.956795  0.0
H  H27  1  0.79943380  0.84535173  0.11761062  1  0.645626  8.9e-05  0.291733  0.384514  0.000367  0.956784  0.0
H  H28  1  0.70056613  0.61761092  0.34535197  1  0.645626  8.9e-05  0.291731  0.384508  0.000367  0.956792  0.0
H  H29  1  0.70056617  0.88238905  0.15464844  1  0.645625  8.9e-05  0.29173  0.384508  0.000367  0.956793  0.0
H  H30  1  0.79943362  0.38238927  0.84535177  1  0.645625  8.9e-05  0.291741  0.384508  0.000367  0.956794  0.0
H  H31  1  0.70056672  0.34535195  0.88238912  1  0.64563  8.9e-05  0.291732  0.384522  0.000367  0.95678  0.0
H  H32  1  0.52501700  0.44279172  0.50750744  1  0.169493  0.002076  0.122583  0.099539  0.000734  1.049105  0.002
H  H33  1  0.52501699  0.99249204  0.44279218  1  0.169425  0.002075  0.122565  0.099516  0.000734  1.049111  0.002
H  H34  1  0.97498279  0.94279190  0.49249227  1  0.169472  0.002075  0.122585  0.099582  0.000734  1.049039  0.002
H  H35  1  0.52501688  0.05720826  0.99249222  1  0.169481  0.002075  0.122569  0.09953  0.000734  1.049097  0.002
H  H36  1  0.97498351  0.49249184  0.55720801  1  0.169417  0.002075  0.122589  0.099567  0.000734  1.049042  0.002
H  H37  1  0.97498342  0.00750764  0.94279203  1  0.169427  0.002075  0.122594  0.099585  0.000734  1.04905  0.002
H  H38  1  0.52501712  0.50750843  0.05720778  1  0.169463  0.002075  0.122576  0.099567  0.000734  1.049047  0.002
H  H39  1  0.97498293  0.55720806  0.00750758  1  0.169429  0.002075  0.122576  0.099547  0.000734  1.049099  0.002
H  H40  1  0.47498349  0.55720802  0.49249189  1  0.169419  0.002075  0.122584  0.099586  0.000734  1.049033  0.002
H  H41  1  0.47498277  0.00750770  0.55720813  1  0.169478  0.002075  0.122585  0.099585  0.000734  1.049035  0.002
H  H42  1  0.02501698  0.05720784  0.50750804  1  0.169417  0.002075  0.122586  0.099575  0.000734  1.049064  0.002
H  H43  1  0.47498288  0.94279197  0.00750809  1  0.169417  0.002076  0.122583  0.099581  0.000734  1.049039  0.002
H  H44  1  0.02501698  0.50750741  0.44279181  1  0.169493  0.002076  0.122583  0.099536  0.000734  1.049107  0.002
H  H45  1  0.02501706  0.99249210  0.05720779  1  0.169467  0.002075  0.122578  0.099575  0.000734  1.049049  0.002
H  H46  1  0.47498337  0.49249180  0.94279204  1  0.169415  0.002076  0.122581  0.099582  0.000734  1.049035  0.002
H  H47  1  0.02501683  0.44279168  0.99249224  1  0.169484  0.002076  0.122573  0.099536  0.000734  1.049091  0.002
H  H48  1  0.33887103  0.33373296  0.39230872  1  0.154713  0.002281  0.125575  0.121498  0.000834  0.986309  0.002
H  H49  1  0.33887033  0.10769141  0.33373302  1  0.154709  0.002281  0.125573  0.121503  0.000835  0.986286  0.002
H  H50  1  0.16112941  0.83373312  0.60769114  1  0.154716  0.002281  0.12558  0.121507  0.000835  0.986299  0.002
H  H51  1  0.33887039  0.16626715  0.10769142  1  0.154707  0.002281  0.125572  0.121502  0.000835  0.986285  0.002
H  H52  1  0.16112941  0.60769107  0.66626690  1  0.154717  0.002281  0.125579  0.121507  0.000835  0.986304  0.002
H  H53  1  0.16112935  0.89230881  0.83373274  1  0.154704  0.002281  0.125565  0.121482  0.000834  0.986327  0.002
H  H54  1  0.33887108  0.39230870  0.16626662  1  0.154729  0.002281  0.125547  0.121471  0.000835  0.986276  0.002
H  H55  1  0.16112934  0.66626724  0.89230849  1  0.154709  0.002281  0.125556  0.12146  0.000834  0.986344  0.002
H  H56  1  0.66112874  0.66626678  0.60769159  1  0.154722  0.002281  0.125568  0.121493  0.000835  0.986322  0.002
H  H57  1  0.66112871  0.89230882  0.66626680  1  0.154723  0.002281  0.12557  0.121491  0.000835  0.986324  0.002
H  H58  1  0.83887035  0.16626711  0.39230868  1  0.154712  0.002281  0.125561  0.121486  0.000835  0.986307  0.002
H  H59  1  0.66112938  0.83373308  0.89230889  1  0.154717  0.002281  0.125541  0.121452  0.000835  0.986282  0.002
H  H60  1  0.83887036  0.39230867  0.33373292  1  0.154704  0.002281  0.125568  0.121491  0.000834  0.986296  0.002
H  H61  1  0.83887113  0.10769142  0.16626708  1  0.154726  0.002281  0.125546  0.12147  0.000835  0.986274  0.002
H  H62  1  0.66112940  0.60769104  0.83373320  1  0.154719  0.002281  0.125565  0.121483  0.000835  0.986332  0.002
H  H63  1  0.83887042  0.33373250  0.10769133  1  0.154703  0.002281  0.125578  0.121493  0.000835  0.986284  0.002
H  H64  1  0.59759768  0.41239689  0.30407005  1  0.112977  0.000201  0.120346  0.146345  1.7e-05  0.972062  0.0
H  H65  1  0.59759766  0.19593001  0.41239692  1  0.112974  0.000201  0.120348  0.146348  1.7e-05  0.972056  0.0
H  H66  1  0.90240211  0.91239702  0.69592918  1  0.112964  0.000201  0.12035  0.146351  1.7e-05  0.972089  0.0
H  H67  1  0.59759844  0.08760321  0.19592953  1  0.112965  0.000201  0.120353  0.14636  1.7e-05  0.972052  0.0
H  H68  1  0.90240215  0.69592919  0.58760285  1  0.112971  0.000201  0.120345  0.146343  1.7e-05  0.972108  0.0
H  H69  1  0.90240205  0.80407066  0.91239709  1  0.112965  0.000201  0.120338  0.146334  1.7e-05  0.97211  0.0
H  H70  1  0.59759846  0.30407058  0.08760266  1  0.112981  0.000201  0.12034  0.146337  1.7e-05  0.972112  0.0
H  H71  1  0.90240209  0.58760282  0.80407026  1  0.112978  0.000201  0.120349  0.146353  1.7e-05  0.972064  0.0
H  H72  1  0.40240208  0.58760285  0.69592977  1  0.112984  0.000201  0.120355  0.146364  1.7e-05  0.972047  0.0
H  H73  1  0.40240210  0.80407022  0.58760290  1  0.112978  0.000201  0.120352  0.146346  1.7e-05  0.972052  0.0
H  H74  1  0.09759838  0.08760271  0.30407015  1  0.11298  0.000201  0.120353  0.146359  1.7e-05  0.972047  0.0
H  H75  1  0.40240204  0.91239702  0.80407078  1  0.112976  0.000201  0.120348  0.146348  1.7e-05  0.972102  0.0
H  H76  1  0.09759762  0.30407006  0.41239697  1  0.112976  0.000201  0.120346  0.146346  1.7e-05  0.972062  0.0
H  H77  1  0.09759843  0.19592957  0.08760273  1  0.112978  0.000201  0.12035  0.14635  1.7e-05  0.972061  0.0
H  H78  1  0.40240202  0.69592916  0.91239765  1  0.112993  0.000201  0.12035  0.146357  1.7e-05  0.972093  0.0
H  H79  1  0.09759767  0.41239692  0.19592956  1  0.11297  0.000201  0.120355  0.14636  1.7e-05  0.97205  0.0
H  H80  1  0.49401578  0.28582616  0.57531323  1  0.145061  0.001884  0.12228  0.108223  0.000631  1.018496  0.001
H  H81  1  0.49401583  0.92468680  0.28582612  1  0.145052  0.001884  0.122279  0.10823  0.000631  1.018501  0.001
H  H82  1  0.00598466  0.78582588  0.42468665  1  0.145071  0.001885  0.122266  0.108205  0.000631  1.018471  0.001
H  H83  1  0.49401569  0.21417383  0.92468693  1  0.145054  0.001884  0.122284  0.108238  0.000631  1.018488  0.001
H  H84  1  0.00598460  0.42468658  0.71417372  1  0.145067  0.001885  0.122265  0.1082  0.000631  1.018471  0.001
H  H85  1  0.00598388  0.07531343  0.78582656  1  0.145052  0.001885  0.122251  0.108196  0.000631  1.018475  0.001
H  H86  1  0.49401587  0.57531318  0.21417385  1  0.145051  0.001884  0.122278  0.108237  0.000631  1.018498  0.001
H  H87  1  0.00598476  0.71417412  0.07531345  1  0.145011  0.001884  0.12227  0.108211  0.000631  1.018464  0.001
H  H88  1  0.50598398  0.71417407  0.42468659  1  0.145  0.001884  0.122263  0.108196  0.000631  1.018473  0.001
H  H89  1  0.50598465  0.07531294  0.71417370  1  0.145067  0.001884  0.122263  0.108199  0.000631  1.018477  0.001
H  H90  1  0.99401582  0.21417386  0.57531317  1  0.145052  0.001884  0.122281  0.108234  0.000631  1.018495  0.001
H  H91  1  0.50598407  0.78582788  0.07531289  1  0.14528  0.001884  0.122275  0.108245  0.000631  1.018441  0.001
H  H92  1  0.99401660  0.57531365  0.28582610  1  0.144986  0.001884  0.12227  0.108237  0.000631  1.018471  0.001
H  H93  1  0.99401589  0.92468680  0.21417375  1  0.145063  0.001884  0.122264  0.108197  0.000631  1.018473  0.001
H  H94  1  0.50598462  0.42468656  0.78582597  1  0.145068  0.001885  0.122264  0.108203  0.000631  1.018471  0.001
H  H95  1  0.99401644  0.28582807  0.92468686  1  0.145278  0.001884  0.122271  0.108241  0.000631  1.018452  0.001
H  H96  1  0.21423843  0.26696654  0.50638972  1  0.134169  0.002317  0.123666  0.118453  0.000823  1.021047  0.002
H  H97  1  0.21423847  0.99361034  0.26696602  1  0.134178  0.002317  0.123669  0.118467  0.000823  1.021048  0.002
H  H98  1  0.28576201  0.76696623  0.49361016  1  0.134172  0.002317  0.123667  0.118458  0.000823  1.021051  0.002
H  H99  1  0.21423830  0.23303346  0.99361002  1  0.134171  0.002317  0.123679  0.118469  0.000823  1.021035  0.002
H  H100  1  0.28576196  0.49361010  0.73303380  1  0.134173  0.002317  0.12367  0.118463  0.000823  1.021045  0.002
H  H101  1  0.28576125  0.00638989  0.76696641  1  0.134182  0.002317  0.123675  0.118447  0.000823  1.021064  0.002
H  H102  1  0.21423850  0.50638965  0.23303354  1  0.134175  0.002317  0.123671  0.118463  0.000823  1.02105  0.002
H  H103  1  0.28576214  0.73303376  0.00638987  1  0.134168  0.002317  0.123665  0.118456  0.000823  1.021053  0.002
H  H104  1  0.78576133  0.73303320  0.49361010  1  0.134171  0.002317  0.123672  0.118454  0.000823  1.021055  0.002
H  H105  1  0.78576202  0.00638989  0.73303380  1  0.134171  0.002317  0.123669  0.118467  0.000823  1.021047  0.002
H  H106  1  0.71423847  0.23303351  0.50638966  1  0.134166  0.002317  0.123663  0.118453  0.000823  1.02106  0.002
H  H107  1  0.78576146  0.76696726  0.00639029  1  0.134173  0.002317  0.123668  0.118444  0.000823  1.021071  0.002
H  H108  1  0.71423924  0.50639013  0.26696651  1  0.134181  0.002317  0.123678  0.118463  0.000823  1.021051  0.002
H  H109  1  0.71423851  0.99360985  0.23303341  1  0.134173  0.002317  0.123665  0.11845  0.000823  1.021066  0.002
H  H110  1  0.78576199  0.49361009  0.76696628  1  0.134171  0.002317  0.123668  0.118459  0.000823  1.02105  0.002
H  H111  1  0.71423834  0.26696696  0.99360946  1  0.134173  0.002317  0.12367  0.118439  0.000823  1.021088  0.002
H  H112  1  0.37221061  0.09149237  0.55666983  1  0.113022  7.1e-05  0.119754  0.149471  -2e-05  0.999391  0.0
H  H113  1  0.37221070  0.94333026  0.09149230  1  0.11302  7.1e-05  0.119753  0.149463  -2e-05  0.999398  0.0
H  H114  1  0.12778985  0.59149208  0.44333058  1  0.113014  7.1e-05  0.119763  0.149502  -2e-05  0.999357  0.0
H  H115  1  0.37221049  0.40850763  0.94333036  1  0.113023  7.1e-05  0.119758  0.149475  -2e-05  0.999385  0.0
H  H116  1  0.12778901  0.44333047  0.90850754  1  0.113024  7.1e-05  0.119756  0.149477  -2e-05  0.999382  0.0
H  H117  1  0.12778912  0.05666953  0.59149271  1  0.113033  7.1e-05  0.119761  0.149485  -2e-05  0.999369  0.0
H  H118  1  0.37221063  0.55666973  0.40850722  1  0.113027  7.1e-05  0.119755  0.149464  -2e-05  0.999389  0.0
H  H119  1  0.12778922  0.90850743  0.05666949  1  0.113019  7.1e-05  0.119759  0.149501  -2e-05  0.999351  0.0
H  H120  1  0.62778988  0.90850737  0.44333048  1  0.11303  7.1e-05  0.119752  0.149467  -2e-05  0.999427  0.0
H  H121  1  0.62778907  0.05666997  0.90850752  1  0.113026  7.1e-05  0.119757  0.149475  -2e-05  0.999385  0.0
H  H122  1  0.87221063  0.40850766  0.55666973  1  0.113021  7.1e-05  0.119754  0.14947  -2e-05  0.999388  0.0
H  H123  1  0.62778856  0.59149358  0.05667093  1  0.113056  7.1e-05  0.119751  0.149461  -2e-05  0.999375  0.0
H  H124  1  0.87221075  0.55666976  0.09149277  1  0.113035  7.1e-05  0.119763  0.149482  -2e-05  0.99937  0.0
H  H125  1  0.87221065  0.94333021  0.40850760  1  0.113023  7.1e-05  0.119756  0.14946  -2e-05  0.999396  0.0
H  H126  1  0.62778914  0.44333001  0.59149260  1  0.11302  7.1e-05  0.119749  0.149461  -2e-05  0.999389  0.0
H  H127  1  0.87221126  0.09149378  0.94332935  1  0.113056  7.1e-05  0.119749  0.149461  -2e-05  0.999381  0.0
C  C128  1  0.65712071  0.47787980  0.41758329  1  1.622178  0.004558  0.214763  0.58225  0.003547  4.185989  0.003
C  C129  1  0.65712215  0.08241627  0.47787986  1  1.622178  0.004557  0.214729  0.582237  0.003546  4.186036  0.003
C  C130  1  0.84287907  0.97787996  0.58241641  1  1.622173  0.004558  0.214729  0.582248  0.003546  4.186029  0.003
C  C131  1  0.65712082  0.02212030  0.08241676  1  1.622169  0.004558  0.214765  0.582258  0.003546  4.185939  0.003
C  C132  1  0.84287767  0.58241596  0.52212043  1  1.622168  0.004557  0.214728  0.582227  0.003546  4.186079  0.003
C  C133  1  0.84287897  0.91758340  0.97788001  1  1.622175  0.004557  0.214753  0.582243  0.003546  4.185965  0.003
C  C134  1  0.65712226  0.41758432  0.02212019  1  1.622177  0.004557  0.214741  0.582255  0.003546  4.186008  0.003
C  C135  1  0.84287900  0.52211989  0.91758354  1  1.622179  0.004557  0.214746  0.582242  0.003547  4.185986  0.003
C  C136  1  0.34287834  0.52211994  0.58241604  1  1.622179  0.004557  0.214738  0.582249  0.003546  4.185999  0.003
C  C137  1  0.34287762  0.91758396  0.52212094  1  1.622209  0.004557  0.214728  0.582217  0.003546  4.186031  0.003
C  C138  1  0.15712069  0.02211978  0.41758341  1  1.622177  0.004557  0.214756  0.582267  0.003546  4.185966  0.003
C  C139  1  0.34287751  0.97787993  0.91758404  1  1.622179  0.004557  0.214737  0.582241  0.003546  4.186003  0.003
C  C140  1  0.15712066  0.41758378  0.47787939  1  1.622162  0.004558  0.214747  0.582217  0.003547  4.185989  0.003
C  C141  1  0.15712223  0.08241585  0.02212030  1  1.622142  0.004557  0.214737  0.582235  0.003546  4.186024  0.003
C  C142  1  0.34287823  0.58241591  0.97787962  1  1.622169  0.004557  0.214745  0.582264  0.003546  4.185973  0.003
C  C143  1  0.15712076  0.47787936  0.08241628  1  1.622164  0.004558  0.214753  0.582237  0.003547  4.185985  0.003
C  C144  1  0.57301989  0.43270424  0.40725166  1  -0.046218  0.017582  -0.007491  -0.040804  0.010325  3.963408  0.014
C  C145  1  0.57302205  0.09274792  0.43270381  1  -0.04624  0.017583  -0.007518  -0.040854  0.010326  3.963437  0.014
C  C146  1  0.92697918  0.93270439  0.59274805  1  -0.046226  0.017582  -0.00753  -0.040896  0.010325  3.963483  0.014
C  C147  1  0.57301999  0.06729537  0.09274792  1  -0.046228  0.017582  -0.007498  -0.040793  0.010325  3.963395  0.014
C  C148  1  0.92697776  0.59274710  0.56729599  1  -0.046272  0.017582  -0.00749  -0.040822  0.010325  3.963436  0.014
C  C149  1  0.92697981  0.90725177  0.93270492  1  -0.046207  0.017582  -0.007508  -0.04083  0.010325  3.963401  0.014
C  C150  1  0.57302214  0.40725267  0.06729627  1  -0.046275  0.017583  -0.007486  -0.04081  0.010325  3.963447  0.014
C  C151  1  0.92697983  0.56729496  0.90725188  1  -0.046224  0.017582  -0.00748  -0.040733  0.010325  3.963366  0.014
C  C152  1  0.42697844  0.56729599  0.59274718  1  -0.046277  0.017582  -0.007492  -0.040816  0.010325  3.963441  0.014
C  C153  1  0.42697771  0.90725231  0.56729650  1  -0.04626  0.017582  -0.007552  -0.040912  0.010325  3.963501  0.014
C  C154  1  0.07301987  0.06729485  0.40725226  1  -0.046232  0.017582  -0.007499  -0.040809  0.010325  3.963428  0.014
C  C155  1  0.42697762  0.93270388  0.90725288  1  -0.046273  0.017583  -0.007479  -0.0408  0.010326  3.963416  0.014
C  C156  1  0.07302056  0.40725166  0.43270432  1  -0.046225  0.017582  -0.007494  -0.040797  0.010325  3.963392  0.014
C  C157  1  0.07302211  0.09274699  0.06729588  1  -0.046278  0.017582  -0.007489  -0.040812  0.010325  3.963458  0.014
C  C158  1  0.42697835  0.59274707  0.93270404  1  -0.046288  0.017582  -0.0075  -0.040837  0.010325  3.963478  0.014
C  C159  1  0.07302065  0.43270429  0.09274794  1  -0.046226  0.017582  -0.007497  -0.040802  0.010325  3.963399  0.014
C  C160  1  0.51042855  0.42208874  0.45960409  1  0.552647  -0.005181  0.051766  0.067281  -0.00607  3.893992  -0.004
C  C161  1  0.51042929  0.04039551  0.42208881  1  0.552665  -0.005182  0.051781  0.067317  -0.006071  3.893976  -0.004
C  C162  1  0.98957124  0.92208939  0.54039513  1  0.552647  -0.005182  0.051746  0.067258  -0.006071  3.893971  -0.004
C  C163  1  0.51042868  0.07791088  0.04039551  1  0.552646  -0.005182  0.051766  0.067281  -0.006071  3.893994  -0.004
C  C164  1  0.98957053  0.54039518  0.57791100  1  0.552668  -0.005182  0.051751  0.067272  -0.006071  3.893943  -0.004
C  C165  1  0.98957186  0.95960467  0.92208941  1  0.552653  -0.005182  0.051692  0.067199  -0.006071  3.894029  -0.004
C  C166  1  0.51043009  0.45960508  0.07791128  1  0.552673  -0.005182  0.051783  0.067283  -0.006071  3.89399  -0.004
C  C167  1  0.98957114  0.57791046  0.95960429  1  0.55264  -0.005182  0.051777  0.067277  -0.00607  3.894044  -0.004
C  C168  1  0.48957050  0.57791100  0.54039524  1  0.552663  -0.005182  0.051765  0.067258  -0.006071  3.894015  -0.004
C  C169  1  0.48956975  0.95960472  0.57791150  1  0.552654  -0.005182  0.051776  0.067279  -0.006071  3.894025  -0.004
C  C170  1  0.01042853  0.07791035  0.45960469  1  0.552638  -0.005182  0.051756  0.067262  -0.006071  3.893969  -0.004
C  C171  1  0.48957037  0.92208886  0.95960480  1  0.552668  -0.005182  0.051771  0.067265  -0.006071  3.89401  -0.004
C  C172  1  0.01042852  0.45960407  0.42208882  1  0.552662  -0.005182  0.051773  0.067287  -0.006071  3.893984  -0.004
C  C173  1  0.01043007  0.04039507  0.07791090  1  0.552659  -0.005182  0.05177  0.067249  -0.006071  3.894007  -0.004
C  C174  1  0.48957040  0.54039515  0.92208903  1  0.55266  -0.005182  0.051761  0.067255  -0.006071  3.894024  -0.004
C  C175  1  0.01042862  0.42208879  0.04039553  1  0.552648  -0.005182  0.051769  0.067278  -0.006071  3.893992  -0.004
C  C176  1  0.40612120  0.36083330  0.39575618  1  0.545591  -0.005857  0.03926  -0.038392  -0.006656  3.935541  -0.004
C  C177  1  0.40612122  0.10424393  0.36083335  1  0.545588  -0.005857  0.039251  -0.038409  -0.006657  3.935544  -0.004
C  C178  1  0.09387852  0.86083346  0.60424367  1  0.545594  -0.005857  0.039262  -0.03839  -0.006656  3.935552  -0.004
C  C179  1  0.40612128  0.13916681  0.10424393  1  0.545587  -0.005857  0.039249  -0.038402  -0.006656  3.935552  -0.004
C  C180  1  0.09387852  0.60424360  0.63916656  1  0.545595  -0.005857  0.039261  -0.038401  -0.006657  3.93555  -0.004
C  C181  1  0.09387917  0.89575579  0.86083309  1  0.545581  -0.005857  0.039256  -0.038398  -0.006656  3.935574  -0.004
C  C182  1  0.40612198  0.39575618  0.13916627  1  0.5456  -0.005857  0.039267  -0.038402  -0.006657  3.935597  -0.004
C  C183  1  0.09387917  0.63916642  0.89575598  1  0.545598  -0.005857  0.039287  -0.038301  -0.006657  3.935551  -0.004
C  C184  1  0.59387857  0.63916644  0.60424413  1  0.54558  -0.005857  0.039259  -0.038377  -0.006657  3.935601  -0.004
C  C185  1  0.59387855  0.89575630  0.63916646  1  0.545588  -0.005857  0.039272  -0.038366  -0.006657  3.935586  -0.004
C  C186  1  0.90612124  0.13916628  0.39575615  1  0.545598  -0.005857  0.039273  -0.038368  -0.006656  3.935543  -0.004
C  C187  1  0.59387848  0.86083342  0.89575638  1  0.545603  -0.005858  0.039296  -0.038328  -0.006657  3.935507  -0.004
C  C188  1  0.90612124  0.39575565  0.36083277  1  0.545584  -0.005857  0.039257  -0.03839  -0.006656  3.935527  -0.004
C  C189  1  0.90612203  0.10424395  0.13916624  1  0.545606  -0.005857  0.039272  -0.038399  -0.006657  3.935593  -0.004
C  C190  1  0.59387850  0.60424356  0.86083355  1  0.545624  -0.005857  0.039281  -0.038352  -0.006657  3.935565  -0.004
C  C191  1  0.90612131  0.36083283  0.10424384  1  0.545587  -0.005857  0.03927  -0.038374  -0.006656  3.935503  -0.004
C  C192  1  0.46571402  0.37016972  0.34182954  1  0.414936  0.006593  0.097736  0.243845  0.00371  4.091727  0.005
C  C193  1  0.46571402  0.15817006  0.37016977  1  0.414938  0.006593  0.097721  0.243834  0.00371  4.091752  0.005
C  C194  1  0.03428570  0.87016988  0.65816982  1  0.414373  0.006593  0.097733  0.24385  0.00371  4.091727  0.005
C  C195  1  0.46571408  0.12983038  0.15817007  1  0.414934  0.006593  0.097724  0.243822  0.00371  4.091708  0.005
C  C196  1  0.03428571  0.65816973  0.62983014  1  0.414372  0.006593  0.097744  0.243884  0.00371  4.091699  0.005
C  C197  1  0.03428636  0.84182966  0.87017002  1  0.414938  0.006593  0.097733  0.243866  0.00371  4.091722  0.005
C  C198  1  0.46571480  0.34183005  0.12982984  1  0.414369  0.006593  0.097686  0.243788  0.00371  4.09169  0.005
C  C199  1  0.03428566  0.62983000  0.84182984  1  0.414944  0.006593  0.097722  0.243829  0.00371  4.091707  0.005
C  C200  1  0.53428575  0.62983002  0.65816979  1  0.414357  0.006593  0.097699  0.243783  0.00371  4.091778  0.005
C  C201  1  0.53428574  0.84183017  0.62983005  1  0.414368  0.006593  0.097732  0.243838  0.00371  4.091734  0.005
C  C202  1  0.96571407  0.12982986  0.34183000  1  0.414379  0.006593  0.097732  0.243854  0.00371  4.091685  0.005
C  C203  1  0.53428497  0.87016985  0.84183024  1  0.414365  0.006593  0.097707  0.243803  0.00371  4.091774  0.005
C  C204  1  0.96571405  0.34182952  0.37016968  1  0.414928  0.006593  0.097727  0.243823  0.00371  4.091753  0.005
C  C205  1  0.96571484  0.15817008  0.12982980  1  0.414365  0.006593  0.097682  0.243781  0.00371  4.091697  0.005
C  C206  1  0.53428569  0.65816969  0.87017047  1  0.414352  0.006593  0.097716  0.24382  0.00371  4.091651  0.005
C  C207  1  0.96571411  0.37016925  0.15816998  1  0.414936  0.006593  0.097709  0.243835  0.00371  4.091718  0.005
C  C208  1  0.55096032  0.40525926  0.34637273  1  0.030521  -0.007829  -0.075724  -0.186075  -0.008925  3.944522  -0.005
C  C209  1  0.55096103  0.15362686  0.40525881  1  0.030535  -0.007829  -0.075703  -0.18604  -0.008925  3.944478  -0.005
C  C210  1  0.94903947  0.90525940  0.65362650  1  0.03112  -0.007829  -0.075696  -0.186022  -0.008925  3.944535  -0.005
C  C211  1  0.55096038  0.09474035  0.15362686  1  0.030551  -0.007829  -0.075725  -0.186089  -0.008925  3.944498  -0.005
C  C212  1  0.94903878  0.65362652  0.59474048  1  0.031133  -0.00783  -0.075725  -0.186069  -0.008926  3.944521  -0.005
C  C213  1  0.94903941  0.84637284  0.90525945  1  0.030543  -0.007829  -0.075701  -0.186049  -0.008925  3.944533  -0.005
C  C214  1  0.55096183  0.34637374  0.09474078  1  0.031103  -0.007829  -0.075702  -0.186031  -0.008926  3.944523  -0.005
C  C215  1  0.94903943  0.59474045  0.84637293  1  0.030526  -0.007829  -0.075745  -0.186121  -0.008925  3.944504  -0.005
C  C216  1  0.44903873  0.59474097  0.65362611  1  0.031123  -0.00783  -0.075731  -0.186078  -0.008926  3.944513  -0.005
C  C217  1  0.44903873  0.84637337  0.59474101  1  0.031109  -0.00783  -0.075691  -0.186007  -0.008926  3.944454  -0.005
C  C218  1  0.05096030  0.09473985  0.34637332  1  0.031112  -0.007829  -0.075717  -0.186079  -0.008925  3.944486  -0.005
C  C219  1  0.44903866  0.90525890  0.84637394  1  0.031124  -0.007829  -0.075723  -0.186056  -0.008926  3.944585  -0.005
C  C220  1  0.05096027  0.34637273  0.40525934  1  0.030525  -0.007829  -0.075723  -0.186073  -0.008925  3.944517  -0.005
C  C221  1  0.05096180  0.15362641  0.09474086  1  0.031114  -0.00783  -0.075703  -0.186033  -0.008926  3.944456  -0.005
C  C222  1  0.44903866  0.65362600  0.90525953  1  0.031112  -0.00783  -0.075704  -0.186049  -0.008926  3.944476  -0.005
C  C223  1  0.05096033  0.40525929  0.15362689  1  0.030552  -0.007829  -0.075712  -0.186078  -0.008925  3.944496  -0.005
C  C224  1  0.53811554  0.15731601  0.59601035  1  1.60422  0.000527  0.212711  0.574818  1e-05  4.193714  0.0
C  C225  1  0.53811563  0.90398971  0.15731643  1  1.604177  0.000527  0.212714  0.574832  1e-05  4.193659  0.0
C  C226  1  0.96188499  0.65731620  0.40398943  1  1.604167  0.000527  0.2127  0.574772  1e-05  4.193812  0.0
C  C227  1  0.53811545  0.34268349  0.90398931  1  1.604175  0.000527  0.212697  0.57479  1e-05  4.19387  0.0
C  C228  1  0.96188416  0.40398943  0.84268378  1  1.604173  0.000527  0.21275  0.574792  1e-05  4.193759  0.0
C  C229  1  0.96188422  0.09601054  0.65731626  1  1.60418  0.000527  0.21274  0.574778  1e-05  4.193655  0.0
C  C230  1  0.53811559  0.59601028  0.34268353  1  1.604176  0.000527  0.212713  0.574825  1e-05  4.193672  0.0
C  C231  1  0.96188434  0.84268376  0.09601043  1  1.604217  0.000527  0.212736  0.574867  1e-05  4.193748  0.0
C  C232  1  0.46188494  0.84268373  0.40398996  1  1.604179  0.000527  0.212709  0.57482  1e-05  4.193693  0.0
C  C233  1  0.46188486  0.09601052  0.84268339  1  1.604209  0.000527  0.2127  0.574764  1e-05  4.193924  0.0
C  C234  1  0.03811550  0.34268353  0.59601039  1  1.604218  0.000527  0.212704  0.574823  1e-05  4.19371  0.0
C  C235  1  0.46188432  0.65731723  0.09601002  1  1.60416  0.000527  0.212725  0.57486  1e-05  4.193954  0.0
C  C236  1  0.03811560  0.59601031  0.15731653  1  1.60421  0.000527  0.212706  0.57483  1e-05  4.193754  0.0
C  C237  1  0.03811554  0.90398969  0.34268405  1  1.604225  0.000527  0.212716  0.574835  1e-05  4.193667  0.0
C  C238  1  0.46188489  0.40398946  0.65731629  1  1.604175  0.000527  0.21269  0.574739  1e-05  4.193721  0.0
C  C239  1  0.03811542  0.15731696  0.90398988  1  1.604171  0.000527  0.212662  0.574778  1e-05  4.193861  0.0
C  C240  1  0.44513135  0.18529292  0.56982582  1  0.01571  0.011936  -0.006947  -0.04221  0.007042  3.954298  0.009
C  C241  1  0.44513142  0.93017424  0.18529336  1  0.015753  0.011936  -0.006952  -0.04223  0.007042  3.954315  0.009
C  C242  1  0.05486839  0.68529313  0.43017408  1  0.015749  0.011936  -0.006957  -0.042198  0.007041  3.954329  0.009
C  C243  1  0.44513125  0.31470706  0.93017436  1  0.015756  0.011936  -0.006943  -0.042224  0.007042  3.954344  0.009
C  C244  1  0.05486829  0.43017399  0.81470697  1  0.015737  0.011936  -0.006983  -0.042236  0.007042  3.954338  0.009
C  C245  1  0.05486834  0.06982601  0.68529330  1  0.01574  0.011936  -0.006979  -0.042237  0.007041  3.954338  0.009
C  C246  1  0.44513140  0.56982574  0.31470663  1  0.015753  0.011936  -0.006952  -0.042221  0.007041  3.954315  0.009
C  C247  1  0.05486848  0.81470687  0.06982551  1  0.015716  0.011936  -0.006955  -0.04223  0.007042  3.954348  0.009
C  C248  1  0.55486914  0.81470682  0.43017450  1  0.015744  0.011936  -0.006917  -0.042144  0.007041  3.954259  0.009
C  C249  1  0.55486835  0.06982550  0.81470695  1  0.015699  0.011936  -0.006941  -0.042212  0.007041  3.95438  0.009
C  C250  1  0.94513138  0.31470710  0.56982574  1  0.015711  0.011936  -0.006943  -0.042215  0.007042  3.95431  0.009
C  C251  1  0.55486780  0.68529366  0.06982546  1  0.015776  0.011936  -0.006976  -0.042265  0.007041  3.95444  0.009
C  C252  1  0.94513219  0.56982526  0.18529334  1  0.015709  0.011936  -0.006976  -0.042297  0.007042  3.954428  0.009
C  C253  1  0.94513142  0.93017471  0.31470701  1  0.015713  0.011936  -0.006915  -0.042199  0.007041  3.954309  0.009
C  C254  1  0.55486837  0.43017400  0.68529319  1  0.015741  0.011936  -0.006948  -0.042178  0.007041  3.954306  0.009
C  C255  1  0.94513201  0.18529385  0.93017480  1  0.015781  0.011936  -0.006944  -0.042171  0.007041  3.954371  0.009
C  C256  1  0.43532469  0.25300161  0.56241952  1  0.451541  -0.003947  0.048967  0.055059  -0.004835  3.893161  -0.003
C  C257  1  0.43532474  0.93758052  0.25300156  1  0.451539  -0.003947  0.048937  0.055015  -0.004834  3.89321  -0.003
C  C258  1  0.06467576  0.75300132  0.43758036  1  0.451533  -0.003947  0.048957  0.055043  -0.004834  3.893166  -0.003
C  C259  1  0.43532459  0.24699838  0.93758065  1  0.451547  -0.003947  0.048935  0.055017  -0.004835  3.893217  -0.003
C  C260  1  0.06467569  0.43758029  0.74699877  1  0.451537  -0.003947  0.048961  0.055055  -0.004834  3.893159  -0.003
C  C261  1  0.06467498  0.06241971  0.75300150  1  0.451526  -0.003947  0.048974  0.055074  -0.004834  3.893199  -0.003
C  C262  1  0.43532476  0.56241946  0.24699843  1  0.451534  -0.003947  0.048925  0.054967  -0.004834  3.893243  -0.003
C  C263  1  0.06467586  0.74699868  0.06241923  1  0.451598  -0.003947  0.048948  0.055031  -0.004834  3.893174  -0.003
C  C264  1  0.56467508  0.74699862  0.43758079  1  0.451597  -0.003947  0.048935  0.05502  -0.004835  3.893146  -0.003
C  C265  1  0.56467502  0.06241922  0.74699875  1  0.45153  -0.003947  0.048935  0.055025  -0.004834  3.893187  -0.003
C  C266  1  0.93532473  0.24699842  0.56241946  1  0.451552  -0.003947  0.048951  0.055018  -0.004834  3.893183  -0.003
C  C267  1  0.56467518  0.75300185  0.06241868  1  0.45129  -0.003947  0.048961  0.055026  -0.004835  3.893125  -0.003
C  C268  1  0.93532552  0.56241896  0.25300154  1  0.451588  -0.003947  0.048958  0.055022  -0.004835  3.89328  -0.003
C  C269  1  0.93532478  0.93758052  0.24699881  1  0.451537  -0.003947  0.048941  0.055056  -0.004834  3.893181  -0.003
C  C270  1  0.56467572  0.43758028  0.75300139  1  0.451532  -0.003947  0.048957  0.055038  -0.004834  3.893165  -0.003
C  C271  1  0.93532463  0.25300155  0.93758108  1  0.451286  -0.003947  0.048964  0.055006  -0.004835  3.89315  -0.003
C  C272  1  0.27939755  0.24269841  0.52317802  1  0.570564  -0.00535  0.042074  -0.026531  -0.006081  3.92487  -0.004
C  C273  1  0.27939831  0.97682204  0.24269837  1  0.570285  -0.005351  0.042078  -0.026557  -0.006081  3.924892  -0.004
C  C274  1  0.22060218  0.74269860  0.47682186  1  0.570162  -0.005351  0.042122  -0.026482  -0.006081  3.924802  -0.004
C  C275  1  0.27939743  0.25730159  0.97682170  1  0.570436  -0.00535  0.042084  -0.026523  -0.006081  3.924817  -0.004
C  C276  1  0.22060211  0.47682180  0.75730146  1  0.570277  -0.005351  0.042127  -0.02648  -0.006081  3.924781  -0.004
C  C277  1  0.22060142  0.02317820  0.74269877  1  0.570444  -0.00535  0.042145  -0.026395  -0.006081  3.924816  -0.004
C  C278  1  0.27939833  0.52317795  0.25730117  1  0.570165  -0.005351  0.042126  -0.026487  -0.006081  3.924782  -0.004
C  C279  1  0.22060230  0.75730140  0.02317818  1  0.570273  -0.005351  0.042116  -0.026503  -0.006081  3.92477  -0.004
C  C280  1  0.72060222  0.75730133  0.47682180  1  0.57043  -0.00535  0.042136  -0.026457  -0.006081  3.924831  -0.004
C  C281  1  0.72060217  0.02317819  0.75730145  1  0.570572  -0.00535  0.04211  -0.026521  -0.006081  3.924817  -0.004
C  C282  1  0.77939759  0.25730114  0.52317796  1  0.570282  -0.005351  0.042107  -0.026524  -0.006081  3.924782  -0.004
C  C283  1  0.72060306  0.74269913  0.02317812  1  0.57024  -0.005351  0.042106  -0.026476  -0.006081  3.92484  -0.004
C  C284  1  0.77939837  0.52317843  0.24269934  1  0.570142  -0.005351  0.042129  -0.026443  -0.006081  3.924827  -0.004
C  C285  1  0.77939763  0.97682203  0.25730154  1  0.570562  -0.00535  0.042072  -0.026532  -0.006081  3.924895  -0.004
C  C286  1  0.72060216  0.47682179  0.74269865  1  0.570164  -0.005351  0.042124  -0.026479  -0.006081  3.92479  -0.004
C  C287  1  0.77939675  0.24269932  0.97682164  1  0.570081  -0.005352  0.042102  -0.026451  -0.006082  3.924833  -0.004
C  C288  1  0.28624524  0.17496227  0.52837278  1  0.400052  0.005953  0.104183  0.248974  0.003367  4.062822  0.005
C  C289  1  0.28624530  0.97162730  0.17496222  1  0.400051  0.005953  0.104182  0.248979  0.003367  4.062819  0.005
C  C290  1  0.21375449  0.67496197  0.47162712  1  0.400068  0.005953  0.104122  0.248888  0.003367  4.062824  0.005
C  C291  1  0.28624512  0.32503772  0.97162694  1  0.400049  0.005953  0.104183  0.248987  0.003367  4.062812  0.005
C  C292  1  0.21375441  0.47162704  0.82503810  1  0.400068  0.005953  0.104129  0.248895  0.003367  4.062815  0.005
C  C293  1  0.21375446  0.02837296  0.67496262  1  0.400064  0.005953  0.104138  0.248899  0.003367  4.062783  0.005
C  C294  1  0.28624600  0.52837269  0.32503781  1  0.400059  0.005953  0.104129  0.248886  0.003367  4.062807  0.005
C  C295  1  0.21375461  0.82503802  0.02837292  1  0.400068  0.005953  0.10414  0.248912  0.003367  4.062754  0.005
C  C296  1  0.71375596  0.82503747  0.47162655  1  0.400064  0.005953  0.104142  0.24891  0.003367  4.06282  0.005
C  C297  1  0.71375446  0.02837293  0.82503760  1  0.400066  0.005953  0.104129  0.248899  0.003367  4.062812  0.005
C  C298  1  0.78624527  0.32503777  0.52837269  1  0.400065  0.005953  0.104144  0.248919  0.003367  4.062744  0.005
C  C299  1  0.71375537  0.67496300  0.02837386  1  0.400079  0.005953  0.104181  0.248953  0.003367  4.062767  0.005
C  C300  1  0.78624464  0.52837368  0.17496319  1  0.400104  0.005953  0.104167  0.248904  0.003367  4.062785  0.005
C  C301  1  0.78624458  0.97162629  0.32503769  1  0.400058  0.005953  0.104211  0.249  0.003367  4.062779  0.005
C  C302  1  0.71375448  0.47162705  0.67496201  1  0.400074  0.005953  0.104134  0.248901  0.003367  4.062805  0.005
C  C303  1  0.78624516  0.17496270  0.97162641  1  0.400075  0.005953  0.104168  0.248909  0.003367  4.062782  0.005
C  C304  1  0.36827299  0.14460075  0.55209427  1  0.105513  -0.007876  -0.069046  -0.171681  -0.008888  3.914545  -0.005
C  C305  1  0.36827306  0.94790581  0.14460069  1  0.10552  -0.007877  -0.069039  -0.171658  -0.008889  3.914526  -0.005
C  C306  1  0.13172675  0.64460046  0.44790564  1  0.105508  -0.007877  -0.069037  -0.171688  -0.008889  3.91457  -0.005
C  C307  1  0.36827287  0.35539924  0.94790592  1  0.105572  -0.007876  -0.069051  -0.171681  -0.008889  3.914549  -0.005
C  C308  1  0.13172665  0.44790554  0.85539914  1  0.105511  -0.007876  -0.069041  -0.171675  -0.008888  3.9146  -0.005
C  C309  1  0.13172672  0.05209446  0.64460111  1  0.105583  -0.007876  -0.069041  -0.171676  -0.008888  3.914548  -0.005
C  C310  1  0.36827302  0.55209418  0.35539931  1  0.105566  -0.007876  -0.069041  -0.171653  -0.008888  3.914554  -0.005
C  C311  1  0.13172685  0.85539954  0.05209443  1  0.105563  -0.007876  -0.069052  -0.171705  -0.008888  3.914548  -0.005
C  C312  1  0.63172750  0.85539899  0.44790555  1  0.105583  -0.007876  -0.069065  -0.171718  -0.008888  3.914593  -0.005
C  C313  1  0.63172670  0.05209442  0.85539913  1  0.105573  -0.007876  -0.06903  -0.171649  -0.008889  3.914574  -0.005
C  C314  1  0.86827302  0.35539928  0.55209418  1  0.105575  -0.007876  -0.069046  -0.17167  -0.008888  3.914537  -0.005
C  C315  1  0.63172689  0.64460197  0.05209488  1  0.105492  -0.007877  -0.069029  -0.171622  -0.008889  3.914572  -0.005
C  C316  1  0.86827312  0.55209420  0.14460117  1  0.105594  -0.007877  -0.069034  -0.171617  -0.008889  3.914534  -0.005
C  C317  1  0.86827233  0.94790577  0.35539921  1  0.105515  -0.007876  -0.069046  -0.171644  -0.008888  3.914531  -0.005
C  C318  1  0.63172674  0.44790556  0.64460051  1  0.105511  -0.007876  -0.069035  -0.171666  -0.008888  3.914572  -0.005
C  C319  1  0.86827292  0.14460168  0.94790539  1  0.105478  -0.007877  -0.069043  -0.171664  -0.008889  3.914598  -0.005
N  N320  1  0.42982456  0.38657807  0.45425983  1  -1.206908  0.075978  -0.318526  -0.183916  0.043863  3.599151  0.068
N  N321  1  0.42982459  0.04574028  0.38657814  1  -1.206886  0.075979  -0.318518  -0.183928  0.043863  3.599156  0.068
N  N322  1  0.07017516  0.88657825  0.54574002  1  -1.206904  0.075979  -0.318527  -0.183951  0.043863  3.599186  0.068
N  N323  1  0.42982468  0.11342204  0.04574028  1  -1.206903  0.075979  -0.318538  -0.183958  0.043863  3.599188  0.068
N  N324  1  0.07017516  0.54573996  0.61342130  1  -1.206897  0.075979  -0.318549  -0.183991  0.043863  3.599172  0.068
N  N325  1  0.07017579  0.95425992  0.88657836  1  -1.206886  0.075979  -0.318473  -0.183885  0.043863  3.599184  0.068
N  N326  1  0.42982465  0.45425983  0.11342148  1  -1.20688  0.075979  -0.318519  -0.183913  0.043863  3.599237  0.068
N  N327  1  0.07017506  0.61342163  0.95426013  1  -1.206883  0.075978  -0.318549  -0.184033  0.043862  3.599251  0.068
N  N328  1  0.57017521  0.61342118  0.54574048  1  -1.206873  0.075979  -0.318545  -0.183983  0.043863  3.599206  0.068
N  N329  1  0.57017518  0.95425995  0.61342168  1  -1.206887  0.075979  -0.318533  -0.183972  0.043863  3.599243  0.068
N  N330  1  0.92982461  0.11342149  0.45425980  1  -1.206891  0.075979  -0.318543  -0.183982  0.043863  3.599185  0.068
N  N331  1  0.57017509  0.88657868  0.95426003  1  -1.206894  0.07598  -0.318554  -0.183991  0.043863  3.599233  0.068
N  N332  1  0.92982461  0.45425978  0.38657803  1  -1.206883  0.075979  -0.318516  -0.183918  0.043863  3.599156  0.068
N  N333  1  0.92982470  0.04574031  0.11342146  1  -1.206872  0.075979  -0.31851  -0.183879  0.043863  3.599222  0.068
N  N334  1  0.57017512  0.54573991  0.88657883  1  -1.206894  0.075979  -0.318551  -0.183984  0.043863  3.599221  0.068
N  N335  1  0.92982470  0.38657811  0.04574018  1  -1.20689  0.07598  -0.318529  -0.183948  0.043863  3.59918  0.068
N  N336  1  0.35396568  0.28103441  0.54022223  1  -1.204424  0.07902  -0.319754  -0.197672  0.04576  3.604647  0.071
N  N337  1  0.35396572  0.95977782  0.28103487  1  -1.204164  0.07902  -0.319772  -0.197676  0.045759  3.604655  0.071
N  N338  1  0.14603405  0.78103461  0.45977765  1  -1.204015  0.07902  -0.319781  -0.19769  0.045759  3.604643  0.071
N  N339  1  0.35396629  0.21896558  0.95977796  1  -1.204317  0.079019  -0.319751  -0.197661  0.04576  3.604635  0.071
N  N340  1  0.14603399  0.45977758  0.71896546  1  -1.204139  0.07902  -0.31977  -0.197667  0.04576  3.604606  0.071
N  N341  1  0.14603327  0.04022242  0.78103430  1  -1.204336  0.079019  -0.319782  -0.197719  0.04576  3.60471  0.071
N  N342  1  0.35396647  0.54022217  0.21896514  1  -1.204048  0.079019  -0.319764  -0.197632  0.045759  3.604633  0.071
N  N343  1  0.14603416  0.71896539  0.04022242  1  -1.204147  0.07902  -0.319759  -0.197637  0.04576  3.604603  0.071
N  N344  1  0.64603409  0.71896533  0.45977808  1  -1.204318  0.079019  -0.319762  -0.197666  0.045759  3.60459  0.071
N  N345  1  0.64603405  0.04022192  0.71896544  1  -1.204432  0.07902  -0.319764  -0.197657  0.04576  3.604612  0.071
N  N346  1  0.85396572  0.21896513  0.54022217  1  -1.204169  0.07902  -0.319758  -0.197629  0.04576  3.604609  0.071
N  N347  1  0.64603492  0.78103563  0.04022186  1  -1.204179  0.07902  -0.319771  -0.197672  0.04576  3.604559  0.071
N  N348  1  0.85396721  0.54022216  0.28103534  1  -1.204051  0.07902  -0.319799  -0.197708  0.04576  3.604671  0.071
N  N349  1  0.85396577  0.95977781  0.21896552  1  -1.204439  0.079019  -0.31975  -0.197674  0.04576  3.604644  0.071
N  N350  1  0.64603401  0.45977757  0.78103468  1  -1.204042  0.079019  -0.319779  -0.197686  0.045759  3.604642  0.071
N  N351  1  0.85396560  0.28103582  0.95977838  1  -1.204009  0.07902  -0.319761  -0.197677  0.04576  3.604571  0.071
O  O352  1  0.65135952  0.51541227  0.46670198  1  -1.149665  0.046604  -0.303966  -0.537248  0.025619  2.384869  0.041
O  O353  1  0.65135880  0.03329856  0.51541284  1  -1.14962  0.046605  -0.303955  -0.537227  0.02562  2.384887  0.041
O  O354  1  0.84864030  0.01541257  0.53329783  1  -1.150056  0.046603  -0.30397  -0.537241  0.025619  2.38489  0.041
O  O355  1  0.65135890  0.98458770  0.03329795  1  -1.150041  0.046604  -0.303974  -0.537243  0.02562  2.384825  0.041
O  O356  1  0.84864030  0.53329826  0.48458697  1  -1.150008  0.046604  -0.303964  -0.53723  0.02562  2.384915  0.041
O  O357  1  0.84864112  0.96670171  0.01541243  1  -1.149667  0.046605  -0.303969  -0.537219  0.02562  2.384851  0.041
O  O358  1  0.65135938  0.46670191  0.98458679  1  -1.150021  0.046604  -0.303983  -0.537262  0.02562  2.38488  0.041
O  O359  1  0.84864089  0.48458740  0.96670224  1  -1.149683  0.046605  -0.30398  -0.537255  0.02562  2.38486  0.041
O  O360  1  0.34864097  0.48458648  0.53329833  1  -1.149638  0.046605  -0.303983  -0.53726  0.02562  2.384882  0.041
O  O361  1  0.34864024  0.96670167  0.48458747  1  -1.150039  0.046604  -0.303957  -0.537226  0.02562  2.384892  0.041
O  O362  1  0.15135874  0.98458717  0.46670199  1  -1.14968  0.046605  -0.303991  -0.537281  0.02562  2.384855  0.041
O  O363  1  0.34864087  0.01541351  0.96670187  1  -1.14964  0.046606  -0.303988  -0.537261  0.025621  2.384876  0.041
O  O364  1  0.15135947  0.46670197  0.51541187  1  -1.150044  0.046602  -0.303963  -0.537225  0.025619  2.384865  0.041
O  O365  1  0.15135936  0.03329852  0.98458641  1  -1.150011  0.046604  -0.303986  -0.537253  0.02562  2.384927  0.041
O  O366  1  0.34864110  0.53329832  0.01541352  1  -1.149635  0.046606  -0.303975  -0.537249  0.025621  2.384868  0.041
O  O367  1  0.15135960  0.51541234  0.03329807  1  -1.150044  0.046603  -0.303963  -0.537245  0.025619  2.384883  0.041
O  O368  1  0.72409908  0.47564228  0.37477663  1  -1.154416  0.083451  -0.306472  -0.544145  0.04631  2.367369  0.077
O  O369  1  0.72409979  0.12522292  0.47564281  1  -1.154455  0.083449  -0.306467  -0.544164  0.046309  2.36742  0.077
O  O370  1  0.77590142  0.97564194  0.62522357  1  -1.154413  0.083451  -0.306453  -0.544162  0.04631  2.367357  0.077
O  O371  1  0.72409917  0.02435782  0.12522292  1  -1.154413  0.083449  -0.306465  -0.544134  0.046309  2.367382  0.077
O  O372  1  0.77590002  0.62522310  0.52435698  1  -1.15445  0.083449  -0.30647  -0.54418  0.046309  2.36743  0.077
O  O373  1  0.77590133  0.87477676  0.97564201  1  -1.15442  0.083449  -0.30647  -0.544158  0.046309  2.367389  0.077
O  O374  1  0.72409990  0.37477718  0.02435723  1  -1.154445  0.083451  -0.30646  -0.544156  0.04631  2.367417  0.077
O  O375  1  0.77590137  0.52435742  0.87477689  1  -1.154407  0.083449  -0.306462  -0.544154  0.046309  2.3674  0.077
O  O376  1  0.27590068  0.52435697  0.62522270  1  -1.154432  0.083448  -0.306454  -0.544151  0.046309  2.367401  0.077
O  O377  1  0.27590069  0.87477682  0.52435750  1  -1.154456  0.083449  -0.306475  -0.544146  0.046309  2.367354  0.077
O  O378  1  0.22409907  0.02435731  0.37477723  1  -1.154403  0.083449  -0.306449  -0.544138  0.046309  2.367402  0.077
O  O379  1  0.27590060  0.97564290  0.87477739  1  -1.154444  0.083449  -0.306465  -0.544147  0.046309  2.367421  0.077
O  O380  1  0.22409902  0.37477664  0.47564186  1  -1.154407  0.083452  -0.306473  -0.544136  0.046311  2.367353  0.077
O  O381  1  0.22409988  0.12522298  0.02435732  1  -1.154418  0.083449  -0.306462  -0.544148  0.046309  2.367412  0.077
O  O382  1  0.27590058  0.62522305  0.97564308  1  -1.154436  0.083448  -0.306462  -0.544164  0.046309  2.367389  0.077
O  O383  1  0.22409911  0.47564232  0.12522342  1  -1.154408  0.083452  -0.306473  -0.544142  0.046311  2.367344  0.077
O  O384  1  0.60853033  0.19590842  0.60396473  1  -1.173777  0.001621  -0.315981  -0.535275  0.00023  2.150407  0.001
O  O385  1  0.60853041  0.89603482  0.19590884  1  -1.173792  0.001621  -0.31599  -0.535298  0.00023  2.150364  0.001
O  O386  1  0.89146948  0.69590862  0.39603504  1  -1.17378  0.001621  -0.31595  -0.535244  0.00023  2.150382  0.001
O  O387  1  0.60853025  0.30409157  0.89603491  1  -1.173787  0.001621  -0.315962  -0.535255  0.00023  2.150565  0.001
O  O388  1  0.89146938  0.39603505  0.80409137  1  -1.173792  0.00162  -0.315953  -0.535223  0.00023  2.150387  0.001
O  O389  1  0.89146942  0.10396493  0.69590869  1  -1.173788  0.00162  -0.315952  -0.535226  0.00023  2.150387  0.001
O  O390  1  0.60853039  0.60396516  0.30409110  1  -1.173793  0.00162  -0.315991  -0.535299  0.00023  2.150367  0.001
O  O391  1  0.89146955  0.80409135  0.10396484  1  -1.17379  0.001621  -0.315981  -0.53529  0.00023  2.150357  0.001
O  O392  1  0.39147016  0.80409132  0.39603509  1  -1.173773  0.00162  -0.315974  -0.535291  0.00023  2.150392  0.001
O  O393  1  0.39146936  0.10396492  0.80409147  1  -1.173786  0.00162  -0.315918  -0.535199  0.000229  2.150516  0.001
O  O394  1  0.10853029  0.30409112  0.60396527  1  -1.173793  0.00162  -0.316001  -0.535332  0.00023  2.150395  0.001
O  O395  1  0.39146952  0.69590915  0.10396491  1  -1.173821  0.001621  -0.315963  -0.535271  0.00023  2.150517  0.001
O  O396  1  0.10853110  0.60396518  0.19590845  1  -1.173793  0.00162  -0.315949  -0.535224  0.00023  2.150523  0.001
O  O397  1  0.10853034  0.89603530  0.30409113  1  -1.173783  0.001621  -0.315978  -0.535277  0.00023  2.150347  0.001
O  O398  1  0.39146937  0.39603507  0.69590872  1  -1.173783  0.00162  -0.315956  -0.535252  0.000229  2.150388  0.001
O  O399  1  0.10853093  0.19590937  0.89603498  1  -1.173817  0.001621  -0.315952  -0.535273  0.00023  2.150505  0.001
O  O400  1  0.53751152  0.09571542  0.60721515  1  -1.151794  0.065719  -0.306438  -0.549624  0.036737  2.383588  0.06
O  O401  1  0.53751163  0.89278542  0.09571534  1  -1.15175  0.065719  -0.306426  -0.549603  0.036737  2.38357  0.06
O  O402  1  0.96248829  0.59571562  0.39278514  1  -1.151784  0.065718  -0.306426  -0.549585  0.036736  2.383684  0.06
O  O403  1  0.53751143  0.40428457  0.89278500  1  -1.151781  0.06572  -0.306429  -0.549607  0.036737  2.383548  0.06
O  O404  1  0.96248816  0.39278562  0.90428438  1  -1.151756  0.065718  -0.306449  -0.5496  0.036736  2.383647  0.06
O  O405  1  0.96248826  0.10721484  0.59571517  1  -1.151788  0.065718  -0.306451  -0.549607  0.036737  2.383554  0.06
O  O406  1  0.53751156  0.60721456  0.40428462  1  -1.151779  0.065718  -0.306423  -0.5496  0.036736  2.383566  0.06
O  O407  1  0.96248836  0.90428435  0.10721472  1  -1.151783  0.065718  -0.306436  -0.549614  0.036737  2.383681  0.06
O  O408  1  0.46248824  0.90428481  0.39278516  1  -1.151783  0.065719  -0.306433  -0.549606  0.036737  2.38357  0.06
O  O409  1  0.46248814  0.10721481  0.90428448  1  -1.151777  0.065719  -0.306455  -0.549606  0.036737  2.383648  0.06
O  O410  1  0.03751219  0.40428461  0.60721468  1  -1.15178  0.065719  -0.306419  -0.549583  0.036737  2.383565  0.06
O  O411  1  0.46248833  0.59571664  0.10721433  1  -1.151737  0.065718  -0.306433  -0.549628  0.036736  2.383727  0.06
O  O412  1  0.03751232  0.60721461  0.09571544  1  -1.151773  0.065719  -0.306444  -0.54963  0.036737  2.383508  0.06
O  O413  1  0.03751151  0.89278490  0.40428465  1  -1.151793  0.065718  -0.306444  -0.549636  0.036737  2.383593  0.06
O  O414  1  0.46248821  0.39278518  0.59571520  1  -1.151784  0.065719  -0.306422  -0.549551  0.036737  2.383569  0.06
O  O415  1  0.03751141  0.09571637  0.89278559  1  -1.151748  0.065717  -0.306403  -0.549567  0.036736  2.383591  0.06
O  O416  1  0.24999984  0.38302909  0.61697074  1  -1.226271  0.118591  -0.551306  -0.762609  0.068105  2.414567  0.106
O  O417  1  0.24999988  0.88302931  0.38302911  1  -1.226267  0.118591  -0.551317  -0.762637  0.068105  2.414568  0.106
O  O418  1  0.24999978  0.11697090  0.88302948  1  -1.226269  0.118591  -0.551301  -0.762558  0.068106  2.414545  0.106
O  O419  1  0.24999996  0.61697069  0.11697044  1  -1.226268  0.118592  -0.551302  -0.762573  0.068106  2.414636  0.106
O  O420  1  0.74999993  0.61697065  0.38302908  1  -1.226268  0.118591  -0.551312  -0.762609  0.068105  2.414557  0.106
O  O421  1  0.74999989  0.11697092  0.61697071  1  -1.226265  0.118591  -0.551314  -0.762623  0.068105  2.414559  0.106
O  O422  1  0.74999999  0.88302933  0.11697083  1  -1.226261  0.118591  -0.551312  -0.762595  0.068105  2.414566  0.106
O  O423  1  0.75000052  0.38302905  0.88302938  1  -1.226267  0.118591  -0.551326  -0.762618  0.068105  2.414565  0.106
F  F424  1  0.43846853  0.34462743  0.28313077  1  -0.631047  0.00207  -0.099222  -0.146312  0.001099  1.386318  0.002
F  F425  1  0.43846924  0.21686883  0.34462794  1  -0.631069  0.00207  -0.099194  -0.146292  0.001099  1.386327  0.002
F  F426  1  0.06153119  0.84462806  0.71686909  1  -0.631033  0.00207  -0.099198  -0.146297  0.001099  1.386307  0.002
F  F427  1  0.43846927  0.15537268  0.21686885  1  -0.631034  0.00207  -0.099201  -0.146283  0.001099  1.386323  0.002
F  F428  1  0.06153050  0.71686849  0.65537146  1  -0.631017  0.00207  -0.099198  -0.146302  0.001099  1.38637  0.002
F  F429  1  0.06153116  0.78313090  0.84462771  1  -0.631074  0.00207  -0.099214  -0.146321  0.001099  1.386318  0.002
F  F430  1  0.43847000  0.28313128  0.15537167  1  -0.63102  0.00207  -0.099176  -0.146265  0.001099  1.386323  0.002
F  F431  1  0.06153118  0.65537231  0.78313106  1  -0.631041  0.00207  -0.099205  -0.146303  0.001099  1.386314  0.002
F  F432  1  0.56153052  0.65537182  0.71686856  1  -0.631021  0.00207  -0.099175  -0.146258  0.001099  1.386331  0.002
F  F433  1  0.56153053  0.78313091  0.65537188  1  -0.631063  0.00207  -0.099193  -0.14629  0.001099  1.386313  0.002
F  F434  1  0.93846857  0.15537168  0.28313073  1  -0.631037  0.00207  -0.099203  -0.146303  0.001099  1.386298  0.002
F  F435  1  0.56152977  0.84462804  0.78313146  1  -0.631015  0.00207  -0.099168  -0.146257  0.001099  1.386328  0.002
F  F436  1  0.93846855  0.28313076  0.34462738  1  -0.631082  0.00207  -0.099225  -0.146313  0.001099  1.386324  0.002
F  F437  1  0.93847004  0.21686884  0.15537162  1  -0.631024  0.00207  -0.09918  -0.146271  0.001099  1.386327  0.002
F  F438  1  0.56153048  0.71686895  0.84462913  1  -0.631013  0.00207  -0.099192  -0.146285  0.001099  1.386327  0.002
F  F439  1  0.93846858  0.34462743  0.21686925  1  -0.631044  0.00207  -0.099208  -0.146298  0.001099  1.386326  0.002
F  F440  1  0.20896982  0.13839609  0.50989163  1  -0.639812  0.001797  -0.087843  -0.129582  0.000918  1.36873  0.001
F  F441  1  0.20896989  0.99010846  0.13839603  1  -0.639807  0.001797  -0.087842  -0.129583  0.000918  1.368734  0.001
F  F442  1  0.29103063  0.63839578  0.49010877  1  -0.63982  0.001797  -0.087847  -0.129586  0.000918  1.368736  0.001
F  F443  1  0.20896968  0.36160391  0.99010860  1  -0.63981  0.001797  -0.087846  -0.129595  0.000918  1.368722  0.001
F  F444  1  0.29103054  0.49010819  0.86160428  1  -0.639818  0.001797  -0.087854  -0.129591  0.000918  1.368742  0.001
F  F445  1  0.29102990  0.00989131  0.63839593  1  -0.639804  0.001797  -0.087853  -0.1296  0.000918  1.368702  0.001
F  F446  1  0.20896985  0.50989153  0.36160401  1  -0.639801  0.001797  -0.087842  -0.129575  0.000918  1.368738  0.001
F  F447  1  0.29103075  0.86160421  0.00989126  1  -0.639825  0.001797  -0.087848  -0.129588  0.000918  1.368734  0.001
F  F448  1  0.79103210  0.86160414  0.49010672  1  -0.639824  0.001797  -0.087864  -0.129603  0.000918  1.368717  0.001
F  F449  1  0.79103060  0.00989177  0.86160428  1  -0.639818  0.001797  -0.08785  -0.129585  0.000918  1.368736  0.001
F  F450  1  0.70896985  0.36160396  0.50989154  1  -0.639806  0.001797  -0.087845  -0.129581  0.000918  1.36874  0.001
F  F451  1  0.79103224  0.63839583  0.00989367  1  -0.639821  0.001797  -0.087889  -0.129653  0.000918  1.368689  0.001
F  F452  1  0.70896779  0.50989302  0.13839701  1  -0.639832  0.001797  -0.087864  -0.129611  0.000918  1.368696  0.001
F  F453  1  0.70896843  0.99010696  0.36160438  1  -0.639831  0.001797  -0.087871  -0.12962  0.000918  1.368696  0.001
F  F454  1  0.79103064  0.49010821  0.63839581  1  -0.639818  0.001797  -0.087852  -0.12959  0.000918  1.368747  0.001
F  F455  1  0.70896829  0.13839602  0.99010660  1  -0.63981  0.001797  -0.087873  -0.129615  0.000918  1.368681  0.001
