# generated using pymatgen
data_CdPH20C16N7(ClO)2
_symmetry_space_group_name_H-M   'P 1'
_cell_length_a   13.93164109
_cell_length_b   14.21905488
_cell_length_c   26.40594239
_cell_angle_alpha   90.00002316
_cell_angle_beta   89.99961731
_cell_angle_gamma   91.38498524
_symmetry_Int_Tables_number   1
_chemical_formula_structural   CdPH20C16N7(ClO)2
_chemical_formula_sum   'Cd8 P8 H160 C128 N56 Cl16 O16'
_cell_volume   5229.35090369
_cell_formula_units_Z   8
loop_
 _symmetry_equiv_pos_site_id
 _symmetry_equiv_pos_as_xyz
  1  'x, y, z'
loop_
 _atom_site_type_symbol
 _atom_site_label
 _atom_site_symmetry_multiplicity
 _atom_site_fract_x
 _atom_site_fract_y
 _atom_site_fract_z
 _atom_site_occupancy
 _atom_site_pbe_bader_charge
 _atom_site_pbe_bader_spin_density
 _atom_site_pbe_cm5_charge
 _atom_site_pbe_ddec_charge
 _atom_site_pbe_ddec_spin_density
 _atom_site_pbe_ddec_sum_bond_order
 _atom_site_pbe_magmom
Cd  Cd0  1  0.87479075  0.99496066  0.03210485  1  1.145787  0  0.582505  0.754737  0  2.411114  0
Cd  Cd1  1  0.62135474  0.99784648  0.97364003  1  1.136064  0  0.585729  0.745723  0  2.468833  0
Cd  Cd2  1  0.12521342  0.50502335  0.53210584  1  1.14605  0  0.582477  0.754683  0  2.411159  0
Cd  Cd3  1  0.37864019  0.50213881  0.47364045  1  1.136077  0  0.585755  0.745788  0  2.468689  0
Cd  Cd4  1  0.12520722  0.00502615  0.96789549  1  1.146092  0  0.582474  0.7547  0  2.411167  0
Cd  Cd5  1  0.37863710  0.00214818  0.02635917  1  1.136067  0  0.585751  0.745735  0  2.468736  0
Cd  Cd6  1  0.87479633  0.49497028  0.46789488  1  1.146148  0  0.582472  0.754741  0  2.410985  0
Cd  Cd7  1  0.62136240  0.49783876  0.52636178  1  1.13607  0  0.58572  0.74569  0  2.468867  0
P  P8  1  0.10315908  0.29426591  0.24493575  1  3.468656  0  0.525871  1.233473  0  5.291245  0
P  P9  1  0.66700254  0.74876392  0.26458180  1  3.458555  0  0.522714  1.235109  0  5.287267  0
P  P10  1  0.89684116  0.20573595  0.74494286  1  3.468349  0  0.525945  1.233476  0  5.291151  0
P  P11  1  0.33299021  0.75123000  0.76458144  1  3.458126  0  0.522904  1.235417  0  5.28684  0
P  P12  1  0.89683251  0.70573932  0.75505815  1  3.468442  0  0.525935  1.233375  0  5.291331  0
P  P13  1  0.33299149  0.25123141  0.73542195  1  3.45778  0  0.522693  1.235045  0  5.287343  0
P  P14  1  0.10315888  0.79426561  0.25506050  1  3.468574  0  0.52591  1.233643  0  5.291026  0
P  P15  1  0.66700256  0.24876958  0.23541890  1  3.458375  0  0.522856  1.235311  0  5.286981  0
H  H16  1  0.36930002  0.93906993  0.20792566  1  0.037355  0  0.09212  0.095878  0  1.045812  0
H  H17  1  0.34175262  0.84530890  0.25076450  1  0.084501  0  0.093152  0.114635  0  1.033113  0
H  H18  1  0.43559447  0.83323431  0.20536122  1  0.088025  0  0.104722  0.1298  0  1.007804  0
H  H19  1  0.38669427  0.04236072  0.27110392  1  0.04027  0  0.106202  0.119518  0  0.979998  0
H  H20  1  0.50791370  0.05887535  0.29248513  1  0.102824  0  0.103504  0.12095  0  1.005288  0
H  H21  1  0.42290756  0.99630086  0.33077925  1  0.018449  0  0.097412  0.104757  0  1.015156  0
H  H22  1  0.68483366  0.87522578  0.06815844  1  0.132424  0  0.095691  0.079643  0  1.067348  0
H  H23  1  0.60632910  0.47010796  0.30798074  1  0.114828  0  0.112946  0.137507  0  1.003587  0
H  H24  1  0.25967776  0.53682479  0.37271670  1  0.100621  0  0.110326  0.080329  0  1.012254  0
H  H25  1  0.31196052  0.28582914  0.44455127  1  0.104325  0  0.115081  0.09175  0  0.987751  0
H  H26  1  0.86726299  0.20661882  0.20508859  1  0.099543  0  0.11005  0.133378  0  1.040236  0
H  H27  1  0.56037401  0.75890039  0.35191200  1  0.110567  0  0.111261  0.128712  0  1.038678  0
H  H28  1  0.21737919  0.19348953  0.37867436  1  0.084419  0  0.116531  0.13787  0  0.991345  0
H  H29  1  0.89854044  0.80325298  0.21075752  1  0.125635  0  0.111261  0.138887  0  1.033784  0
H  H30  1  0.49578379  0.42154704  0.37895313  1  0.108082  0  0.1069  0.082384  0  1.018641  0
H  H31  1  0.15240989  0.12816898  0.16158670  1  0.119077  0  0.112504  0.136889  0  1.001989  0
H  H32  1  0.08061380  0.05757115  0.08231804  1  0.155521  0  0.093354  0.076402  0  1.076838  0
H  H33  1  0.80678036  0.13327171  0.12445359  1  0.142654  0  0.104121  0.09065  0  1.025151  0
H  H34  1  0.16093988  0.45709519  0.30456790  1  0.112091  0  0.11284  0.134902  0  1.012459  0
H  H35  1  0.62204984  0.76977814  0.13718420  1  0.09382  0  0.117198  0.144862  0  0.975478  0
H  H36  1  0.95138744  0.90264670  0.13735587  1  0.08275  0  0.11127  0.087548  0  1.004184  0
H  H37  1  0.45737517  0.69706916  0.42180136  1  0.100709  0  0.111931  0.08772  0  1.001799  0
H  H38  1  0.39637493  0.34301936  0.12244293  1  0.01959  0  0.098765  0.105027  0  1.005961  0
H  H39  1  0.30175871  0.26786174  0.09848378  1  0.060739  0  0.092767  0.114729  0  1.012877  0
H  H40  1  0.32903078  0.26862386  0.16463028  1  0.084382  0  0.106  0.130208  0  1.011187  0
H  H41  1  0.32615830  0.46933143  0.08382753  1  0.02697  0  0.10365  0.108899  0  0.993943  0
H  H42  1  0.23017249  0.52565861  0.11641002  1  0.080541  0  0.102867  0.112107  0  1.029508  0
H  H43  1  0.20391676  0.43888587  0.06951108  1  0.051972  0  0.102816  0.115113  0  0.973607  0
H  H44  1  0.84857317  0.56498446  0.22370066  1  0.057093  0  0.103411  0.121438  0  1.002949  0
H  H45  1  0.91225119  0.50633300  0.27248430  1  0.031134  0  0.094821  0.107007  0  1.031945  0
H  H46  1  0.85085322  0.43942503  0.22558903  1  0.039398  0  0.096005  0.108859  0  1.040776  0
H  H47  1  0.92907557  0.62794056  0.16370715  1  0.038917  0  0.1012  0.112764  0  1.011262  0
H  H48  1  0.98568670  0.54559319  0.12272246  1  0.04291  0  0.096494  0.100624  0  1.008345  0
H  H49  1  0.05614937  0.61828474  0.16370564  1  0.081911  0  0.099376  0.115283  0  1.028766  0
H  H50  1  0.76746474  0.04810942  0.40506007  1  0.053735  0  0.104753  0.112147  0  0.995113  0
H  H51  1  0.65174586  0.99353744  0.41410503  1  0.052005  0  0.09824  0.106938  0  0.981186  0
H  H52  1  0.67679306  0.05694086  0.35739455  1  0.096242  0  0.104798  0.123417  0  1.010397  0
H  H53  1  0.86745692  0.93360306  0.40685220  1  0.061534  0  0.10549  0.111215  0  1.001785  0
H  H54  1  0.87525503  0.85638342  0.35386029  1  0.078167  0  0.103717  0.121145  0  1.020166  0
H  H55  1  0.80662714  0.82150321  0.40767743  1  0.070141  0  0.102392  0.119511  0  0.980186  0
H  H56  1  0.63070310  0.56093831  0.70792860  1  0.037253  0  0.092161  0.096004  0  1.045831  0
H  H57  1  0.65824264  0.65469935  0.75076934  1  0.084358  0  0.093117  0.11462  0  1.033138  0
H  H58  1  0.56440364  0.66677254  0.70536465  1  0.087971  0  0.104732  0.129784  0  1.007896  0
H  H59  1  0.61330522  0.45764333  0.77110610  1  0.040375  0  0.106198  0.119473  0  0.979971  0
H  H60  1  0.49208799  0.44112929  0.79249064  1  0.10278  0  0.103424  0.120808  0  1.00541  0
H  H61  1  0.57709507  0.50370540  0.83078183  1  0.018501  0  0.097388  0.10466  0  1.015177  0
H  H62  1  0.31518060  0.62476967  0.56815875  1  0.132436  0  0.095643  0.079537  0  1.067531  0
H  H63  1  0.39366922  0.02988032  0.80798313  1  0.114929  0  0.113004  0.137611  0  1.003595  0
H  H64  1  0.74029192  0.96316501  0.87270467  1  0.100549  0  0.110349  0.080356  0  1.012148  0
H  H65  1  0.68805225  0.21414743  0.94456361  1  0.104776  0  0.115083  0.091788  0  0.987614  0
H  H66  1  0.13273028  0.29339114  0.70509622  1  0.099292  0  0.110076  0.133386  0  1.040261  0
H  H67  1  0.43961557  0.74108562  0.85191684  1  0.110317  0  0.111285  0.128691  0  1.038718  0
H  H68  1  0.78265053  0.30649745  0.87869404  1  0.084474  0  0.116455  0.137916  0  0.991128  0
H  H69  1  0.10145161  0.69675062  0.71074812  1  0.125756  0  0.111153  0.138655  0  1.03359  0
H  H70  1  0.50421723  0.07844047  0.87895152  1  0.108322  0  0.106938  0.082418  0  1.01868  0
H  H71  1  0.84758428  0.37182911  0.66158852  1  0.119108  0  0.112502  0.136884  0  1.001967  0
H  H72  1  0.91938620  0.44241956  0.58231863  1  0.155654  0  0.093374  0.076444  0  1.076861  0
H  H73  1  0.19321870  0.36672871  0.62446032  1  0.142711  0  0.104117  0.090615  0  1.025092  0
H  H74  1  0.83904095  0.04290105  0.80456077  1  0.112309  0  0.112824  0.134846  0  1.012478  0
H  H75  1  0.37795651  0.73021880  0.63718486  1  0.093632  0  0.117177  0.144844  0  0.975516  0
H  H76  1  0.04861772  0.59735590  0.63734722  1  0.082825  0  0.111275  0.087612  0  1.004115  0
H  H77  1  0.54261657  0.80291958  0.92180662  1  0.100392  0  0.111913  0.087751  0  1.001692  0
H  H78  1  0.60362148  0.15698457  0.62245068  1  0.019467  0  0.098725  0.104958  0  1.005804  0
H  H79  1  0.69823994  0.23214285  0.59849144  1  0.060874  0  0.092776  0.114701  0  1.012836  0
H  H80  1  0.67096494  0.23137922  0.66463865  1  0.083969  0  0.105963  0.130152  0  1.011238  0
H  H81  1  0.67383575  0.03067210  0.58383952  1  0.027066  0  0.103696  0.109002  0  0.993992  0
H  H82  1  0.76982116  0.97434428  0.61641802  1  0.08032  0  0.102865  0.11212  0  1.029592  0
H  H83  1  0.79607552  0.06111586  0.56951659  1  0.051814  0  0.102794  0.115105  0  0.973507  0
H  H84  1  0.15142407  0.93501592  0.72370143  1  0.057111  0  0.10343  0.12143  0  1.002986  0
H  H85  1  0.08774970  0.99367227  0.77248484  1  0.031072  0  0.094822  0.107047  0  1.031898  0
H  H86  1  0.14915050  0.06057619  0.72558807  1  0.039261  0  0.095973  0.108833  0  1.040778  0
H  H87  1  0.07092630  0.87207202  0.66370187  1  0.038755  0  0.10123  0.11276  0  1.011392  0
H  H88  1  0.01431232  0.95442246  0.62272206  1  0.042647  0  0.096506  0.100723  0  1.008303  0
H  H89  1  0.94385157  0.88172294  0.66370263  1  0.082197  0  0.099363  0.115294  0  1.028791  0
H  H90  1  0.23254586  0.45190333  0.90507524  1  0.054074  0  0.104867  0.11221  0  0.995028  0
H  H91  1  0.34825710  0.50648888  0.91411891  1  0.051248  0  0.09829  0.107037  0  0.98113  0
H  H92  1  0.32322187  0.44306969  0.85741260  1  0.085737  0  0.104794  0.123358  0  1.010176  0
H  H93  1  0.13254469  0.56640336  0.90686214  1  0.061202  0  0.105411  0.111157  0  1.001776  0
H  H94  1  0.12474911  0.64362491  0.85387108  1  0.078405  0  0.103713  0.121119  0  1.020022  0
H  H95  1  0.19337941  0.67850174  0.90768767  1  0.069948  0  0.102456  0.119597  0  0.980192  0
H  H96  1  0.63069734  0.06093589  0.79207846  1  0.037375  0  0.092118  0.095927  0  1.045861  0
H  H97  1  0.65824683  0.15469548  0.74923811  1  0.084479  0  0.093123  0.114612  0  1.033205  0
H  H98  1  0.56440436  0.16677219  0.79464063  1  0.091905  0  0.104763  0.12984  0  1.007845  0
H  H99  1  0.61331628  0.95765120  0.72889490  1  0.040323  0  0.106181  0.119526  0  0.979899  0
H  H100  1  0.49209262  0.94112186  0.70752316  1  0.102682  0  0.103488  0.120889  0  1.005377  0
H  H101  1  0.57708103  0.00370161  0.66922146  1  0.018578  0  0.09743  0.104772  0  1.015131  0
H  H102  1  0.31516967  0.12475248  0.93183887  1  0.132915  0  0.095634  0.079618  0  1.067258  0
H  H103  1  0.39367569  0.52988718  0.69202301  1  0.115117  0  0.112986  0.137523  0  1.003623  0
H  H104  1  0.74030379  0.46316443  0.62729348  1  0.100495  0  0.110341  0.080438  0  1.012133  0
H  H105  1  0.68806705  0.71414517  0.55543165  1  0.104934  0  0.115093  0.09188  0  0.987616  0
H  H106  1  0.13272116  0.79336402  0.79491099  1  0.09933  0  0.110117  0.133498  0  1.040205  0
H  H107  1  0.43961709  0.24109358  0.64809099  1  0.110414  0  0.111335  0.128777  0  1.038692  0
H  H108  1  0.78264896  0.80649814  0.62130515  1  0.08487  0  0.116471  0.137933  0  0.991117  0
H  H109  1  0.10144657  0.19674600  0.78924774  1  0.12541  0  0.111224  0.138819  0  1.033698  0
H  H110  1  0.50422297  0.57844383  0.62105251  1  0.108083  0  0.10696  0.082441  0  1.018691  0
H  H111  1  0.84758073  0.87184682  0.83840606  1  0.118975  0  0.112561  0.136988  0  1.001929  0
H  H112  1  0.91938359  0.94243539  0.91767737  1  0.155539  0  0.093363  0.076469  0  1.076715  0
H  H113  1  0.19320853  0.86670470  0.87554561  1  0.143183  0  0.104207  0.090714  0  1.025017  0
H  H114  1  0.83903995  0.54290392  0.69544115  1  0.112314  0  0.112803  0.134798  0  1.0124  0
H  H115  1  0.37794737  0.23020798  0.86281500  1  0.093399  0  0.117188  0.144894  0  0.9755  0
H  H116  1  0.04860575  0.09734583  0.86264977  1  0.082613  0  0.111228  0.087455  0  1.004076  0
H  H117  1  0.54261431  0.30292062  0.57820011  1  0.100588  0  0.111953  0.087766  0  1.001794  0
H  H118  1  0.60361866  0.65698231  0.87755400  1  0.019479  0  0.098779  0.105026  0  1.00594  0
H  H119  1  0.69823544  0.73213640  0.90151580  1  0.060835  0  0.092744  0.114711  0  1.01288  0
H  H120  1  0.67096511  0.73138129  0.83536855  1  0.08428  0  0.105976  0.13013  0  1.011292  0
H  H121  1  0.67383947  0.53066735  0.91616637  1  0.027315  0  0.103659  0.108935  0  0.993982  0
H  H122  1  0.76982765  0.47434506  0.88358615  1  0.080574  0  0.102811  0.112055  0  1.029632  0
H  H123  1  0.79607839  0.56111859  0.93048699  1  0.05205  0  0.102839  0.115176  0  0.97352  0
H  H124  1  0.15142519  0.43502769  0.77629854  1  0.057225  0  0.10337  0.121384  0  1.002871  0
H  H125  1  0.08774931  0.49367911  0.72751452  1  0.031035  0  0.094758  0.106911  0  1.032046  0
H  H126  1  0.14914370  0.56058714  0.77441169  1  0.039667  0  0.095964  0.108767  0  1.040757  0
H  H127  1  0.07092664  0.37207785  0.83629660  1  0.038841  0  0.101206  0.112693  0  1.011456  0
H  H128  1  0.01430771  0.45442747  0.87727636  1  0.042665  0  0.096516  0.100727  0  1.008353  0
H  H129  1  0.94385101  0.38172455  0.83629697  1  0.082203  0  0.099368  0.115265  0  1.028766  0
H  H130  1  0.23255588  0.95190302  0.59492777  1  0.054208  0  0.104794  0.112094  0  0.994927  0
H  H131  1  0.34826680  0.00648993  0.58588356  1  0.051322  0  0.098269  0.107033  0  0.981009  0
H  H132  1  0.32323124  0.94307362  0.64259064  1  0.085917  0  0.104809  0.123313  0  1.010286  0
H  H133  1  0.13255494  0.06640602  0.59313905  1  0.061267  0  0.105422  0.111122  0  1.001877  0
H  H134  1  0.12475693  0.14362777  0.64612982  1  0.078422  0  0.103693  0.12103  0  1.020112  0
H  H135  1  0.19338965  0.17850367  0.59231344  1  0.070027  0  0.102407  0.119469  0  0.980272  0
H  H136  1  0.36929735  0.43907239  0.29207476  1  0.037303  0  0.092089  0.095867  0  1.045801  0
H  H137  1  0.34174925  0.34531292  0.24923402  1  0.084482  0  0.093133  0.11464  0  1.033128  0
H  H138  1  0.43558872  0.33323408  0.29463720  1  0.088169  0  0.104746  0.129852  0  1.007809  0
H  H139  1  0.38669055  0.54235901  0.22889311  1  0.04029  0  0.106194  0.119475  0  0.979906  0
H  H140  1  0.50790927  0.55887442  0.20751084  1  0.102803  0  0.103427  0.120815  0  1.005421  0
H  H141  1  0.42290497  0.49629615  0.16921889  1  0.018541  0  0.097406  0.104704  0  1.015169  0
H  H142  1  0.68484574  0.37522578  0.43184424  1  0.132519  0  0.095646  0.079587  0  1.067305  0
H  H143  1  0.60632992  0.97011703  0.19201683  1  0.114794  0  0.113002  0.13761  0  1.003558  0
H  H144  1  0.25970295  0.03683312  0.12729567  1  0.100596  0  0.110368  0.080407  0  1.012179  0
H  H145  1  0.31193894  0.78584865  0.05543748  1  0.104872  0  0.115121  0.091836  0  0.987608  0
H  H146  1  0.86726764  0.70661116  0.29490980  1  0.099446  0  0.110067  0.133422  0  1.040207  0
H  H147  1  0.56037777  0.25891043  0.14808425  1  0.110398  0  0.1113  0.128737  0  1.038696  0
H  H148  1  0.21734871  0.69350201  0.12130895  1  0.084664  0  0.116476  0.137946  0  0.991136  0
H  H149  1  0.89854387  0.30326157  0.28923821  1  0.125486  0  0.111178  0.138739  0  1.033855  0
H  H150  1  0.49578619  0.92155610  0.12104503  1  0.108138  0  0.106934  0.082427  0  1.018675  0
H  H151  1  0.15241798  0.62817382  0.33841144  1  0.119059  0  0.112495  0.136867  0  1.002054  0
H  H152  1  0.08062547  0.55758530  0.41768360  1  0.155818  0  0.093319  0.076444  0  1.076847  0
H  H153  1  0.80678914  0.63327059  0.37554721  1  0.142807  0  0.104122  0.090615  0  1.02506  0
H  H154  1  0.16095760  0.95709913  0.19544109  1  0.112238  0  0.112839  0.134875  0  1.012416  0
H  H155  1  0.62205892  0.26977332  0.36282116  1  0.09388  0  0.117149  0.144818  0  0.975391  0
H  H156  1  0.95138862  0.40265821  0.36263570  1  0.082553  0  0.111252  0.087521  0  1.004349  0
H  H157  1  0.45737681  0.19707717  0.07819599  1  0.100472  0  0.111934  0.087764  0  1.001768  0
H  H158  1  0.39637850  0.84301558  0.37755042  1  0.019448  0  0.098742  0.105045  0  1.005812  0
H  H159  1  0.30176226  0.76785867  0.40150965  1  0.060829  0  0.092788  0.114785  0  1.012813  0
H  H160  1  0.32903436  0.76862164  0.33536244  1  0.084032  0  0.105984  0.130221  0  1.011171  0
H  H161  1  0.32616504  0.96933015  0.41616385  1  0.027282  0  0.103669  0.108921  0  0.99396  0
H  H162  1  0.23017012  0.02565391  0.38358838  1  0.080596  0  0.102804  0.112053  0  1.02957  0
H  H163  1  0.20392846  0.93887717  0.43048867  1  0.051559  0  0.102855  0.115174  0  0.973511  0
H  H164  1  0.84857813  0.06498560  0.27629588  1  0.057179  0  0.103438  0.121504  0  1.002928  0
H  H165  1  0.91225671  0.00632706  0.22751436  1  0.030834  0  0.094868  0.107155  0  1.031806  0
H  H166  1  0.85085385  0.93942529  0.27441113  1  0.03934  0  0.096023  0.108917  0  1.040718  0
H  H167  1  0.92906963  0.12793383  0.33629430  1  0.03866  0  0.101249  0.11277  0  1.011341  0
H  H168  1  0.98568672  0.04558897  0.37727714  1  0.0429  0  0.096484  0.100602  0  1.008367  0
H  H169  1  0.05614386  0.11828785  0.33629468  1  0.081975  0  0.09939  0.115328  0  1.028702  0
H  H170  1  0.76745895  0.54810870  0.09493494  1  0.054084  0  0.104749  0.112152  0  0.995218  0
H  H171  1  0.65174302  0.49353097  0.08589165  1  0.051818  0  0.098277  0.107044  0  0.981133  0
H  H172  1  0.67678653  0.55694227  0.14260023  1  0.086215  0  0.104757  0.123387  0  1.010477  0
H  H173  1  0.86745494  0.43360524  0.09314426  1  0.061433  0  0.105431  0.111124  0  1.001849  0
H  H174  1  0.87525115  0.35638157  0.14613532  1  0.078309  0  0.103715  0.121115  0  1.020136  0
H  H175  1  0.80662094  0.32150685  0.09231835  1  0.070208  0  0.102392  0.119523  0  0.980208  0
C  C176  1  0.40030136  0.88275792  0.23050683  1  0.24549  0  -0.146078  -0.270589  0  3.920235  0
C  C177  1  0.44589601  0.01001187  0.29154610  1  0.293363  0  -0.132636  -0.252979  0  3.924029  0
C  C178  1  0.73040961  0.85708768  0.10009834  1  0.56028  0  0.0487  0.124463  0  3.937088  0
C  C179  1  0.18471543  0.31886707  0.33646436  1  0.436056  0  0.117351  0.352505  0  4.005566  0
C  C180  1  0.57246130  0.52216780  0.33176680  1  0.007976  0  -0.092558  -0.228617  0  3.929077  0
C  C181  1  0.01371334  0.16689538  0.18992852  1  0.415024  0  0.10397  0.32331  0  4.033692  0
C  C182  1  0.24886827  0.46056247  0.37219214  1  0.480824  0  0.048601  0.115836  0  3.978392  0
C  C183  1  0.27834006  0.32032279  0.41242007  1  0.518155  0  0.053278  0.121657  0  3.96159  0
C  C184  1  0.91628264  0.17249625  0.17934874  1  -0.001245  0  -0.092794  -0.23908  0  3.963883  0
C  C185  1  0.75672760  0.77792391  0.17829549  1  0.342814  0  0.103746  0.31677  0  4.039504  0
C  C186  1  0.54771347  0.68345542  0.35568722  1  0.02134  0  -0.098662  -0.25747  0  3.947612  0
C  C187  1  0.22625575  0.26962873  0.37629087  1  2.4e-05  0  -0.088895  -0.232891  0  3.922147  0
C  C188  1  0.84983178  0.81554589  0.17934215  1  0.040506  0  -0.094229  -0.243675  0  3.946487  0
C  C189  1  0.51127092  0.49551487  0.37090956  1  0.489827  0  0.042718  0.111663  0  3.978708  0
C  C190  1  0.07552635  0.12849844  0.15461207  1  -0.048808  0  -0.094195  -0.239866  0  3.944953  0
C  C191  1  0.03549866  0.09045672  0.11060051  1  0.528069  0  0.043452  0.116747  0  3.94841  0
C  C192  1  0.18721718  0.38034143  0.17464674  1  1.541076  0  0.347337  0.526198  0  4.133261  0
C  C193  1  0.04580942  0.44267992  0.20590900  1  1.547354  0  0.343349  0.516067  0  4.147565  0
C  C194  1  0.58917534  0.61797927  0.32341374  1  0.420502  0  0.112198  0.342479  0  4.010397  0
C  C195  1  0.88282407  0.13261765  0.13437643  1  0.464458  0  0.046534  0.112121  0  3.939002  0
C  C196  1  0.19451273  0.41661267  0.33440684  1  0.042323  0  -0.094878  -0.260375  0  3.964559  0
C  C197  1  0.69521141  0.79833533  0.13844334  1  -0.011902  0  -0.090227  -0.239722  0  3.942199  0
C  C198  1  0.87863079  0.87261165  0.13894383  1  0.526142  0  0.04994  0.122694  0  3.935715  0
C  C199  1  0.48911566  0.64934419  0.39455318  1  0.50845  0  0.048075  0.127126  0  3.965775  0
C  C200  1  0.32487345  0.31236807  0.13071916  1  0.296826  0  -0.139184  -0.270624  0  3.922081  0
C  C201  1  0.25408220  0.45950164  0.10007802  1  0.296003  0  -0.131813  -0.25981  0  3.953297  0
C  C202  1  0.89292212  0.50456104  0.23226835  1  0.337819  0  -0.141087  -0.255232  0  3.894764  0
C  C203  1  0.98798653  0.57878410  0.16035665  1  0.294134  0  -0.136283  -0.255964  0  3.934183  0
C  C204  1  0.69301238  0.88272271  0.32483019  1  1.555355  0  0.34584  0.514771  0  4.159112  0
C  C205  1  0.55320480  0.88004009  0.27612626  1  1.526117  0  0.343026  0.508706  0  4.16759  0
C  C206  1  0.70788569  0.01087363  0.38595993  1  0.249299  0  -0.131719  -0.257954  0  3.9396  0
C  C207  1  0.82784067  0.88191205  0.38368032  1  0.26087  0  -0.130664  -0.250554  0  3.896884  0
C  C208  1  0.59969665  0.61724897  0.73051075  1  0.245881  0  -0.146076  -0.270755  0  3.920546  0
C  C209  1  0.55410356  0.48999279  0.79154941  1  0.293283  0  -0.132535  -0.252703  0  3.924018  0
C  C210  1  0.26960229  0.64291017  0.60009652  1  0.56037  0  0.048751  0.124648  0  3.937148  0
C  C211  1  0.81528799  0.18112758  0.83647116  1  0.436502  0  0.117368  0.35238  0  4.005219  0
C  C212  1  0.42753183  0.97781895  0.83176884  1  0.007754  0  -0.092748  -0.228984  0  3.92888  0
C  C213  1  0.98628019  0.33310919  0.68993281  1  0.414893  0  0.103801  0.322937  0  4.034067  0
C  C214  1  0.75111377  0.03942941  0.87218488  1  0.479953  0  0.048537  0.115552  0  3.978832  0
C  C215  1  0.72167211  0.17966551  0.91242633  1  0.516788  0  0.053066  0.121389  0  3.96207  0
C  C216  1  0.08371262  0.32750727  0.67935637  1  -0.000802  0  -0.092786  -0.238829  0  3.963802  0
C  C217  1  0.24327323  0.72207576  0.67829408  1  0.343398  0  0.103794  0.316819  0  4.039685  0
C  C218  1  0.45227602  0.81653140  0.85569106  1  0.021807  0  -0.098809  -0.257613  0  3.947566  0
C  C219  1  0.77375711  0.23034863  0.87630399  1  0.000783  0  -0.088774  -0.232829  0  3.922689  0
C  C220  1  0.15017114  0.68445306  0.67933408  1  0.040304  0  -0.094119  -0.243327  0  3.94626  0
C  C221  1  0.48872894  0.00447313  0.87091197  1  0.48967  0  0.042694  0.111697  0  3.978767  0
C  C222  1  0.92447018  0.37149940  0.65461630  1  -0.049139  0  -0.094116  -0.23976  0  3.944879  0
C  C223  1  0.96450055  0.40953695  0.61060298  1  0.528121  0  0.043344  0.116554  0  3.948312  0
C  C224  1  0.81277972  0.11966333  0.67465519  1  1.541124  0  0.347113  0.525706  0  4.133472  0
C  C225  1  0.95419078  0.05732500  0.70591143  1  1.547045  0  0.343292  0.516026  0  4.14744  0
C  C226  1  0.41081669  0.88200866  0.82341922  1  0.420676  0  0.112456  0.342847  0  4.009924  0
C  C227  1  0.11717403  0.36738449  0.63437999  1  0.464486  0  0.046567  0.11203  0  3.938679  0
C  C228  1  0.80547039  0.08337596  0.83440423  1  0.042235  0  -0.094864  -0.260134  0  3.96426  0
C  C229  1  0.30479493  0.70166235  0.63844183  1  -0.011655  0  -0.090191  -0.239785  0  3.942256  0
C  C230  1  0.12137500  0.62739028  0.63893808  1  0.525957  0  0.049777  0.122328  0  3.935675  0
C  C231  1  0.51087768  0.85064443  0.89455684  1  0.508261  0  0.048134  0.127086  0  3.965653  0
C  C232  1  0.67512345  0.18763680  0.63072830  1  0.297081  0  -0.139017  -0.270257  0  3.921748  0
C  C233  1  0.74591203  0.04050167  0.60008664  1  0.296452  0  -0.131837  -0.259918  0  3.953732  0
C  C234  1  0.10707918  0.99544021  0.73226852  1  0.337999  0  -0.141078  -0.255243  0  3.894792  0
C  C235  1  0.01201535  0.92122628  0.66035464  1  0.294371  0  -0.136237  -0.25605  0  3.934486  0
C  C236  1  0.30698499  0.61727362  0.82483395  1  1.555048  0  0.345604  0.514329  0  4.159713  0
C  C237  1  0.44679143  0.61995974  0.77612874  1  1.526126  0  0.343069  0.508647  0  4.167547  0
C  C238  1  0.29212123  0.48913933  0.88597375  1  0.260216  0  -0.131858  -0.258031  0  3.939223  0
C  C239  1  0.17216238  0.61809366  0.88369028  1  0.261066  0  -0.130597  -0.250574  0  3.896572  0
C  C240  1  0.59969668  0.11724719  0.76949578  1  0.241464  0  -0.146086  -0.270727  0  3.920531  0
C  C241  1  0.55410484  0.98999178  0.70845689  1  0.293284  0  -0.132574  -0.252904  0  3.923978  0
C  C242  1  0.26959116  0.14289767  0.89989783  1  0.559305  0  0.048647  0.124404  0  3.9374  0
C  C243  1  0.81528359  0.68112746  0.66352954  1  0.436722  0  0.117342  0.352446  0  4.00529  0
C  C244  1  0.42754130  0.47782667  0.66823922  1  0.006955  0  -0.092615  -0.228617  0  3.928831  0
C  C245  1  0.98627164  0.83310645  0.81006841  1  0.415051  0  0.103817  0.323133  0  4.033839  0
C  C246  1  0.75112554  0.53942793  0.62781275  1  0.480032  0  0.048439  0.115436  0  3.978726  0
C  C247  1  0.72168295  0.67966216  0.58757004  1  0.516279  0  0.053061  0.121302  0  3.962182  0
C  C248  1  0.08370662  0.82748860  0.82064705  1  -0.000981  0  -0.09277  -0.238984  0  3.963432  0
C  C249  1  0.24326634  0.22206931  0.82170485  1  0.343685  0  0.103773  0.316853  0  4.039508  0
C  C250  1  0.45228053  0.31653920  0.64431729  1  0.021398  0  -0.098764  -0.257612  0  3.948022  0
C  C251  1  0.77375984  0.73035072  0.62369470  1  0.000514  0  -0.088847  -0.232948  0  3.922584  0
C  C252  1  0.15015985  0.18444385  0.82066387  1  0.040832  0  -0.094102  -0.243488  0  3.946657  0
C  C253  1  0.48873583  0.50447601  0.62909457  1  0.490524  0  0.04262  0.111575  0  3.978999  0
C  C254  1  0.92446817  0.87150815  0.84538183  1  -0.049349  0  -0.094222  -0.240101  0  3.945318  0
C  C255  1  0.96449555  0.90954283  0.88939491  1  0.528315  0  0.043256  0.116489  0  3.948389  0
C  C256  1  0.81277372  0.61966452  0.82534906  1  1.54108  0  0.347261  0.525959  0  4.133295  0
C  C257  1  0.95418572  0.55732454  0.79408869  1  1.546655  0  0.343383  0.516096  0  4.147581  0
C  C258  1  0.41082356  0.38201245  0.67658925  1  0.420636  0  0.112197  0.342441  0  4.010578  0
C  C259  1  0.11716591  0.86736720  0.86562391  1  0.46428  0  0.046369  0.111786  0  3.938729  0
C  C260  1  0.80547325  0.58337929  0.66559539  1  0.04216  0  -0.094824  -0.260132  0  3.964399  0
C  C261  1  0.30478496  0.20164799  0.86155814  1  -0.01122  0  -0.090219  -0.239891  0  3.94248  0
C  C262  1  0.12136826  0.12738359  0.86105613  1  0.526118  0  0.049944  0.122719  0  3.935695  0
C  C263  1  0.51088237  0.35064403  0.60544867  1  0.508759  0  0.048133  0.127214  0  3.965539  0
C  C264  1  0.67512160  0.68763428  0.86927853  1  0.296844  0  -0.139082  -0.270363  0  3.922104  0
C  C265  1  0.74591497  0.54049997  0.89991778  1  0.295561  0  -0.131809  -0.259835  0  3.953524  0
C  C266  1  0.10707683  0.49544828  0.76773161  1  0.337518  0  -0.140963  -0.255017  0  3.894567  0
C  C267  1  0.01201191  0.42123016  0.83964482  1  0.294395  0  -0.136133  -0.255838  0  3.934313  0
C  C268  1  0.30699178  0.11727455  0.67516940  1  1.555686  0  0.345731  0.514536  0  4.159435  0
C  C269  1  0.44679309  0.11996151  0.72387597  1  1.525708  0  0.342924  0.508454  0  4.167466  0
C  C270  1  0.29213000  0.98914102  0.61402904  1  0.259763  0  -0.131789  -0.257849  0  3.939044  0
C  C271  1  0.17217187  0.11809632  0.61631093  1  0.260931  0  -0.130587  -0.250315  0  3.896791  0
C  C272  1  0.40029868  0.38275971  0.26949299  1  0.245422  0  -0.146079  -0.270742  0  3.920269  0
C  C273  1  0.44589296  0.51001024  0.20845169  1  0.293252  0  -0.13255  -0.25276  0  3.923895  0
C  C274  1  0.73041990  0.35708887  0.39990193  1  0.559892  0  0.048607  0.124438  0  3.937496  0
C  C275  1  0.18471136  0.81887469  0.16353070  1  0.436076  0  0.117358  0.35248  0  4.005467  0
C  C276  1  0.57246734  0.02217910  0.16823074  1  0.007878  0  -0.092679  -0.228905  0  3.929008  0
C  C277  1  0.01371842  0.66689239  0.31006980  1  0.415104  0  0.103875  0.323083  0  4.033957  0
C  C278  1  0.24887976  0.96057086  0.12781546  1  0.48005  0  0.048454  0.115454  0  3.978563  0
C  C279  1  0.27832298  0.82033754  0.08757401  1  0.516829  0  0.053089  0.121325  0  3.962048  0
C  C280  1  0.91629101  0.67249422  0.32064889  1  -0.000988  0  -0.092755  -0.238963  0  3.963874  0
C  C281  1  0.75673330  0.27792638  0.32170323  1  0.343149  0  0.103658  0.316541  0  4.039647  0
C  C282  1  0.54771953  0.18346601  0.14431003  1  0.021565  0  -0.098768  -0.257662  0  3.947437  0
C  C283  1  0.22623689  0.76964599  0.12369824  1  0.000656  0  -0.088855  -0.232957  0  3.92247  0
C  C284  1  0.84983261  0.31555124  0.32065490  1  0.04058  0  -0.09408  -0.243302  0  3.946532  0
C  C285  1  0.51127152  0.99552138  0.12908648  1  0.490311  0  0.042737  0.111763  0  3.978521  0
C  C286  1  0.07553267  0.62850069  0.34538631  1  -0.049588  0  -0.094102  -0.239618  0  3.944878  0
C  C287  1  0.03550742  0.59046516  0.38939926  1  0.528132  0  0.043266  0.116373  0  3.948464  0
C  C288  1  0.18721973  0.88034105  0.32534856  1  1.541155  0  0.347288  0.526002  0  4.13359  0
C  C289  1  0.04580945  0.94268077  0.29409043  1  1.547052  0  0.343321  0.515975  0  4.147628  0
C  C290  1  0.58917875  0.11798594  0.17658074  1  0.420461  0  0.112341  0.342751  0  4.01  0
C  C291  1  0.88282957  0.63261629  0.36562452  1  0.464481  0  0.046497  0.112049  0  3.9385  0
C  C292  1  0.19452435  0.91661935  0.16559763  1  0.042322  0  -0.094959  -0.260318  0  3.964441  0
C  C293  1  0.69521928  0.29833473  0.36155888  1  -0.0117  0  -0.090173  -0.239645  0  3.942075  0
C  C294  1  0.87863757  0.37261879  0.36105127  1  0.526197  0  0.049952  0.122661  0  3.935745  0
C  C295  1  0.48911644  0.14935301  0.10544312  1  0.508414  0  0.048132  0.127159  0  3.965574  0
C  C296  1  0.32487660  0.81236476  0.36927394  1  0.297152  0  -0.13915  -0.270595  0  3.921917  0
C  C297  1  0.25408718  0.95949708  0.39991786  1  0.296263  0  -0.131796  -0.259791  0  3.953443  0
C  C298  1  0.89292448  0.00456198  0.26773030  1  0.338109  0  -0.14115  -0.255513  0  3.894711  0
C  C299  1  0.98798357  0.07878233  0.33964343  1  0.294271  0  -0.136275  -0.255958  0  3.934222  0
C  C300  1  0.69301147  0.38272801  0.17516942  1  1.555762  0  0.345772  0.514573  0  4.159374  0
C  C301  1  0.55320213  0.38004123  0.22387387  1  1.526162  0  0.343091  0.508644  0  4.167515  0
C  C302  1  0.70788221  0.51087413  0.11403605  1  0.25907  0  -0.131679  -0.258036  0  3.939684  0
C  C303  1  0.82783723  0.38191424  0.11631612  1  0.260318  0  -0.130598  -0.250483  0  3.896783  0
N  N304  1  0.94075904  0.09037845  0.10112619  1  -1.244352  0  -0.327629  -0.244146  0  3.487154  0
N  N305  1  0.82040126  0.89315593  0.10018915  1  -1.243969  0  -0.325495  -0.236866  0  3.491602  0
N  N306  1  0.46924480  0.55763794  0.40162090  1  -1.247773  0  -0.337313  -0.257722  0  3.533792  0
N  N307  1  0.29063447  0.41412793  0.41007172  1  -1.222589  0  -0.332176  -0.246323  0  3.520998  0
N  N308  1  0.25814259  0.38778383  0.13925246  1  -1.18618  0  -0.279891  -0.02648  0  3.612276  0
N  N309  1  0.97848381  0.50898378  0.20053275  1  -1.167907  0  -0.277009  -0.021074  0  3.618343  0
N  N310  1  0.74470780  0.92711037  0.36176037  1  -1.179159  0  -0.277786  -0.025595  0  3.612036  0
N  N311  1  0.47028753  0.92375217  0.26531934  1  -1.177594  0  -0.278993  -0.023385  0  3.63743  0
N  N312  1  0.02959825  0.37816542  0.24357957  1  -1.627792  0  -0.396927  -0.750061  0  3.262312  0
N  N313  1  0.19206034  0.30627643  0.20754836  1  -1.631444  0  -0.399409  -0.760054  0  3.280466  0
N  N314  1  0.12001633  0.44686659  0.17297821  1  -1.281766  0  -0.36959  -0.581592  0  3.313062  0
N  N315  1  0.73256436  0.80442512  0.30451467  1  -1.6395  0  -0.394972  -0.749673  0  3.278938  0
N  N316  1  0.57138244  0.80029701  0.24917511  1  -1.639464  0  -0.404067  -0.762787  0  3.263832  0
N  N317  1  0.60799255  0.92048910  0.31275729  1  -1.237543  0  -0.370156  -0.586472  0  3.321669  0
N  N318  1  0.05923978  0.40961565  0.60113004  1  -1.244128  0  -0.327582  -0.243968  0  3.487087  0
N  N319  1  0.17960917  0.60684125  0.60018407  1  -1.244235  0  -0.325412  -0.236719  0  3.49117  0
N  N320  1  0.53075034  0.94234803  0.90162192  1  -1.247615  0  -0.33731  -0.257685  0  3.534161  0
N  N321  1  0.70935663  0.08585294  0.91007081  1  -1.222038  0  -0.331965  -0.246017  0  3.521154  0
N  N322  1  0.74185329  0.11222060  0.63925933  1  -1.186056  0  -0.279932  -0.026635  0  3.612797  0
N  N323  1  0.02151582  0.99102149  0.70053394  1  -1.167976  0  -0.277097  -0.021128  0  3.6183  0
N  N324  1  0.25529241  0.57289615  0.86176669  1  -1.17929  0  -0.277699  -0.025358  0  3.611736  0
N  N325  1  0.52971277  0.57625079  0.76532121  1  -1.177642  0  -0.278954  -0.023244  0  3.637458  0
N  N326  1  0.97040431  0.12183918  0.74358261  1  -1.627674  0  -0.396864  -0.750064  0  3.262148  0
N  N327  1  0.80793461  0.19372442  0.70755807  1  -1.631669  0  -0.399269  -0.759735  0  3.280206  0
N  N328  1  0.87998290  0.05314090  0.67298280  1  -1.281334  0  -0.369569  -0.581415  0  3.313207  0
N  N329  1  0.26742554  0.69556582  0.80451353  1  -1.638222  0  -0.394981  -0.749719  0  3.278942  0
N  N330  1  0.42861026  0.69970069  0.74917612  1  -1.639646  0  -0.404166  -0.762842  0  3.263642  0
N  N331  1  0.39200397  0.57951181  0.81276115  1  -1.237705  0  -0.370102  -0.586315  0  3.321969  0
N  N332  1  0.05923468  0.90960985  0.89887112  1  -1.244157  0  -0.327448  -0.243795  0  3.487226  0
N  N333  1  0.17959873  0.10682803  0.89981194  1  -1.244187  0  -0.325416  -0.236717  0  3.491333  0
N  N334  1  0.53075628  0.44235444  0.59838398  1  -1.247793  0  -0.33733  -0.257756  0  3.533978  0
N  N335  1  0.70937111  0.58585240  0.58992521  1  -1.221606  0  -0.331849  -0.245905  0  3.520903  0
N  N336  1  0.74185252  0.61221992  0.86074333  1  -1.186133  0  -0.27999  -0.026713  0  3.612821  0
N  N337  1  0.02151089  0.49102702  0.79946456  1  -1.168164  0  -0.27716  -0.021151  0  3.618189  0
N  N338  1  0.25529969  0.07289739  0.63823505  1  -1.178991  0  -0.277689  -0.025463  0  3.611792  0
N  N339  1  0.52971404  0.07625147  0.73468403  1  -1.177063  0  -0.278974  -0.023254  0  3.637441  0
N  N340  1  0.97039627  0.62184117  0.75641584  1  -1.627577  0  -0.396992  -0.750181  0  3.262229  0
N  N341  1  0.80793122  0.69372810  0.79244667  1  -1.631767  0  -0.399189  -0.759709  0  3.280347  0
N  N342  1  0.87997966  0.55314067  0.82701721  1  -1.281095  0  -0.369653  -0.581575  0  3.313133  0
N  N343  1  0.26743104  0.19556878  0.69548680  1  -1.639524  0  -0.395025  -0.749723  0  3.278874  0
N  N344  1  0.42860959  0.19970188  0.75082864  1  -1.63905  0  -0.403953  -0.762557  0  3.263606  0
N  N345  1  0.39200678  0.07951247  0.68724267  1  -1.237612  0  -0.370161  -0.586376  0  3.321838  0
N  N346  1  0.94076740  0.59038507  0.39887484  1  -1.24425  0  -0.327461  -0.243928  0  3.487004  0
N  N347  1  0.82040385  0.39316148  0.39980945  1  -1.243928  0  -0.325358  -0.236825  0  3.491754  0
N  N348  1  0.46924727  0.05764723  0.09837728  1  -1.247983  0  -0.337347  -0.257785  0  3.533988  0
N  N349  1  0.29063593  0.91414172  0.08992915  1  -1.221961  0  -0.331873  -0.245804  0  3.521079  0
N  N350  1  0.25814607  0.88778167  0.36074252  1  -1.186252  0  -0.279927  -0.026665  0  3.612704  0
N  N351  1  0.97848643  0.00898143  0.29946564  1  -1.16797  0  -0.277038  -0.021004  0  3.618428  0
N  N352  1  0.74470654  0.42711317  0.13823857  1  -1.178695  0  -0.277823  -0.025486  0  3.6119  0
N  N353  1  0.47028593  0.42375290  0.23468026  1  -1.177616  0  -0.278933  -0.02317  0  3.637275  0
N  N354  1  0.02959642  0.87816166  0.25641924  1  -1.627521  0  -0.396892  -0.750123  0  3.26217  0
N  N355  1  0.19206403  0.80627786  0.29244530  1  -1.631564  0  -0.399365  -0.75996  0  3.280431  0
N  N356  1  0.12001945  0.94686414  0.32701867  1  -1.281526  0  -0.369598  -0.581441  0  3.313264  0
N  N357  1  0.73256721  0.30443306  0.19548567  1  -1.639936  0  -0.395006  -0.749706  0  3.278782  0
N  N358  1  0.57138464  0.30029815  0.25082498  1  -1.639123  0  -0.40411  -0.762825  0  3.263772  0
N  N359  1  0.60799323  0.42049050  0.18724070  1  -1.237509  0  -0.370165  -0.586421  0  3.321843  0
Cl  Cl360  1  0.71445495  0.09099755  0.04350713  1  -0.642119  0  -0.32129  -0.498096  0  1.268531  0
Cl  Cl361  1  0.76798255  0.88152608  0.97026036  1  -0.657107  0  -0.326271  -0.513203  0  1.190873  0
Cl  Cl362  1  0.96297763  0.10341772  0.96641056  1  -0.642429  0  -0.338528  -0.506663  0  1.191556  0
Cl  Cl363  1  0.51484631  0.87109678  0.02338088  1  -0.650684  0  -0.327163  -0.514288  0  1.215533  0
Cl  Cl364  1  0.28554539  0.40898848  0.54351102  1  -0.642085  0  -0.321306  -0.498133  0  1.268534  0
Cl  Cl365  1  0.23202640  0.61846519  0.47026104  1  -0.657243  0  -0.326252  -0.513189  0  1.190893  0
Cl  Cl366  1  0.03703529  0.39657850  0.46640434  1  -0.642472  0  -0.338529  -0.506615  0  1.191414  0
Cl  Cl367  1  0.48515383  0.62888705  0.52338184  1  -0.650644  0  -0.327173  -0.514288  0  1.215566  0
Cl  Cl368  1  0.28554089  0.90899000  0.95649169  1  -0.642152  0  -0.321289  -0.498108  0  1.268517  0
Cl  Cl369  1  0.23201573  0.11846776  0.02973847  1  -0.657325  0  -0.326248  -0.513168  0  1.190913  0
Cl  Cl370  1  0.03702632  0.89657462  0.03359168  1  -0.642431  0  -0.338551  -0.506648  0  1.191511  0
Cl  Cl371  1  0.48514835  0.12889643  0.97661756  1  -0.650707  0  -0.327157  -0.514283  0  1.21557  0
Cl  Cl372  1  0.71445960  0.59099468  0.45649197  1  -0.642155  0  -0.321267  -0.498079  0  1.268527  0
Cl  Cl373  1  0.76798959  0.38152340  0.52973816  1  -0.657323  0  -0.326274  -0.513216  0  1.190941  0
Cl  Cl374  1  0.96298176  0.60341781  0.53359221  1  -0.642464  0  -0.338546  -0.506688  0  1.191515  0
Cl  Cl375  1  0.51485450  0.37109042  0.47662039  1  -0.650741  0  -0.327169  -0.514302  0  1.215522  0
O  O376  1  0.04765583  0.19421840  0.23732534  1  -1.315718  0  -0.169967  -0.381904  0  2.526929  0
O  O377  1  0.13413901  0.26551703  0.30163791  1  -1.321679  0  -0.158039  -0.367388  0  2.560317  0
O  O378  1  0.64711993  0.64096419  0.28272285  1  -1.304033  0  -0.163996  -0.367491  0  2.507234  0
O  O379  1  0.72713081  0.71510049  0.21612055  1  -1.318709  0  -0.170296  -0.38694  0  2.527466  0
O  O380  1  0.95233622  0.30578760  0.73733132  1  -1.316022  0  -0.169838  -0.381667  0  2.526831  0
O  O381  1  0.86586914  0.23447792  0.80164662  1  -1.321514  0  -0.158133  -0.367383  0  2.560481  0
O  O382  1  0.35287071  0.85902749  0.78272805  1  -1.30413  0  -0.164186  -0.367669  0  2.506997  0
O  O383  1  0.27286872  0.78489750  0.71611980  1  -1.319106  0  -0.170306  -0.386968  0  2.527603  0
O  O384  1  0.95233148  0.80578761  0.76266932  1  -1.315997  0  -0.169836  -0.381523  0  2.526644  0
O  O385  1  0.86585308  0.73448326  0.69835788  1  -1.321565  0  -0.158096  -0.367387  0  2.560489  0
O  O386  1  0.35287267  0.35903117  0.71727900  1  -1.304225  0  -0.164058  -0.367579  0  2.507313  0
O  O387  1  0.27286029  0.28489349  0.78388092  1  -1.319028  0  -0.170288  -0.386897  0  2.527819  0
O  O388  1  0.04766173  0.69421540  0.26267129  1  -1.315878  0  -0.169896  -0.381857  0  2.526799  0
O  O389  1  0.13413293  0.76552079  0.19835751  1  -1.321691  0  -0.158075  -0.367411  0  2.560248  0
O  O390  1  0.64712488  0.14097062  0.21727381  1  -1.304048  0  -0.164209  -0.367697  0  2.506901  0
O  O391  1  0.72713055  0.21510266  0.28387903  1  -1.31891  0  -0.170249  -0.386883  0  2.527477  0
