# generated using pymatgen
data_CoH22C29(NO2)3
_symmetry_space_group_name_H-M   'P 1'
_cell_length_a   16.79460509
_cell_length_b   21.24668443
_cell_length_c   21.25248618
_cell_angle_alpha   81.01242453
_cell_angle_beta   66.69478402
_cell_angle_gamma   66.74053822
_symmetry_Int_Tables_number   1
_chemical_formula_structural   CoH22C29(NO2)3
_chemical_formula_sum   'Co8 H176 C232 N24 O48'
_cell_volume   6398.72574355
_cell_formula_units_Z   8
loop_
 _symmetry_equiv_pos_site_id
 _symmetry_equiv_pos_as_xyz
  1  'x, y, z'
loop_
 _atom_site_type_symbol
 _atom_site_label
 _atom_site_symmetry_multiplicity
 _atom_site_fract_x
 _atom_site_fract_y
 _atom_site_fract_z
 _atom_site_occupancy
 _atom_site_pbe_bader_charge
 _atom_site_pbe_bader_spin_density
 _atom_site_pbe_cm5_charge
 _atom_site_pbe_ddec_charge
 _atom_site_pbe_ddec_spin_density
 _atom_site_pbe_ddec_sum_bond_order
 _atom_site_pbe_magmom
Co  Co0  1  0.35361844  0.24225756  0.53944332  1  1.257685  2.591748  0.64442  0.801247  2.850898  2.463219  2.571
Co  Co1  1  0.63512623  0.25765036  0.96066737  1  1.258376  2.591763  0.644364  0.801878  2.850717  2.462001  2.571
Co  Co2  1  0.89270214  0.46053021  0.74233189  1  1.259685  2.591786  0.644407  0.801911  2.850906  2.459827  2.571
Co  Co3  1  0.59578990  0.03929239  0.75769017  1  1.256203  2.591872  0.644543  0.801682  2.85084  2.462568  2.571
Co  Co4  1  0.64638341  0.75774415  0.46055537  1  1.25758  2.59175  0.64441  0.801213  2.850894  2.463236  2.571
Co  Co5  1  0.36487878  0.74234828  0.03933750  1  1.258508  2.591782  0.644317  0.80191  2.850727  2.461754  2.571
Co  Co6  1  0.10729552  0.53946997  0.25766595  1  1.259711  2.591789  0.644413  0.801905  2.850903  2.459891  2.571
Co  Co7  1  0.40420705  0.96070984  0.24231189  1  1.256167  2.591881  0.644556  0.801735  2.850835  2.462511  2.571
H  H8  1  0.37864862  0.13474785  0.64769265  1  0.146586  0.001488  0.118453  0.100509  0.00031  1.015902  0.001
H  H9  1  0.30482505  0.11989166  0.77152018  1  0.090131  0.000711  0.101648  0.105137  0.000289  1.059163  0.0
H  H10  1  0.10916222  0.32858622  0.77861877  1  0.120263  0.000712  0.106191  0.119994  0.000313  1.040116  0.0
H  H11  1  0.19039906  0.33338623  0.65307854  1  0.121784  0.001425  0.121784  0.103105  0.00025  0.989562  0.001
H  H12  1  0.21115806  0.12349701  0.99676213  1  0.062026  1e-05  0.105867  0.069447  1.3e-05  0.978957  0.0
H  H13  1  0.28781154  0.14425378  0.87354816  1  0.065738  2.3e-05  0.104101  0.114588  -6.3e-05  1.017613  0.0
H  H14  1  0.01626776  0.28044056  0.87398003  1  0.056228  -9.7e-05  0.104834  0.109971  -0.000163  1.021368  0.0
H  H15  1  0.95205825  0.25660316  0.99859520  1  0.080723  4.2e-05  0.113612  0.08249  3.2e-05  0.970814  0.0
H  H16  1  0.49859898  0.13892672  0.41931602  1  0.055133  0.001362  0.109763  0.059912  0.000208  1.030265  0.001
H  H17  1  0.55573652  0.14013658  0.29362490  1  0.078593  0.000798  0.103234  0.109636  0.000382  1.039152  0.0
H  H18  1  0.37962868  0.35485307  0.30584586  1  0.083097  0.000502  0.103923  0.109805  0.000196  1.032742  0.0
H  H19  1  0.33171203  0.34474696  0.43255231  1  0.16844  0.001273  0.119341  0.097821  0.000167  1.016944  0.001
H  H20  1  0.60688531  0.54962941  0.54599704  1  0.111593  9.4e-05  0.106638  0.122651  1e-05  1.039438  0.0
H  H21  1  0.74949011  0.51584453  0.57567719  1  0.103632  0.000625  0.106072  0.110662  0.000367  0.992388  0.0
H  H22  1  0.58438128  0.50473710  0.78822671  1  0.097578  0.000695  0.107564  0.113038  0.000388  0.99164  0.0
H  H23  1  0.44119257  0.53793575  0.75826379  1  0.107544  2.9e-05  0.107719  0.123836  1.9e-05  1.010687  0.0
H  H24  1  0.30218243  0.57438988  0.60183065  1  0.104694  4.4e-05  0.110269  0.128419  2.6e-05  0.994757  0.0
H  H25  1  0.27374105  0.47829366  0.56967846  1  0.072187  0.000695  0.101903  0.102431  0.000399  0.998905  0.0
H  H26  1  0.53346538  0.33574226  0.58075839  1  0.100981  0.000653  0.100539  0.098555  0.000431  1.034911  0.0
H  H27  1  0.56043231  0.42857805  0.61658518  1  0.069517  2.9e-05  0.101567  0.116359  1.2e-05  1.029641  0.0
H  H28  1  0.53035641  0.14109642  0.51036377  1  0.611202  0.000158  0.333746  0.409966  -9.9e-05  0.861539  0.0
H  H29  1  0.44608345  0.11791596  0.52390499  1  0.639354  -0.000251  0.314841  0.400554  -0.000148  0.910836  0.0
H  H30  1  0.66136207  0.36512196  0.85230293  1  0.126598  0.001487  0.1189  0.101779  0.000309  1.014047  0.001
H  H31  1  0.69601205  0.38009910  0.72854717  1  0.093786  0.000715  0.101681  0.104657  0.00029  1.059576  0.0
H  H32  1  0.71623678  0.17131872  0.72153863  1  0.117555  0.000709  0.10637  0.119765  0.000311  1.040841  0.0
H  H33  1  0.67692247  0.16648274  0.84701385  1  0.121042  0.001419  0.121774  0.102673  0.000246  0.990164  0.001
H  H34  1  0.83070297  0.37633210  0.50301634  1  0.046664  1e-05  0.106031  0.069295  1.3e-05  0.979259  0.0
H  H35  1  0.80504909  0.35581897  0.62622319  1  0.07294  2.4e-05  0.104103  0.114352  -6.2e-05  1.018186  0.0
H  H36  1  0.67005077  0.21934020  0.62649981  1  0.067883  -9.8e-05  0.104644  0.109288  -0.000167  1.022818  0.0
H  H37  1  0.70647938  0.24295659  0.50190797  1  0.071043  4.3e-05  0.113652  0.082685  3.2e-05  0.969335  0.0
H  H38  1  0.55638777  0.36098594  0.08087042  1  0.06702  0.001374  0.109968  0.059783  0.000212  1.030219  0.001
H  H39  1  0.48955960  0.35961831  0.20660899  1  0.075878  0.000798  0.103261  0.109298  0.000383  1.040164  0.0
H  H40  1  0.54014600  0.14491652  0.19429349  1  0.086925  0.000505  0.104583  0.110579  0.000195  1.032129  0.0
H  H41  1  0.60861224  0.15514265  0.06759653  1  0.133426  0.001268  0.119068  0.097192  0.000169  1.017054  0.001
H  H42  1  0.20222828  0.95050876  0.95364406  1  0.116698  9.2e-05  0.106631  0.12239  6e-06  1.040411  0.0
H  H43  1  0.34086733  0.98423872  0.92398037  1  0.098434  0.000625  0.106388  0.110209  0.000371  0.992841  0.0
H  H44  1  0.37755677  0.99529482  0.71141970  1  0.098452  0.000694  0.107159  0.11249  0.000389  0.991742  0.0
H  H45  1  0.23759675  0.96204833  0.74137528  1  0.100992  2.9e-05  0.108015  0.123957  1.9e-05  1.012121  0.0
H  H46  1  0.97828954  0.92559708  0.89824195  1  0.07912  4.7e-05  0.109852  0.128208  2.5e-05  0.994381  0.0
H  H47  1  0.82151854  0.02153615  0.93056329  1  0.073128  0.000693  0.101856  0.102669  0.000401  0.998179  0.0
H  H48  1  0.94967866  0.16432235  0.91929583  1  0.080404  0.00068  0.100559  0.098259  0.000431  1.036468  0.0
H  H49  1  0.10537225  0.07163084  0.88321263  1  0.078115  2.9e-05  0.101644  0.116808  1.2e-05  1.029634  0.0
H  H50  1  0.68137532  0.35901698  0.98979549  1  0.619273  0.000154  0.33458  0.41121  -0.0001  0.860071  0.0
H  H51  1  0.58762171  0.38194724  0.97614013  1  0.630381  -0.000236  0.314255  0.399597  -0.000147  0.911917  0.0
H  H52  1  0.02610637  0.35228374  0.63497148  1  0.120453  0.001487  0.118323  0.100938  0.000309  1.013957  0.001
H  H53  1  0.07582032  0.22848576  0.62002108  1  0.100246  0.000705  0.101869  0.105376  0.000289  1.058851  0.0
H  H54  1  0.88733742  0.22139779  0.82883261  1  0.13458  0.000699  0.105961  0.119537  0.000311  1.040855  0.0
H  H55  1  0.84317690  0.34687881  0.83369885  1  0.08846  0.001411  0.121951  0.103011  0.000249  0.98899  0.001
H  H56  1  0.20715369  0.00320587  0.62363884  1  0.03428  1e-05  0.105889  0.0697  1.3e-05  0.978762  0.0
H  H57  1  0.16072759  0.12640902  0.64440228  1  0.069405  2.3e-05  0.104553  0.115547  -6.3e-05  1.018274  0.0
H  H58  1  0.88934059  0.12619232  0.78063481  1  0.094173  -9.3e-05  0.104673  0.109565  -0.000166  1.021677  0.0
H  H59  1  0.94964623  0.00159905  0.75676887  1  0.059927  4.4e-05  0.113481  0.08221  3.2e-05  0.971234  0.0
H  H60  1  0.91741863  0.58077766  0.63889111  1  0.067533  0.00137  0.109969  0.060407  0.00021  1.029302  0.001
H  H61  1  0.84908465  0.70649489  0.64026154  1  0.073645  0.000794  0.103483  0.109906  0.000382  1.039235  0.0
H  H62  1  0.68524057  0.69409675  0.85503754  1  0.090681  0.000502  0.104181  0.11034  0.000194  1.032525  0.0
H  H63  1  0.76384923  0.56739719  0.84477067  1  0.136969  0.001262  0.118943  0.09733  0.000168  1.018182  0.001
H  H64  1  0.15295255  0.45365748  0.04919475  1  0.123919  9.3e-05  0.10636  0.121881  9e-06  1.040697  0.0
H  H65  1  0.32526089  0.42408223  0.01569476  1  0.080828  0.000615  0.106119  0.110143  0.000369  0.992541  0.0
H  H66  1  0.37299615  0.21141413  0.00515832  1  0.099998  0.000691  0.107315  0.112704  0.000389  0.991703  0.0
H  H67  1  0.19985366  0.24125256  0.03823619  1  0.096018  2.9e-05  0.107768  0.12374  1.9e-05  1.010419  0.0
H  H68  1  0.90424037  0.39811510  0.07424051  1  0.120778  4.3e-05  0.110325  0.129069  2.5e-05  0.995215  0.0
H  H69  1  0.84340837  0.43046690  0.97832231  1  0.042546  0.00071  0.102155  0.102625  0.0004  0.998564  0.0
H  H70  1  0.11427380  0.41923783  0.83546630  1  0.101966  0.000655  0.10038  0.098503  0.000429  1.035979  0.0
H  H71  1  0.17732971  0.38314704  0.92810668  1  0.093289  2.8e-05  0.101472  0.116152  1.2e-05  1.030014  0.0
H  H72  1  0.04036488  0.48961312  0.64115434  1  0.612186  0.000175  0.333513  0.408911  -0.000107  0.862558  0.0
H  H73  1  0.96966066  0.47607850  0.61795233  1  0.637311  -0.000248  0.314608  0.400023  -0.000149  0.912048  0.0
H  H74  1  0.51354694  0.14745972  0.86525198  1  0.143733  0.001483  0.118604  0.10203  0.000308  1.013972  0.001
H  H75  1  0.42443276  0.27121058  0.88034894  1  0.097373  0.000711  0.101754  0.104999  0.000291  1.059225  0.0
H  H76  1  0.43799893  0.27850231  0.67147235  1  0.137269  0.000704  0.106124  0.119816  0.000314  1.041167  0.0
H  H77  1  0.52421475  0.15306576  0.66651229  1  0.123885  0.001419  0.121603  0.102734  0.000247  0.989592  0.001
H  H78  1  0.33418503  0.49670130  0.87667960  1  0.059756  9e-06  0.10591  0.069246  1.3e-05  0.979145  0.0
H  H79  1  0.43129329  0.37343335  0.85623073  1  0.062886  2.3e-05  0.104313  0.115142  -6.3e-05  1.016591  0.0
H  H80  1  0.29675788  0.37372648  0.71953673  1  0.067686  -9.5e-05  0.105044  0.110408  -0.000164  1.020525  0.0
H  H81  1  0.20883557  0.49831490  0.74324102  1  0.094993  4.2e-05  0.113535  0.082289  3.2e-05  0.969306  0.0
H  H82  1  0.63753676  0.91912719  0.86107640  1  0.062969  0.001364  0.110021  0.059764  0.000209  1.029338  0.001
H  H83  1  0.69626915  0.79341820  0.85975421  1  0.074469  0.0008  0.103484  0.110094  0.000383  1.040416  0.0
H  H84  1  0.73380433  0.80570696  0.64523976  1  0.082832  0.000505  0.104191  0.110378  0.000196  1.033391  0.0
H  H85  1  0.67559923  0.93241841  0.65541482  1  0.135109  0.001271  0.119386  0.098024  0.00017  1.017235  0.001
H  H86  1  0.15626035  0.04635987  0.45021556  1  0.116661  9.3e-05  0.106531  0.122394  9e-06  1.040679  0.0
H  H87  1  0.26538225  0.07582952  0.48390309  1  0.09971  0.00061  0.10645  0.110795  0.000369  0.993252  0.0
H  H88  1  0.08949557  0.28839621  0.49542094  1  0.098081  0.000686  0.107363  0.113143  0.00039  0.991677  0.0
H  H89  1  0.97926024  0.25865238  0.46232452  1  0.10174  2.9e-05  0.107894  0.123136  2e-05  1.011391  0.0
H  H90  1  0.87674470  0.10199401  0.42561931  1  0.123023  4.4e-05  0.110059  0.128329  2.6e-05  0.996144  0.0
H  H91  1  0.75232344  0.06950514  0.52154481  1  0.067832  0.000691  0.102006  0.102422  0.000399  0.998526  0.0
H  H92  1  0.86904571  0.08086596  0.66432344  1  0.07861  0.000665  0.100636  0.099434  0.000429  1.034261  0.0
H  H93  1  0.98857438  0.11712720  0.57164827  1  0.07599  2.9e-05  0.101232  0.115797  1.2e-05  1.029957  0.0
H  H94  1  0.67139536  0.01032988  0.85874689  1  0.605946  0.000182  0.334005  0.409404  -0.0001  0.861813  0.0
H  H95  1  0.56396703  0.02367687  0.88214311  1  0.643201  -0.000244  0.31431  0.399085  -0.000145  0.910551  0.0
H  H96  1  0.62135777  0.86525386  0.35230604  1  0.146754  0.001488  0.11844  0.100493  0.00031  1.015954  0.001
H  H97  1  0.69518226  0.88010647  0.22847743  1  0.090139  0.000711  0.101668  0.105166  0.000289  1.059184  0.0
H  H98  1  0.89083870  0.67140986  0.22138369  1  0.120213  0.000712  0.106176  0.119994  0.000313  1.040109  0.0
H  H99  1  0.80960254  0.66661395  0.34692379  1  0.121762  0.001425  0.121752  0.103083  0.00025  0.989529  0.001
H  H100  1  0.78884260  0.87650420  0.00323932  1  0.061978  1e-05  0.10585  0.069461  1.3e-05  0.979016  0.0
H  H101  1  0.71218854  0.85574589  0.12645269  1  0.065741  2.3e-05  0.104105  0.114568  -6.3e-05  1.017626  0.0
H  H102  1  0.98373157  0.71955449  0.12601740  1  0.056365  -9.7e-05  0.104892  0.110056  -0.000163  1.021424  0.0
H  H103  1  0.04794269  0.74339497  0.00140296  1  0.080691  4.2e-05  0.113602  0.082476  3.2e-05  0.970808  0.0
H  H104  1  0.50140077  0.86107448  0.58068571  1  0.055149  0.001361  0.10977  0.059913  0.000208  1.030314  0.001
H  H105  1  0.44427018  0.85986258  0.70637607  1  0.078688  0.000798  0.103289  0.109702  0.000382  1.039086  0.0
H  H106  1  0.62037514  0.64514506  0.69414745  1  0.08326  0.000502  0.103944  0.109805  0.000195  1.032753  0.0
H  H107  1  0.66828636  0.65525476  0.56744142  1  0.168399  0.001274  0.119354  0.097838  0.000167  1.016921  0.001
H  H108  1  0.39310732  0.45037794  0.45400355  1  0.111607  9.4e-05  0.106637  0.122625  1e-05  1.039426  0.0
H  H109  1  0.25050420  0.48416230  0.42432132  1  0.103602  0.000625  0.106085  0.110689  0.000367  0.992375  0.0
H  H110  1  0.41562147  0.49525744  0.21177078  1  0.097569  0.000695  0.107545  0.113014  0.000388  0.99165  0.0
H  H111  1  0.55880577  0.46206186  0.24173855  1  0.107574  2.9e-05  0.10773  0.123842  1.9e-05  1.010701  0.0
H  H112  1  0.69780751  0.42561644  0.39817055  1  0.104986  4.4e-05  0.110228  0.128433  2.6e-05  0.994673  0.0
H  H113  1  0.72624770  0.52171523  0.43032005  1  0.071964  0.000695  0.101887  0.102448  0.000399  0.998978  0.0
H  H114  1  0.46652597  0.66426253  0.41923696  1  0.100912  0.000653  0.100524  0.098518  0.000431  1.034857  0.0
H  H115  1  0.43955808  0.57142674  0.38341179  1  0.069295  2.9e-05  0.101565  0.116369  1.2e-05  1.029487  0.0
H  H116  1  0.46965116  0.85890223  0.48963203  1  0.611325  0.000158  0.333735  0.410042  -9.9e-05  0.861569  0.0
H  H117  1  0.55392022  0.88208473  0.47609565  1  0.639264  -0.000251  0.314837  0.400576  -0.000148  0.91083  0.0
H  H118  1  0.33863839  0.63488026  0.14770275  1  0.126818  0.001487  0.118908  0.101752  0.000309  1.014178  0.001
H  H119  1  0.30398682  0.61990364  0.27145791  1  0.093783  0.000715  0.101647  0.104617  0.00029  1.05965  0.0
H  H120  1  0.28376256  0.82868300  0.27846780  1  0.117314  0.000709  0.106369  0.119801  0.000311  1.040849  0.0
H  H121  1  0.32308098  0.83351898  0.15299169  1  0.121031  0.001419  0.121814  0.102706  0.000246  0.990077  0.001
H  H122  1  0.16929215  0.62366552  0.49698727  1  0.046607  1e-05  0.106001  0.069276  1.3e-05  0.979275  0.0
H  H123  1  0.19494146  0.64418684  0.37378090  1  0.073056  2.4e-05  0.104059  0.114297  -6.2e-05  1.018257  0.0
H  H124  1  0.32993547  0.78066664  0.37350940  1  0.068167  -9.8e-05  0.104649  0.109295  -0.000167  1.022836  0.0
H  H125  1  0.29351071  0.75704257  0.49810124  1  0.07122  4.3e-05  0.113603  0.08265  3.2e-05  0.969395  0.0
H  H126  1  0.44361471  0.63900912  0.91912774  1  0.067335  0.001373  0.110054  0.059994  0.000212  1.030228  0.001
H  H127  1  0.51044458  0.64037880  0.79338903  1  0.075753  0.000798  0.103321  0.109427  0.000383  1.04017  0.0
H  H128  1  0.45985884  0.85507905  0.80570790  1  0.086915  0.000505  0.104588  0.110638  0.000195  1.03212  0.0
H  H129  1  0.39139470  0.84485241  0.93240431  1  0.133532  0.001267  0.119024  0.097094  0.000168  1.017049  0.001
H  H130  1  0.79777735  0.04948271  0.04635403  1  0.116593  9.2e-05  0.106615  0.122373  7e-06  1.040448  0.0
H  H131  1  0.65913427  0.01575890  0.07601933  1  0.09837  0.000625  0.106377  0.11018  0.000371  0.992931  0.0
H  H132  1  0.62244730  0.00470433  0.28857805  1  0.098492  0.000694  0.107113  0.112438  0.000389  0.991764  0.0
H  H133  1  0.76240874  0.03794724  0.25862026  1  0.100443  2.9e-05  0.107987  0.123921  1.9e-05  1.012242  0.0
H  H134  1  0.02171592  0.07440412  0.10175142  1  0.079163  4.6e-05  0.109862  0.128204  2.5e-05  0.99442  0.0
H  H135  1  0.17848630  0.97847069  0.06943243  1  0.072711  0.000694  0.101856  0.10265  0.000401  0.998056  0.0
H  H136  1  0.05034200  0.83567783  0.08069254  1  0.080157  0.000681  0.100582  0.098242  0.00043  1.036521  0.0
H  H137  1  0.89464471  0.92836678  0.11677555  1  0.078493  2.9e-05  0.101626  0.11668  1.2e-05  1.029719  0.0
H  H138  1  0.31862944  0.64098423  0.01020576  1  0.618973  0.000155  0.334614  0.411294  -0.0001  0.85999  0.0
H  H139  1  0.41238109  0.61805498  0.02386387  1  0.630373  -0.000235  0.314247  0.399551  -0.000147  0.911936  0.0
H  H140  1  0.97389251  0.64771490  0.36502656  1  0.120429  0.001487  0.118298  0.100895  0.000309  1.013993  0.001
H  H141  1  0.92417610  0.77151134  0.37997824  1  0.100121  0.000705  0.101874  0.105308  0.00029  1.058915  0.0
H  H142  1  0.11265902  0.77860290  0.17116684  1  0.134547  0.000699  0.105938  0.119497  0.000311  1.04088  0.0
H  H143  1  0.15682182  0.65312188  0.16630026  1  0.08845  0.001411  0.121931  0.102957  0.000249  0.989004  0.001
H  H144  1  0.79284631  0.99679379  0.37636470  1  0.034178  1e-05  0.10592  0.069763  1.3e-05  0.978733  0.0
H  H145  1  0.83926823  0.87359269  0.35560053  1  0.069344  2.3e-05  0.104523  0.115461  -6.3e-05  1.018269  0.0
H  H146  1  0.11065366  0.87380632  0.21936592  1  0.094203  -9.3e-05  0.104667  0.109574  -0.000166  1.021613  0.0
H  H147  1  0.05035433  0.99840061  0.24323151  1  0.059963  4.4e-05  0.113508  0.082247  3.2e-05  0.971176  0.0
H  H148  1  0.08257768  0.41922508  0.36110874  1  0.067712  0.001369  0.109949  0.060372  0.00021  1.029323  0.001
H  H149  1  0.15091090  0.29350837  0.35974013  1  0.073653  0.000794  0.1035  0.109954  0.000382  1.039154  0.0
H  H150  1  0.31475877  0.30590343  0.14496445  1  0.090732  0.000502  0.104184  0.110369  0.000194  1.032534  0.0
H  H151  1  0.23615086  0.43260350  0.15522837  1  0.136941  0.001262  0.118938  0.097308  0.000168  1.018161  0.001
H  H152  1  0.84705445  0.54633501  0.95080146  1  0.123743  9.3e-05  0.106439  0.122042  9e-06  1.040636  0.0
H  H153  1  0.67474432  0.57590616  0.98430791  1  0.080437  0.000616  0.106153  0.11021  0.000369  0.992501  0.0
H  H154  1  0.62700550  0.78857529  0.99484026  1  0.099873  0.000691  0.107289  0.112718  0.000389  0.99188  0.0
H  H155  1  0.80015059  0.75874045  0.96175276  1  0.096238  2.9e-05  0.107801  0.123681  1.9e-05  1.010495  0.0
H  H156  1  0.09576227  0.60187637  0.92575214  1  0.120604  4.3e-05  0.110307  0.129055  2.5e-05  0.995173  0.0
H  H157  1  0.15659205  0.56953072  0.02167209  1  0.042501  0.00071  0.102108  0.102545  0.0004  0.998668  0.0
H  H158  1  0.88572278  0.58076388  0.16452730  1  0.101957  0.000655  0.10037  0.098512  0.000429  1.036063  0.0
H  H159  1  0.82267093  0.61685109  0.07188657  1  0.093622  2.8e-05  0.101448  0.116128  1.2e-05  1.030028  0.0
H  H160  1  0.95963532  0.51038654  0.35884315  1  0.612193  0.000175  0.333537  0.408951  -0.000107  0.862596  0.0
H  H161  1  0.03033967  0.52392373  0.38204374  1  0.637376  -0.000248  0.314638  0.400072  -0.000149  0.911975  0.0
H  H162  1  0.48645018  0.85254302  0.13475096  1  0.143694  0.001482  0.118612  0.102027  0.000308  1.013986  0.001
H  H163  1  0.57556117  0.72879319  0.11965279  1  0.097409  0.000712  0.101727  0.104956  0.000291  1.059148  0.0
H  H164  1  0.56199648  0.72149941  0.32852891  1  0.13727  0.000704  0.106132  0.119841  0.000314  1.041127  0.0
H  H165  1  0.47578204  0.84693595  0.33348890  1  0.123951  0.001419  0.121596  0.102703  0.000247  0.989629  0.001
H  H166  1  0.66580758  0.50330041  0.12332449  1  0.059587  9e-06  0.105832  0.069141  1.3e-05  0.979195  0.0
H  H167  1  0.56870205  0.62656836  0.14377322  1  0.062919  2.3e-05  0.104309  0.115141  -6.3e-05  1.016601  0.0
H  H168  1  0.70324359  0.62627319  0.28046338  1  0.067785  -9.5e-05  0.105024  0.110379  -0.000164  1.020583  0.0
H  H169  1  0.79116454  0.50168579  0.25675734  1  0.094948  4.2e-05  0.113552  0.08234  3.2e-05  0.969306  0.0
H  H170  1  0.36246212  0.08087401  0.13892425  1  0.06295  0.001364  0.110055  0.059796  0.000209  1.029265  0.001
H  H171  1  0.30373036  0.20658351  0.14024684  1  0.074498  0.0008  0.103495  0.110107  0.000383  1.040433  0.0
H  H172  1  0.26618942  0.19429527  0.35476291  1  0.08275  0.000505  0.104157  0.110381  0.000196  1.033322  0.0
H  H173  1  0.32439638  0.06758382  0.34458664  1  0.135163  0.001271  0.119384  0.098024  0.00017  1.017274  0.001
H  H174  1  0.84373533  0.95364031  0.54980116  1  0.116951  9.3e-05  0.106584  0.122461  9e-06  1.040561  0.0
H  H175  1  0.73461450  0.92417527  0.51610764  1  0.099632  0.00061  0.106435  0.110772  0.000369  0.993251  0.0
H  H176  1  0.91050043  0.71160704  0.50458092  1  0.098183  0.000686  0.107387  0.113172  0.00039  0.991616  0.0
H  H177  1  0.02073889  0.74134729  0.53767795  1  0.101703  2.9e-05  0.10792  0.123208  2e-05  1.011298  0.0
H  H178  1  0.12324757  0.89801642  0.57438659  1  0.12313  4.4e-05  0.110054  0.128337  2.6e-05  0.996189  0.0
H  H179  1  0.24766773  0.93050580  0.47845934  1  0.067681  0.000692  0.102006  0.102398  0.000399  0.998524  0.0
H  H180  1  0.13095771  0.91912603  0.33567923  1  0.078715  0.000665  0.10064  0.099393  0.000429  1.034247  0.0
H  H181  1  0.01143394  0.88286120  0.42835647  1  0.076064  2.9e-05  0.101264  0.115858  1.2e-05  1.029998  0.0
H  H182  1  0.32859658  0.98967337  0.14125384  1  0.605804  0.000182  0.333971  0.409396  -0.0001  0.861643  0.0
H  H183  1  0.43602534  0.97632638  0.11785850  1  0.643269  -0.000245  0.31429  0.399105  -0.000145  0.910653  0.0
C  C184  1  0.31820877  0.17632598  0.67824215  1  0.383221  -0.008947  0.040025  0.088632  -0.009237  3.957937  -0.006
C  C185  1  0.27718288  0.16879674  0.74821315  1  0.032668  0.005263  -0.08703  -0.172966  0.002371  3.960384  0.004
C  C186  1  0.20054646  0.22310162  0.78761468  1  -0.036007  -0.013886  0.008357  0.102356  -0.014441  3.976348  -0.009
C  C187  1  0.16816616  0.28354945  0.75243536  1  -0.081076  0.005515  -0.083155  -0.170889  0.002526  3.917877  0.004
C  C188  1  0.21339069  0.28709074  0.68186539  1  0.530612  -0.010443  0.045762  0.091566  -0.011094  3.932201  -0.007
C  C189  1  0.16957287  0.15875588  0.96817028  1  0.541364  0.000508  0.033702  0.080382  0.000145  4.053763  0.001
C  C190  1  0.21261681  0.16970431  0.89868285  1  -0.085557  -0.002811  -0.08855  -0.181791  -0.002897  3.947061  -0.002
C  C191  1  0.15811335  0.21391565  0.86217281  1  0.02434  4.3e-05  0.006185  0.100112  -0.000438  3.9792  0.001
C  C192  1  0.06255018  0.24606541  0.89931819  1  -0.051439  -0.002992  -0.08204  -0.169571  -0.003108  3.932809  -0.002
C  C193  1  0.02647330  0.23215166  0.96914753  1  0.489869  0.000452  0.043628  0.097278  0.000127  4.002815  0.001
C  C194  1  0.47429690  0.18657835  0.39278249  1  0.424092  -0.010594  0.036379  0.086231  -0.010847  4.001954  -0.006
C  C195  1  0.50526672  0.18693986  0.32192575  1  0.030922  0.001577  -0.085158  -0.167698  6.4e-05  3.946504  0.002
C  C196  1  0.47348210  0.24818405  0.28766998  1  0.094946  -0.018447  0.007116  0.09861  -0.019488  3.988752  -0.011
C  C197  1  0.40904436  0.30588520  0.32859298  1  -0.093484  -0.000356  -0.082438  -0.166138  -0.001289  3.930396  0.001
C  C198  1  0.38156639  0.30096749  0.39939371  1  0.458674  -0.012091  0.046893  0.102882  -0.012768  3.918951  -0.007
C  C199  1  0.38530925  0.34341234  0.55646750  1  1.500573  -0.005906  0.186757  0.534275  -0.007565  4.234751  -0.007
C  C200  1  0.75953612  0.48593116  0.70113452  1  1.521677  -0.005572  0.188092  0.538598  -0.00671  4.241585  -0.006
C  C201  1  0.51793903  0.54515432  0.65076885  1  0.385023  -0.002798  0.089074  0.265015  -0.003062  4.03348  -0.002
C  C202  1  0.60308552  0.54005978  0.59872293  1  -0.057378  0.00108  -0.092173  -0.1887  0.00038  3.973322  0.001
C  C203  1  0.68173875  0.52094432  0.61529608  1  -0.055276  -0.000944  -0.078391  -0.073312  -0.001185  3.982176  0.0
C  C204  1  0.67499712  0.50787219  0.68355757  1  0.020455  0.003164  -0.028088  -0.063177  0.001665  4.018154  0.002
C  C205  1  0.58805979  0.51515720  0.73545569  1  -0.130314  -0.000902  -0.084759  -0.087202  -0.001149  4.006099  -0.001
C  C206  1  0.50902607  0.53373878  0.71930406  1  0.044856  0.000927  -0.095427  -0.196009  0.00034  3.986462  0.001
C  C207  1  0.43142431  0.50683001  0.61260114  1  0.429118  -0.002369  0.094451  0.28064  -0.002579  4.015219  -0.002
C  C208  1  0.35133969  0.52163615  0.59809115  1  0.020541  0.000937  -0.097835  -0.199266  0.000333  3.981016  0.001
C  C209  1  0.33656444  0.46846128  0.57961165  1  -0.097213  -0.000652  -0.085268  -0.080218  -0.000926  4.016029  0.0
C  C210  1  0.40170234  0.40095657  0.57367090  1  0.013687  0.003118  -0.036446  -0.078916  0.001716  4.039014  0.002
C  C211  1  0.48255343  0.38785544  0.58622041  1  -0.070045  -0.000557  -0.081836  -0.057802  -0.000881  3.990815  0.0
C  C212  1  0.49772061  0.44001708  0.60613218  1  -0.009558  0.000978  -0.109486  -0.220291  0.000337  3.997724  0.001
C  C213  1  0.67292509  0.32355670  0.82178950  1  0.459882  -0.008968  0.040122  0.087948  -0.009237  3.955695  -0.006
C  C214  1  0.69404386  0.33115917  0.75184929  1  -0.042085  0.005283  -0.086219  -0.170681  0.002374  3.960698  0.004
C  C215  1  0.71093640  0.27687467  0.71249830  1  0.025671  -0.013878  0.007999  0.100571  -0.014451  3.978916  -0.009
C  C216  1  0.70403685  0.21636895  0.74769303  1  -0.074192  0.005501  -0.083133  -0.170186  0.002518  3.920855  0.004
C  C217  1  0.68240107  0.21278165  0.81822291  1  0.486103  -0.010439  0.045548  0.092569  -0.011085  3.932763  -0.007
C  C218  1  0.79581459  0.34107409  0.53176200  1  0.48105  0.000496  0.03333  0.080207  0.000144  4.053664  0.001
C  C219  1  0.78036879  0.33028265  0.60124733  1  -0.063282  -0.002801  -0.088329  -0.180894  -0.002896  3.949036  -0.002
C  C220  1  0.73359788  0.28606011  0.63795313  1  0.000253  4.5e-05  0.00692  0.100414  -0.000437  3.980521  0.001
C  C221  1  0.70726297  0.25374837  0.60101048  1  -0.061621  -0.003  -0.082673  -0.169402  -0.003102  3.93268  -0.002
C  C222  1  0.72707352  0.26751458  0.53118805  1  0.545659  0.000467  0.043105  0.095963  0.000128  4.001938  0.001
C  C223  1  0.55330546  0.31330236  0.10741198  1  0.485748  -0.01053  0.036142  0.086701  -0.010794  4.002231  -0.006
C  C224  1  0.51402396  0.31286424  0.17828522  1  -0.050168  0.001576  -0.085606  -0.168659  4.4e-05  3.94768  0.002
C  C225  1  0.50928016  0.25158104  0.21252491  1  -0.048846  -0.018847  0.007415  0.099582  -0.019422  3.98808  -0.011
C  C226  1  0.54329322  0.19392892  0.17156292  1  -0.066169  -0.000372  -0.083699  -0.167798  -0.001306  3.931934  0.001
C  C227  1  0.58160824  0.19890776  0.10075443  1  0.490321  -0.012016  0.047841  0.103828  -0.012694  3.922862  -0.007
C  C228  1  0.78482972  0.15646246  0.94372584  1  1.503713  -0.005893  0.185652  0.530589  -0.007564  4.235256  -0.007
C  C229  1  0.44674776  0.01405685  0.79862910  1  1.500787  -0.005527  0.187592  0.537024  -0.006731  4.239616  -0.006
C  C230  1  0.21379149  0.95499224  0.84886263  1  0.396098  -0.002805  0.087574  0.262544  -0.00307  4.035951  -0.002
C  C231  1  0.24169487  0.96009575  0.90093438  1  -0.042557  0.001082  -0.091437  -0.187549  0.000379  3.975163  0.001
C  C232  1  0.31786433  0.97915549  0.88438415  1  -0.003108  -0.000954  -0.078555  -0.07188  -0.001178  3.982153  0.0
C  C233  1  0.36641282  0.99223313  0.81612962  1  0.024045  0.00315  -0.028355  -0.064359  0.001665  4.016995  0.002
C  C234  1  0.33877310  0.98492355  0.76420051  1  -0.062933  -0.000914  -0.08397  -0.086212  -0.001158  4.00622  -0.001
C  C235  1  0.26215492  0.96633147  0.78032502  1  -0.070916  0.000923  -0.095613  -0.19514  0.000339  3.987406  0.001
C  C236  1  0.05067243  0.99328730  0.88730861  1  0.346007  -0.002385  0.094791  0.280343  -0.002589  4.01579  -0.002
C  C237  1  0.97088658  0.97837528  0.90198750  1  0.043633  0.000943  -0.097538  -0.198742  0.000334  3.980333  0.001
C  C238  1  0.88441422  0.03145477  0.92057681  1  -0.062751  -0.000663  -0.084515  -0.079384  -0.000927  4.01503  0.0
C  C239  1  0.87604235  0.09899295  0.92650873  1  0.024711  0.003125  -0.036233  -0.079551  0.001714  4.041469  0.002
C  C240  1  0.95633214  0.11220532  0.91385626  1  0.003304  -0.000583  -0.082427  -0.057975  -0.000887  3.995971  0.0
C  C241  1  0.04363571  0.06013957  0.89378711  1  -0.044169  0.000985  -0.109829  -0.220209  0.000336  4.000377  0.001
C  C242  1  0.99615373  0.32173706  0.67653406  1  0.486578  -0.009007  0.04147  0.090597  -0.00927  3.955013  -0.006
C  C243  1  0.02492354  0.25179031  0.66896892  1  -0.034427  0.005319  -0.087544  -0.174578  0.002367  3.96155  0.004
C  C244  1  0.98760306  0.21242109  0.72328069  1  -0.018045  -0.013874  0.008097  0.102842  -0.014449  3.976733  -0.009
C  C245  1  0.92017404  0.24757340  0.78377595  1  -0.087185  0.005541  -0.08274  -0.170544  0.00253  3.919487  0.004
C  C246  1  0.89490849  0.31811258  0.78736552  1  0.495504  -0.010476  0.045651  0.092015  -0.011102  3.931691  -0.007
C  C247  1  0.13696580  0.03185146  0.65889180  1  0.579181  0.000512  0.033681  0.080796  0.000146  4.055964  0.001
C  C248  1  0.11060650  0.10132441  0.66983344  1  -0.088627  -0.002812  -0.08951  -0.183497  -0.002894  3.950106  -0.002
C  C249  1  0.01956503  0.13787595  0.71407094  1  -0.042115  3.7e-05  0.006952  0.100602  -0.000435  3.97995  0.001
C  C250  1  0.96100593  0.10080500  0.74624556  1  -0.07889  -0.003  -0.081828  -0.168545  -0.003101  3.932992  -0.002
C  C251  1  0.99471756  0.03099070  0.73232538  1  0.547749  0.000463  0.043521  0.097264  0.000129  4.005837  0.001
C  C252  1  0.86662921  0.60728576  0.68658013  1  0.513663  -0.010612  0.036843  0.086468  -0.010806  4.00041  -0.006
C  C253  1  0.82684153  0.67816055  0.68703071  1  -0.047769  0.001608  -0.085179  -0.168122  6.7e-05  3.947744  0.002
C  C254  1  0.76084534  0.71234227  0.74834028  1  -0.094474  -0.018791  0.006979  0.099021  -0.019366  3.988602  -0.011
C  C255  1  0.73731942  0.67136364  0.80601558  1  -0.012615  -0.000356  -0.082906  -0.16763  -0.001291  3.93233  0.001
C  C256  1  0.78056055  0.60056791  0.80100867  1  0.487242  -0.011996  0.047372  0.104299  -0.01267  3.924125  -0.007
C  C257  1  0.94162199  0.44360450  0.84337199  1  1.510654  -0.00588  0.186501  0.531482  -0.007541  4.231949  -0.007
C  C258  1  0.46085414  0.29869330  0.98603277  1  1.514102  -0.005541  0.18833  0.53856  -0.006743  4.238925  -0.006
C  C259  1  0.16902894  0.34882242  0.04491205  1  0.411676  -0.00281  0.08927  0.265233  -0.003079  4.032861  -0.002
C  C260  1  0.20198679  0.40095959  0.03974401  1  -0.07634  0.001083  -0.091932  -0.187864  0.00038  3.975245  0.001
C  C261  1  0.29717005  0.38444943  0.02081884  1  0.026644  -0.000989  -0.078395  -0.072218  -0.001192  3.980592  0.0
C  C262  1  0.35875257  0.31618377  0.00791780  1  -0.05586  0.003182  -0.027883  -0.063477  0.001655  4.019478  0.002
C  C263  1  0.32384987  0.26418841  0.01536206  1  -0.057397  -0.000947  -0.084593  -0.087083  -0.001161  4.006927  -0.001
C  C264  1  0.22868173  0.28026919  0.03385892  1  0.002112  0.00093  -0.095178  -0.195255  0.000341  3.982782  0.001
C  C265  1  0.04431093  0.38721271  0.00651636  1  0.410036  -0.002363  0.094736  0.281697  -0.002573  4.012652  -0.002
C  C266  1  0.94961749  0.40189412  0.02145866  1  0.02807  0.000931  -0.098216  -0.201538  0.000333  3.9799  0.001
C  C267  1  0.91622228  0.42047147  0.96838287  1  -0.050005  -0.000672  -0.085434  -0.079762  -0.000918  4.013262  0.0
C  C268  1  0.97537344  0.42642216  0.90083304  1  -0.040056  0.003137  -0.035216  -0.0769  0.001716  4.037958  0.002
C  C269  1  0.06886010  0.41377623  0.88759214  1  -0.022418  -0.000561  -0.082463  -0.058885  -0.000881  3.995527  0.0
C  C270  1  0.10409021  0.39372200  0.93965083  1  -0.053809  0.000979  -0.109326  -0.219737  0.000334  3.998921  0.001
C  C271  1  0.49463149  0.17803878  0.82372039  1  0.50013  -0.008989  0.040258  0.08751  -0.009258  3.957272  -0.006
C  C272  1  0.44579155  0.24796699  0.83138329  1  -0.075793  0.005301  -0.087025  -0.172209  0.002372  3.960784  0.004
C  C273  1  0.42345837  0.28740019  0.77711665  1  -0.0453  -0.013923  0.00834  0.101621  -0.014479  3.976975  -0.009
C  C274  1  0.45186186  0.25231094  0.71653250  1  0.006202  0.005519  -0.083054  -0.170799  0.002526  3.919011  0.004
C  C275  1  0.50080073  0.18178263  0.71287579  1  0.398329  -0.010464  0.045696  0.09224  -0.011118  3.931771  -0.007
C  C276  1  0.32791989  0.46805760  0.84142080  1  0.489712  0.000496  0.033304  0.079985  0.000144  4.052835  0.001
C  C277  1  0.38173185  0.39853004  0.83065211  1  -0.042985  -0.002804  -0.088261  -0.18131  -0.002903  3.945133  -0.002
C  C278  1  0.37166191  0.36195193  0.78635682  1  0.004865  4.4e-05  0.006276  0.100215  -0.000441  3.976427  0.001
C  C279  1  0.30850751  0.39908432  0.75401691  1  -0.064461  -0.003004  -0.082861  -0.171135  -0.003108  3.931534  -0.002
C  C280  1  0.25864821  0.46892785  0.76780365  1  0.515163  0.000464  0.044155  0.098382  0.000128  4.002841  0.001
C  C281  1  0.66076831  0.89260505  0.81343004  1  0.498967  -0.01057  0.036737  0.087422  -0.010842  4.000438  -0.006
C  C282  1  0.69230268  0.82173103  0.81301289  1  -0.063091  0.00162  -0.086112  -0.170727  8.4e-05  3.948034  0.002
C  C283  1  0.72152758  0.78750053  0.75179638  1  0.031538  -0.01843  0.007468  0.100799  -0.019459  3.986402  -0.011
C  C284  1  0.71437067  0.82844670  0.69418669  1  -0.054361  -0.000335  -0.0826  -0.167245  -0.001268  3.933969  0.001
C  C285  1  0.68189640  0.89924770  0.69913162  1  0.488417  -0.012068  0.047684  0.103645  -0.012767  3.920995  -0.007
C  C286  1  0.72878105  0.05625267  0.65651118  1  1.490065  -0.005869  0.18815  0.535669  -0.007552  4.233653  -0.007
C  C287  1  0.24579540  0.20116643  0.51406025  1  1.520281  -0.005588  0.18821  0.53809  -0.006726  4.241695  -0.006
C  C288  1  0.06300827  0.15115421  0.45494084  1  0.425021  -0.00281  0.089034  0.264385  -0.003077  4.037935  -0.002
C  C289  1  0.14302898  0.09903110  0.45990274  1  -0.040528  0.001083  -0.091995  -0.188463  0.000379  3.977557  0.001
C  C290  1  0.20272977  0.11547992  0.47894870  1  -0.033652  -0.000962  -0.078738  -0.072735  -0.001196  3.983661  0.0
C  C291  1  0.18306861  0.18369068  0.49214130  1  -0.003482  0.003172  -0.027221  -0.06292  0.001663  4.018556  0.002
C  C292  1  0.10345094  0.23565997  0.48497136  1  -0.068663  -0.000913  -0.085125  -0.087807  -0.001153  4.003818  -0.001
C  C293  1  0.04286677  0.21963629  0.46642978  1  -0.066771  0.000926  -0.095201  -0.19438  0.000341  3.984146  0.001
C  C294  1  0.93816896  0.11289146  0.49326792  1  0.373557  -0.002369  0.094916  0.28152  -0.002574  4.014285  -0.002
C  C295  1  0.87307771  0.09818052  0.47839600  1  -0.009605  0.000937  -0.097822  -0.199652  0.000333  3.983885  0.001
C  C296  1  0.80517164  0.07954122  0.53148247  1  -0.044725  -0.000665  -0.084936  -0.079694  -0.000922  4.016422  0.0
C  C297  1  0.80269159  0.07357838  0.59901431  1  -0.004105  0.003138  -0.036033  -0.078852  0.001718  4.037164  0.002
C  C298  1  0.87029470  0.08631297  0.61219559  1  -0.042457  -0.00058  -0.083184  -0.061271  -0.00088  3.99041  0.0
C  C299  1  0.93750273  0.10646057  0.56011938  1  0.013774  0.000981  -0.108541  -0.217935  0.000336  3.996508  0.001
C  C300  1  0.68179632  0.82367369  0.32175822  1  0.383216  -0.008948  0.040077  0.088691  -0.009239  3.957964  -0.006
C  C301  1  0.72281947  0.83120293  0.25178803  1  0.033212  0.005264  -0.086966  -0.172895  0.002371  3.960539  0.004
C  C302  1  0.79945393  0.77689651  0.21238664  1  -0.036944  -0.013888  0.008326  0.102266  -0.014444  3.976256  -0.009
C  C303  1  0.83183619  0.71644560  0.24756684  1  -0.080605  0.005516  -0.083061  -0.170774  0.002526  3.917689  0.004
C  C304  1  0.78661102  0.71290841  0.31813539  1  0.530507  -0.010441  0.045721  0.091521  -0.011092  3.932335  -0.007
C  C305  1  0.83042741  0.84124429  0.03183077  1  0.541421  0.000508  0.033637  0.080256  0.000145  4.053954  0.001
C  C306  1  0.78738309  0.83029484  0.10131780  1  -0.085565  -0.002811  -0.088485  -0.181667  -0.002897  3.947092  -0.002
C  C307  1  0.84188770  0.78608043  0.13782562  1  0.024395  4.3e-05  0.006099  0.100024  -0.000438  3.979346  0.001
C  C308  1  0.93745134  0.75392965  0.10068159  1  -0.051565  -0.002992  -0.082041  -0.169644  -0.003108  3.93297  -0.002
C  C309  1  0.97352709  0.76784749  0.03085198  1  0.489328  0.000452  0.043617  0.097304  0.000127  4.00268  0.001
C  C310  1  0.52570421  0.81342490  0.60721553  1  0.424014  -0.010597  0.03635  0.086306  -0.01085  4.001849  -0.006
C  C311  1  0.49473783  0.81305827  0.67807334  1  0.030946  0.001579  -0.085188  -0.167775  6.5e-05  3.946526  0.002
C  C312  1  0.52652114  0.75181664  0.71232978  1  0.094977  -0.018447  0.007013  0.098401  -0.019488  3.988811  -0.011
C  C313  1  0.59095873  0.69411600  0.67140342  1  -0.093613  -0.000355  -0.082454  -0.166047  -0.001289  3.930448  0.001
C  C314  1  0.61843370  0.69903422  0.60060351  1  0.458674  -0.012089  0.046936  0.102875  -0.012766  3.919085  -0.007
C  C315  1  0.61468753  0.65659142  0.44353006  1  1.50058  -0.005905  0.186436  0.533891  -0.007563  4.235037  -0.007
C  C316  1  0.24046103  0.51406902  0.29886513  1  1.52147  -0.00557  0.188167  0.538777  -0.00671  4.241432  -0.006
C  C317  1  0.48205502  0.45484841  0.34923067  1  0.384994  -0.002797  0.089032  0.265007  -0.003061  4.033328  -0.002
C  C318  1  0.39690894  0.45994398  0.40127632  1  -0.057261  0.00108  -0.092136  -0.188606  0.00038  3.97315  0.001
C  C319  1  0.31825667  0.47905944  0.38470155  1  -0.055296  -0.000944  -0.07839  -0.073358  -0.001185  3.981924  0.0
C  C320  1  0.32500252  0.49212594  0.31643864  1  0.020628  0.003164  -0.028099  -0.063242  0.001666  4.017908  0.002
C  C321  1  0.41194371  0.48483940  0.26454328  1  -0.130473  -0.000902  -0.084749  -0.087189  -0.001149  4.005982  -0.001
C  C322  1  0.49097530  0.46625935  0.28069497  1  0.044966  0.000927  -0.095438  -0.196003  0.00034  3.986397  0.001
C  C323  1  0.56856885  0.49317375  0.38739615  1  0.428291  -0.002369  0.09455  0.280769  -0.002579  4.015043  -0.002
C  C324  1  0.64865229  0.47837172  0.40190723  1  0.020467  0.000937  -0.097819  -0.199511  0.000333  3.981139  0.001
C  C325  1  0.66342554  0.53154709  0.42038457  1  -0.096553  -0.000651  -0.085248  -0.080175  -0.000926  4.016128  0.0
C  C326  1  0.59828771  0.59905078  0.42632513  1  0.01265  0.003119  -0.036574  -0.078885  0.001716  4.039022  0.002
C  C327  1  0.51744039  0.61214986  0.41377480  1  -0.069626  -0.000557  -0.081825  -0.057835  -0.000881  3.991025  0.0
C  C328  1  0.50226965  0.55998975  0.39386519  1  -0.008526  0.000978  -0.109484  -0.220275  0.000337  3.997457  0.001
C  C329  1  0.32707410  0.67644348  0.17821719  1  0.459764  -0.008968  0.040184  0.088023  -0.009238  3.955904  -0.006
C  C330  1  0.30595228  0.66884357  0.24815594  1  -0.042504  0.005283  -0.086283  -0.170731  0.002374  3.960822  0.004
C  C331  1  0.28905818  0.72312653  0.28750860  1  0.025766  -0.01388  0.008012  0.100661  -0.014453  3.978788  -0.009
C  C332  1  0.29596117  0.78363174  0.25231394  1  -0.074069  0.005501  -0.083184  -0.170373  0.002518  3.920811  0.004
C  C333  1  0.31760268  0.78721853  0.18178311  1  0.486292  -0.010441  0.045639  0.092779  -0.011087  3.932235  -0.007
C  C334  1  0.20417840  0.65892865  0.46824249  1  0.481348  0.000496  0.033349  0.080245  0.000144  4.05386  0.001
C  C335  1  0.21962019  0.66972163  0.39875911  1  -0.063905  -0.002802  -0.088281  -0.180891  -0.002897  3.948932  -0.002
C  C336  1  0.26639334  0.71394417  0.36205432  1  0.000156  4.5e-05  0.006913  0.100533  -0.000437  3.980247  0.001
C  C337  1  0.29272776  0.74625488  0.39899993  1  -0.061792  -0.003  -0.082663  -0.16942  -0.003103  3.932714  -0.002
C  C338  1  0.27291803  0.73248713  0.46882034  1  0.545304  0.000467  0.043187  0.095999  0.000127  4.001993  0.001
C  C339  1  0.44669836  0.68669269  0.89258679  1  0.485297  -0.010523  0.036058  0.086341  -0.010789  4.002373  -0.006
C  C340  1  0.48598144  0.68713133  0.82171300  1  -0.05012  0.001575  -0.085692  -0.168695  4.3e-05  3.947539  0.002
C  C341  1  0.49072701  0.74841453  0.78747478  1  -0.048575  -0.01884  0.007496  0.099719  -0.019413  3.987882  -0.011
C  C342  1  0.45671606  0.80606613  0.82843557  1  -0.066468  -0.000372  -0.083637  -0.167811  -0.001306  3.93196  0.001
C  C343  1  0.41839873  0.80108730  0.89924506  1  0.490469  -0.012014  0.047844  0.103896  -0.012692  3.922799  -0.007
C  C344  1  0.21518010  0.84353874  0.05627290  1  1.503954  -0.005896  0.185616  0.530377  -0.007566  4.235406  -0.007
C  C345  1  0.55325071  0.98594180  0.20136738  1  1.501389  -0.005529  0.187373  0.536475  -0.006729  4.239998  -0.006
C  C346  1  0.78621323  0.04500025  0.15113392  1  0.395599  -0.002805  0.087508  0.262175  -0.003069  4.035906  -0.002
C  C347  1  0.75831166  0.03989777  0.09906048  1  -0.04253  0.001082  -0.091302  -0.187247  0.000379  3.975197  0.001
C  C348  1  0.68213988  0.02084264  0.11561138  1  -0.00279  -0.000953  -0.078643  -0.072024  -0.001178  3.982275  0.0
C  C349  1  0.63358874  0.00777012  0.18386860  1  0.023585  0.003151  -0.028219  -0.064109  0.001665  4.016653  0.002
C  C350  1  0.66123192  0.01507458  0.23579811  1  -0.063471  -0.000913  -0.083867  -0.08611  -0.001158  4.006108  -0.001
C  C351  1  0.73785116  0.03366461  0.21967226  1  -0.069937  0.000923  -0.095629  -0.194971  0.000339  3.987333  0.001
C  C352  1  0.94934361  0.00670930  0.11268166  1  0.345572  -0.002385  0.094839  0.280389  -0.002589  4.015684  -0.002
C  C353  1  0.02911965  0.02162900  0.09800486  1  0.04371  0.000943  -0.097575  -0.198707  0.000334  3.980371  0.001
C  C354  1  0.11559299  0.96855207  0.07941589  1  -0.062464  -0.000662  -0.084572  -0.079532  -0.000926  4.01492  0.0
C  C355  1  0.12396822  0.90101440  0.07348423  1  0.024085  0.003126  -0.036291  -0.079438  0.001714  4.041612  0.002
C  C356  1  0.04368343  0.88779434  0.08612903  1  0.003459  -0.000584  -0.082361  -0.057923  -0.000888  3.995961  0.0
C  C357  1  0.95637777  0.93985958  0.10620054  1  -0.043924  0.000984  -0.109781  -0.219959  0.000336  4.000248  0.001
C  C358  1  0.00384692  0.67826159  0.32346545  1  0.486527  -0.009008  0.041478  0.090619  -0.009271  3.95483  -0.006
C  C359  1  0.97507240  0.74820782  0.33102972  1  -0.034183  0.005318  -0.087504  -0.174381  0.002367  3.961477  0.004
C  C360  1  0.01239277  0.78757806  0.27671950  1  -0.018506  -0.013876  0.008088  0.102676  -0.014451  3.97652  -0.009
C  C361  1  0.07982428  0.75242627  0.21622343  1  -0.087246  0.005541  -0.082735  -0.170506  0.00253  3.919345  0.004
C  C362  1  0.10509000  0.68188760  0.21263473  1  0.495628  -0.010475  0.045684  0.092092  -0.011102  3.931668  -0.007
C  C363  1  0.86303060  0.96814821  0.34111081  1  0.579414  0.000512  0.033558  0.080656  0.000146  4.056083  0.001
C  C364  1  0.88938881  0.89867936  0.33016755  1  -0.088567  -0.002812  -0.089425  -0.183307  -0.002894  3.95011  -0.002
C  C365  1  0.98042979  0.86212525  0.28592857  1  -0.041701  3.7e-05  0.006966  0.100592  -0.000435  3.980039  0.001
C  C366  1  0.03898958  0.89919467  0.25375664  1  -0.079023  -0.003001  -0.081819  -0.168498  -0.003101  3.933057  -0.002
C  C367  1  0.00527936  0.96900897  0.26767541  1  0.547738  0.000463  0.043429  0.097206  0.000128  4.005815  0.001
C  C368  1  0.13336664  0.39271698  0.31342019  1  0.513442  -0.010614  0.036923  0.086615  -0.010807  4.000321  -0.006
C  C369  1  0.17315613  0.32184219  0.31296974  1  -0.048004  0.001608  -0.085269  -0.168287  6.7e-05  3.947678  0.002
C  C370  1  0.23915259  0.28765894  0.25166132  1  -0.094329  -0.018795  0.007002  0.099037  -0.019369  3.988629  -0.011
C  C371  1  0.26267947  0.32863654  0.19398622  1  -0.012564  -0.000355  -0.082905  -0.167653  -0.001291  3.932444  0.001
C  C372  1  0.21943749  0.39943227  0.19899138  1  0.487204  -0.011999  0.04738  0.104382  -0.012674  3.924023  -0.007
C  C373  1  0.05837931  0.55639671  0.15662361  1  1.510842  -0.005881  0.186423  0.531346  -0.007541  4.232066  -0.007
C  C374  1  0.53915341  0.70129510  0.01396754  1  1.513923  -0.00554  0.188085  0.53802  -0.006741  4.239623  -0.006
C  C375  1  0.83097231  0.65116904  0.95508135  1  0.411255  -0.002809  0.089266  0.265311  -0.003078  4.032583  -0.002
C  C376  1  0.79801923  0.59903034  0.96025186  1  -0.076605  0.001083  -0.092068  -0.188116  0.00038  3.975399  0.001
C  C377  1  0.70283795  0.61553742  0.97917724  1  0.026814  -0.000989  -0.078532  -0.072473  -0.001192  3.980469  0.0
C  C378  1  0.64125765  0.68380309  0.99207995  1  -0.05612  0.003182  -0.027665  -0.062882  0.001655  4.018866  0.002
C  C379  1  0.67615428  0.73580255  0.98463389  1  -0.057158  -0.000947  -0.084676  -0.087485  -0.001161  4.007146  -0.001
C  C380  1  0.77132614  0.71972176  0.96613392  1  0.002793  0.00093  -0.095148  -0.194947  0.000341  3.982519  0.001
C  C381  1  0.95568991  0.61278132  0.99347811  1  0.409936  -0.002362  0.094818  0.281942  -0.002573  4.012117  -0.002
C  C382  1  0.05038762  0.59809786  0.97853385  1  0.028007  0.000931  -0.09831  -0.201746  0.000333  3.97996  0.001
C  C383  1  0.08377875  0.57952666  0.03161260  1  -0.049978  -0.000671  -0.085311  -0.079517  -0.000917  4.013284  0.0
C  C384  1  0.02462612  0.57357905  0.09916042  1  -0.04021  0.003137  -0.035356  -0.076982  0.001716  4.03799  0.002
C  C385  1  0.93113967  0.58622446  0.11240266  1  -0.022141  -0.000561  -0.08244  -0.058856  -0.00088  3.995645  0.0
C  C386  1  0.89591112  0.60627459  0.06034512  1  -0.054034  0.000979  -0.109258  -0.219696  0.000334  3.998871  0.001
C  C387  1  0.50536751  0.82196396  0.17628066  1  0.500215  -0.008988  0.040275  0.087487  -0.009258  3.957059  -0.006
C  C388  1  0.55420649  0.75203677  0.16861756  1  -0.076059  0.005301  -0.087013  -0.172041  0.002372  3.960607  0.004
C  C389  1  0.57654073  0.71260409  0.22288547  1  -0.045244  -0.013926  0.008441  0.10162  -0.014482  3.97693  -0.009
C  C390  1  0.54813641  0.74769231  0.28346902  1  0.006486  0.005519  -0.083104  -0.170922  0.002527  3.919228  0.004
C  C391  1  0.49919757  0.81822063  0.28712506  1  0.398063  -0.010468  0.045709  0.092346  -0.011121  3.931915  -0.007
C  C392  1  0.67207324  0.53194309  0.15858262  1  0.492107  0.000497  0.033294  0.080101  0.000144  4.052707  0.001
C  C393  1  0.61826246  0.60147014  0.16935104  1  -0.045328  -0.002804  -0.088228  -0.181279  -0.002902  3.944958  -0.002
C  C394  1  0.62833673  0.63804876  0.21364497  1  0.004973  4.4e-05  0.006204  0.100071  -0.000441  3.976262  0.001
C  C395  1  0.69149026  0.60091637  0.24598381  1  -0.064356  -0.003004  -0.082782  -0.170973  -0.003108  3.931682  -0.002
C  C396  1  0.74134975  0.53107336  0.23219727  1  0.51487  0.000463  0.044065  0.098245  0.000128  4.00313  0.001
C  C397  1  0.33923056  0.10739513  0.18657242  1  0.499067  -0.010571  0.036779  0.087495  -0.010843  4.000266  -0.006
C  C398  1  0.30769681  0.17827069  0.18698883  1  -0.063142  0.001619  -0.086113  -0.170736  8.4e-05  3.94791  0.002
C  C399  1  0.27847191  0.21250119  0.24820534  1  0.031579  -0.018429  0.007443  0.100786  -0.019458  3.986334  -0.011
C  C400  1  0.28562539  0.17155450  0.30581679  1  -0.054324  -0.000336  -0.08256  -0.167202  -0.001268  3.933764  0.001
C  C401  1  0.31810248  0.10075350  0.30086903  1  0.488378  -0.012066  0.047644  0.103567  -0.012764  3.921138  -0.007
C  C402  1  0.27121605  0.94375161  0.34349687  1  1.488616  -0.005869  0.188279  0.535863  -0.007552  4.233564  -0.007
C  C403  1  0.75420827  0.79883323  0.48594220  1  1.520266  -0.005588  0.188239  0.538077  -0.006727  4.241754  -0.006
C  C404  1  0.93699329  0.84884597  0.54506283  1  0.424745  -0.002809  0.08912  0.264459  -0.003076  4.038035  -0.002
C  C405  1  0.85697138  0.90096755  0.54010550  1  -0.040924  0.001083  -0.091962  -0.188518  0.000379  3.977766  0.001
C  C406  1  0.79726788  0.88452334  0.52105800  1  -0.033112  -0.000962  -0.078783  -0.0727  -0.001196  3.983777  0.0
C  C407  1  0.81692955  0.81631462  0.50785995  1  -0.003794  0.003171  -0.027337  -0.06313  0.001663  4.018629  0.002
C  C408  1  0.89654476  0.76434380  0.51503185  1  -0.069297  -0.000912  -0.085154  -0.087804  -0.001153  4.003782  -0.001
C  C409  1  0.95713519  0.78036491  0.53357361  1  -0.066086  0.000926  -0.095238  -0.194453  0.000341  3.984236  0.001
C  C410  1  0.06183225  0.88710667  0.50673582  1  0.374111  -0.002369  0.095018  0.281719  -0.002574  4.013939  -0.002
C  C411  1  0.12691781  0.90182427  0.52161077  1  -0.010479  0.000937  -0.097851  -0.199693  0.000333  3.983709  0.001
C  C412  1  0.19482164  0.92046459  0.46852148  1  -0.044505  -0.000666  -0.08496  -0.079708  -0.000922  4.016471  0.0
C  C413  1  0.19730393  0.92642487  0.40098803  1  -0.004369  0.003139  -0.035959  -0.078901  0.001718  4.03729  0.002
C  C414  1  0.12970590  0.91368465  0.38780707  1  -0.042327  -0.00058  -0.083304  -0.061188  -0.00088  3.990515  0.0
C  C415  1  0.06250356  0.89353295  0.43988287  1  0.01373  0.000981  -0.108549  -0.218164  0.000336  3.996793  0.001
N  N416  1  0.28797967  0.23469162  0.64459716  1  -1.222792  0.046292  -0.330716  -0.247397  0.024712  3.594192  0.044
N  N417  1  0.07792481  0.18879223  0.00391749  1  -1.204085  -0.003146  -0.334099  -0.286556  -0.003264  3.298965  -0.002
N  N418  1  0.41424704  0.24241104  0.43208939  1  -1.236556  0.034479  -0.329634  -0.252739  0.018044  3.589896  0.035
N  N419  1  0.66739190  0.26518495  0.85545980  1  -1.23187  0.04633  -0.331494  -0.249304  0.024705  3.593304  0.044
N  N420  1  0.76992486  0.31086569  0.49622607  1  -1.177935  -0.003142  -0.333694  -0.285491  -0.003257  3.297997  -0.002
N  N421  1  0.58832134  0.25750367  0.06807666  1  -1.198402  0.034464  -0.329335  -0.252271  0.018067  3.591515  0.035
N  N422  1  0.93227159  0.35537937  0.73493712  1  -1.197552  0.046336  -0.331643  -0.249359  0.024711  3.594448  0.044
N  N423  1  0.08096613  0.99618412  0.68897144  1  -1.198472  -0.003134  -0.333958  -0.287124  -0.003252  3.30345  -0.002
N  N424  1  0.84587209  0.56793869  0.74238888  1  -1.235177  0.0345  -0.330011  -0.253908  0.018013  3.591434  0.035
N  N425  1  0.52292468  0.14445648  0.76526337  1  -1.20872  0.046238  -0.33094  -0.24808  0.024711  3.595577  0.044
N  N426  1  0.26662457  0.50376207  0.81117836  1  -1.201067  -0.003146  -0.334375  -0.286803  -0.003266  3.301073  -0.002
N  N427  1  0.65623563  0.93192511  0.75765947  1  -1.197083  0.034458  -0.330335  -0.253397  0.018063  3.58897  0.035
N  N428  1  0.71202500  0.76530804  0.35540233  1  -1.222827  0.046294  -0.330762  -0.247434  0.024713  3.594212  0.044
N  N429  1  0.92207507  0.81120794  0.99608201  1  -1.203583  -0.003146  -0.334092  -0.286551  -0.003264  3.298889  -0.002
N  N430  1  0.58575230  0.75759118  0.56790897  1  -1.23661  0.034481  -0.329662  -0.252816  0.018045  3.589973  0.035
N  N431  1  0.33261104  0.73481420  0.14454494  1  -1.231674  0.046334  -0.33155  -0.249504  0.024707  3.593065  0.044
N  N432  1  0.23006731  0.68913398  0.50378077  1  -1.17764  -0.003143  -0.333738  -0.28558  -0.003258  3.298129  -0.002
N  N433  1  0.41168612  0.74249037  0.93192351  1  -1.198418  0.034461  -0.329362  -0.252303  0.018066  3.591388  0.035
N  N434  1  0.06772656  0.64461979  0.26506138  1  -1.197452  0.046334  -0.331661  -0.249362  0.02471  3.594391  0.044
N  N435  1  0.91903136  0.00381708  0.31102995  1  -1.198626  -0.003135  -0.333877  -0.287122  -0.003252  3.303379  -0.002
N  N436  1  0.15412350  0.43206456  0.25761143  1  -1.235179  0.034499  -0.33  -0.253973  0.018013  3.591437  0.035
N  N437  1  0.47707236  0.85554831  0.23473862  1  -1.208762  0.046235  -0.330972  -0.248106  0.02471  3.595376  0.044
N  N438  1  0.73337287  0.49623914  0.18882438  1  -1.200877  -0.003146  -0.334304  -0.28682  -0.003266  3.301133  -0.002
N  N439  1  0.34376229  0.06807609  0.24234279  1  -1.197039  0.034457  -0.330388  -0.253486  0.018062  3.589145  0.035
O  O440  1  0.44488583  0.28211859  0.55345718  1  -1.147459  0.093813  -0.325646  -0.545624  0.048454  2.195057  0.081
O  O441  1  0.31062336  0.35365889  0.54663671  1  -1.142497  0.094486  -0.316105  -0.538458  0.048865  2.188286  0.081
O  O442  1  0.75093075  0.47605884  0.76389725  1  -1.118082  0.089856  -0.308525  -0.518866  0.046938  2.220767  0.077
O  O443  1  0.83926879  0.47768426  0.65368133  1  -1.178648  0.070893  -0.332672  -0.584928  0.036543  2.179945  0.061
O  O444  1  0.43988099  0.56100987  0.63419763  1  -1.091547  -0.001028  -0.153586  -0.21271  -0.000871  2.507306  -0.001
O  O445  1  0.47099369  0.14076366  0.54401369  1  -1.199358  0.048336  -0.54527  -0.715628  0.02589  2.086484  0.037
O  O446  1  0.77998759  0.21774072  0.94711305  1  -1.138969  0.093937  -0.32597  -0.544606  0.048596  2.193977  0.081
O  O447  1  0.71067335  0.14620440  0.95316978  1  -1.143925  0.094323  -0.315196  -0.536007  0.048853  2.188482  0.081
O  O448  1  0.49121345  0.02393938  0.73589003  1  -1.127832  0.08998  -0.307584  -0.517057  0.047017  2.221049  0.077
O  O449  1  0.47071129  0.02218317  0.84614938  1  -1.172721  0.071135  -0.332894  -0.584302  0.036652  2.178617  0.061
O  O450  1  0.13493391  0.93914599  0.86547993  1  -1.089467  -0.001027  -0.153725  -0.213157  -0.000872  2.506591  -0.001
O  O451  1  0.65553414  0.35925700  0.95607730  1  -1.198738  0.048182  -0.546028  -0.716644  0.025854  2.084878  0.037
O  O452  1  0.99808090  0.44675229  0.78204841  1  -1.147987  0.093631  -0.325821  -0.544626  0.048368  2.192727  0.081
O  O453  1  0.85709687  0.45324001  0.85373635  1  -1.14832  0.094414  -0.316484  -0.537958  0.048865  2.186121  0.081
O  O454  1  0.51514625  0.23596204  0.97598061  1  -1.134367  0.089937  -0.308054  -0.518565  0.04693  2.221735  0.077
O  O455  1  0.49300170  0.34618319  0.97800549  1  -1.178862  0.070959  -0.333235  -0.584907  0.036596  2.177506  0.061
O  O456  1  0.07440323  0.36534982  0.06065138  1  -1.093376  -0.00103  -0.154234  -0.214177  -0.000871  2.506507  -0.001
O  O457  1  0.01476701  0.45594283  0.64071255  1  -1.198406  0.048304  -0.545195  -0.714392  0.025858  2.087257  0.037
O  O458  1  0.72726960  0.05291774  0.71777302  1  -1.13746  0.093747  -0.327455  -0.54703  0.048503  2.19292  0.081
O  O459  1  0.66413887  0.04668402  0.64628904  1  -1.141813  0.094424  -0.316312  -0.538579  0.048855  2.189065  0.081
O  O460  1  0.22737165  0.26391405  0.52403129  1  -1.121291  0.090128  -0.308599  -0.518566  0.047059  2.222515  0.077
O  O461  1  0.31730315  0.15369428  0.52215161  1  -1.174528  0.070941  -0.33292  -0.58434  0.036612  2.178933  0.061
O  O462  1  0.00065849  0.13467964  0.43913437  1  -1.088133  -0.001026  -0.154574  -0.214146  -0.000872  2.508177  -0.001
O  O463  1  0.61163099  0.04387873  0.85919706  1  -1.1969  0.048211  -0.544524  -0.713412  0.025876  2.087314  0.037
O  O464  1  0.55510988  0.71788517  0.44654535  1  -1.147652  0.093822  -0.325389  -0.54533  0.048457  2.195206  0.081
O  O465  1  0.68937234  0.64634539  0.45335843  1  -1.142275  0.094478  -0.315994  -0.538346  0.048859  2.188447  0.081
O  O466  1  0.24906787  0.52394031  0.23610078  1  -1.118146  0.089866  -0.308645  -0.519008  0.046943  2.220656  0.077
O  O467  1  0.16072978  0.52231592  0.34631623  1  -1.178669  0.070886  -0.332662  -0.584977  0.03654  2.180015  0.061
O  O468  1  0.56011374  0.43899133  0.36580457  1  -1.091335  -0.001028  -0.153513  -0.212614  -0.000871  2.507228  -0.001
O  O469  1  0.52901023  0.85923857  0.45598332  1  -1.199433  0.04834  -0.545255  -0.715739  0.025892  2.086558  0.037
O  O470  1  0.22003220  0.78226305  0.05287506  1  -1.138586  0.093907  -0.326041  -0.544661  0.048584  2.194565  0.081
O  O471  1  0.28933642  0.85380295  0.04684805  1  -1.144229  0.094344  -0.315105  -0.535857  0.048866  2.187819  0.081
O  O472  1  0.50878383  0.97606233  0.26411002  1  -1.127735  0.089989  -0.307595  -0.516971  0.047022  2.220997  0.077
O  O473  1  0.52928372  0.97781957  0.15384852  1  -1.172558  0.071121  -0.332735  -0.584019  0.036644  2.178945  0.061
O  O474  1  0.86507416  0.06085163  0.13451654  1  -1.089253  -0.001026  -0.15379  -0.213184  -0.000872  2.506153  -0.001
O  O475  1  0.34446801  0.64074574  0.04392448  1  -1.198371  0.04818  -0.546041  -0.716664  0.025854  2.084855  0.037
O  O476  1  0.00191979  0.55324737  0.21794793  1  -1.148076  0.09364  -0.325749  -0.544513  0.048372  2.192816  0.081
O  O477  1  0.14290418  0.54676273  0.14625744  1  -1.148358  0.094407  -0.316405  -0.537935  0.048861  2.186207  0.081
O  O478  1  0.48486054  0.76402687  0.02402152  1  -1.133992  0.089928  -0.307862  -0.518342  0.046928  2.222085  0.077
O  O479  1  0.50700775  0.65380213  0.02199771  1  -1.178929  0.070944  -0.333189  -0.584722  0.036587  2.177587  0.061
O  O480  1  0.92559795  0.63464370  0.93934041  1  -1.093231  -0.00103  -0.154239  -0.214396  -0.000871  2.506007  -0.001
O  O481  1  0.98523152  0.54405838  0.35928454  1  -1.198438  0.048307  -0.545257  -0.714477  0.02586  2.087244  0.037
O  O482  1  0.27272826  0.94708603  0.28223321  1  -1.137224  0.09376  -0.327541  -0.547105  0.048514  2.19273  0.081
O  O483  1  0.33585914  0.95331770  0.35371612  1  -1.140515  0.094416  -0.31635  -0.53863  0.04885  2.189103  0.081
O  O484  1  0.77263417  0.73608613  0.47596679  1  -1.12121  0.090116  -0.308614  -0.518537  0.047052  2.222487  0.077
O  O485  1  0.68269909  0.84630743  0.47784930  1  -1.174652  0.070943  -0.332903  -0.584299  0.036615  2.178974  0.061
O  O486  1  0.99934426  0.86531900  0.56087017  1  -1.087841  -0.001026  -0.154643  -0.214162  -0.000872  2.508023  -0.001
O  O487  1  0.38836187  0.95612452  0.14080340  1  -1.196867  0.048208  -0.544457  -0.713427  0.025874  2.087196  0.037
