# generated using pymatgen
data_ZnH24C28N4O5
_symmetry_space_group_name_H-M   'P 1'
_cell_length_a   14.66616467
_cell_length_b   19.35612289
_cell_length_c   19.63448339
_cell_angle_alpha   89.99998524
_cell_angle_beta   89.99995013
_cell_angle_gamma   89.99997330
_symmetry_Int_Tables_number   1
_chemical_formula_structural   ZnH24C28N4O5
_chemical_formula_sum   'Zn8 H192 C224 N32 O40'
_cell_volume   5573.83882604
_cell_formula_units_Z   8
loop_
 _symmetry_equiv_pos_site_id
 _symmetry_equiv_pos_as_xyz
  1  'x, y, z'
loop_
 _atom_site_type_symbol
 _atom_site_label
 _atom_site_symmetry_multiplicity
 _atom_site_fract_x
 _atom_site_fract_y
 _atom_site_fract_z
 _atom_site_occupancy
 _atom_site_pbe_bader_charge
 _atom_site_pbe_bader_spin_density
 _atom_site_pbe_cm5_charge
 _atom_site_pbe_ddec_charge
 _atom_site_pbe_ddec_spin_density
 _atom_site_pbe_ddec_sum_bond_order
 _atom_site_pbe_magmom
Zn  Zn0  1  0.65287919  0.99732665  0.21038615  1  1.243327  0  0.691847  0.759593  0  2.382406  0
Zn  Zn1  1  0.84711963  0.50267435  0.21038462  1  1.243361  0  0.691855  0.759618  0  2.382408  0
Zn  Zn2  1  0.34711974  0.49732625  0.28961427  1  1.243329  0  0.691853  0.759611  0  2.382372  0
Zn  Zn3  1  0.15288029  0.00267402  0.28961439  1  1.243313  0  0.691873  0.759586  0  2.38246  0
Zn  Zn4  1  0.34712097  0.00267341  0.78961475  1  1.243329  0  0.691867  0.759647  0  2.382382  0
Zn  Zn5  1  0.15287917  0.49732519  0.78961475  1  1.243313  0  0.691873  0.759668  0  2.382382  0
Zn  Zn6  1  0.65287973  0.50267329  0.71038562  1  1.243364  0  0.691895  0.759701  0  2.382329  0
Zn  Zn7  1  0.84712055  0.99732707  0.71038549  1  1.243321  0  0.691877  0.759665  0  2.382388  0
H  H8  1  0.48798902  0.02214067  0.29975919  1  0.104178  0  0.116266  0.091323  0  1.012369  0
H  H9  1  0.01201032  0.47785909  0.29975929  1  0.104187  0  0.116275  0.091342  0  1.012341  0
H  H10  1  0.51201088  0.52214061  0.20024084  1  0.104179  0  0.116265  0.091334  0  1.012348  0
H  H11  1  0.98798999  0.97785937  0.20024063  1  0.104165  0  0.116252  0.0913  0  1.012392  0
H  H12  1  0.51201045  0.97785939  0.70024070  1  0.104175  0  0.116264  0.091322  0  1.012369  0
H  H13  1  0.98798984  0.52214097  0.70024060  1  0.104183  0  0.116271  0.091328  0  1.012358  0
H  H14  1  0.48799064  0.47785945  0.79975955  1  0.104166  0  0.11625  0.091321  0  1.012359  0
H  H15  1  0.01201085  0.02214017  0.79975926  1  0.104186  0  0.116266  0.091295  0  1.012398  0
H  H16  1  0.36202354  0.10362860  0.30770697  1  0.166292  0  0.107565  0.136701  0  1.060082  0
H  H17  1  0.13797647  0.39637167  0.30770701  1  0.166327  0  0.10751  0.136614  0  1.060085  0
H  H18  1  0.63797767  0.60362798  0.19229304  1  0.166284  0  0.107578  0.136733  0  1.060066  0
H  H19  1  0.86202321  0.89637148  0.19229293  1  0.166298  0  0.107519  0.136624  0  1.060086  0
H  H20  1  0.63797661  0.89637146  0.69229291  1  0.166311  0  0.107502  0.136579  0  1.060117  0
H  H21  1  0.86202301  0.60362839  0.69229288  1  0.166296  0  0.107502  0.136565  0  1.060129  0
H  H22  1  0.36202316  0.39637156  0.80770736  1  0.166287  0  0.107574  0.136736  0  1.060076  0
H  H23  1  0.13797695  0.10362806  0.80770696  1  0.166303  0  0.107504  0.136583  0  1.06011  0
H  H24  1  0.46199727  0.19602160  0.11913461  1  0.053332  0  0.104149  0.114756  0  1.011796  0
H  H25  1  0.03800296  0.30397873  0.11913474  1  0.053338  0  0.104159  0.114759  0  1.01182  0
H  H26  1  0.53800321  0.69602147  0.38086486  1  0.05335  0  0.10417  0.114782  0  1.011801  0
H  H27  1  0.96199678  0.80397897  0.38086522  1  0.053254  0  0.104167  0.114776  0  1.011777  0
H  H28  1  0.53800288  0.80397898  0.88086527  1  0.053349  0  0.10417  0.114778  0  1.011802  0
H  H29  1  0.96199720  0.69602133  0.88086515  1  0.053345  0  0.104167  0.114775  0  1.011803  0
H  H30  1  0.46199627  0.30397910  0.61913502  1  0.053347  0  0.104167  0.114768  0  1.011821  0
H  H31  1  0.03800338  0.19602109  0.61913466  1  0.053346  0  0.104168  0.114773  0  1.011803  0
H  H32  1  0.58726386  0.11097562  0.12316626  1  0.095604  0  0.108872  0.076243  0  1.04455  0
H  H33  1  0.91273673  0.38902453  0.12316612  1  0.095604  0  0.10889  0.07627  0  1.044549  0
H  H34  1  0.41273667  0.61097554  0.37683323  1  0.095617  0  0.10888  0.076262  0  1.044559  0
H  H35  1  0.08726363  0.88902508  0.37683330  1  0.095613  0  0.108901  0.076286  0  1.044529  0
H  H36  1  0.41273698  0.88902496  0.87683362  1  0.095604  0  0.108892  0.07627  0  1.044548  0
H  H37  1  0.08726342  0.61097553  0.87683325  1  0.095606  0  0.108878  0.076255  0  1.044558  0
H  H38  1  0.58726348  0.38902452  0.62316665  1  0.095604  0  0.108888  0.076257  0  1.044564  0
H  H39  1  0.91273653  0.11097549  0.62316658  1  0.095606  0  0.108878  0.076253  0  1.044565  0
H  H40  1  0.31861759  0.21349620  0.10912166  1  0.049749  0  0.110321  0.086836  0  0.985892  0
H  H41  1  0.18138265  0.28650413  0.10912221  1  0.049754  0  0.110329  0.08685  0  0.98588  0
H  H42  1  0.68138356  0.71349654  0.39087781  1  0.049768  0  0.110321  0.086836  0  0.985859  0
H  H43  1  0.81861778  0.78650390  0.39087776  1  0.049762  0  0.110308  0.086816  0  0.985844  0
H  H44  1  0.68138188  0.78650335  0.89087771  1  0.049754  0  0.110339  0.086854  0  0.985916  0
H  H45  1  0.81861683  0.71349645  0.89087768  1  0.049761  0  0.110339  0.086858  0  0.985885  0
H  H46  1  0.31861796  0.28650352  0.60912258  1  0.049764  0  0.110334  0.086851  0  0.98589  0
H  H47  1  0.18138306  0.21349667  0.60912213  1  0.049766  0  0.110322  0.086826  0  0.985868  0
H  H48  1  0.33821503  0.29354166  0.15141407  1  0.064799  0  0.106158  0.086586  0  0.978129  0
H  H49  1  0.16178516  0.20645814  0.15141465  1  0.064802  0  0.10617  0.086583  0  0.978129  0
H  H50  1  0.66178539  0.79354202  0.34858538  1  0.064805  0  0.106167  0.086566  0  0.978142  0
H  H51  1  0.83821531  0.70645843  0.34858533  1  0.064798  0  0.106161  0.086567  0  0.978153  0
H  H52  1  0.66178512  0.70645788  0.84858581  1  0.0648  0  0.106151  0.086567  0  0.978114  0
H  H53  1  0.83821500  0.79354192  0.84858574  1  0.064801  0  0.106157  0.086575  0  0.978131  0
H  H54  1  0.33821545  0.20645804  0.65141502  1  0.064793  0  0.10616  0.086569  0  0.978142  0
H  H55  1  0.16178552  0.29354214  0.65141506  1  0.064799  0  0.106166  0.086547  0  0.978159  0
H  H56  1  0.31756062  0.21163319  0.32090518  1  0.075266  0  0.114963  0.10037  0  0.97706  0
H  H57  1  0.18243938  0.28836656  0.32090522  1  0.075266  0  0.11496  0.10036  0  0.97706  0
H  H58  1  0.68243985  0.71163307  0.17909480  1  0.075271  0  0.114968  0.100375  0  0.977047  0
H  H59  1  0.81756105  0.78836691  0.17909424  1  0.075255  0  0.114983  0.100393  0  0.976996  0
H  H60  1  0.68243886  0.78836687  0.67909470  1  0.075261  0  0.114957  0.100368  0  0.977062  0
H  H61  1  0.81756078  0.71163298  0.67909467  1  0.075265  0  0.114959  0.100373  0  0.977061  0
H  H62  1  0.31756167  0.28836647  0.82090559  1  0.075246  0  0.11498  0.100366  0  0.977029  0
H  H63  1  0.18243911  0.21163367  0.82090565  1  0.075263  0  0.114986  0.100402  0  0.976986  0
H  H64  1  0.22145304  0.17330736  0.28155404  1  0.089171  0  0.104996  0.091451  0  1.007654  0
H  H65  1  0.27854700  0.32669292  0.28155400  1  0.08916  0  0.10499  0.091438  0  1.00765  0
H  H66  1  0.77854745  0.67330719  0.21844544  1  0.089154  0  0.104992  0.091441  0  1.007638  0
H  H67  1  0.72145272  0.82669278  0.21844544  1  0.089155  0  0.104993  0.091456  0  1.007634  0
H  H68  1  0.77854643  0.82669270  0.71844584  1  0.089168  0  0.104994  0.091457  0  1.007648  0
H  H69  1  0.72145248  0.67330766  0.71844588  1  0.089157  0  0.104998  0.091434  0  1.007692  0
H  H70  1  0.22145339  0.32669287  0.78155495  1  0.089168  0  0.104987  0.091453  0  1.007619  0
H  H71  1  0.27854743  0.17330728  0.78155445  1  0.089155  0  0.104986  0.091449  0  1.00765  0
H  H72  1  0.80632174  0.08178893  0.25166461  1  0.121141  0  0.117139  0.08754  0  0.995711  0
H  H73  1  0.69367801  0.41821015  0.25166461  1  0.12119  0  0.117131  0.087543  0  0.995648  0
H  H74  1  0.19367744  0.58178897  0.24833540  1  0.121152  0  0.11713  0.087528  0  0.995679  0
H  H75  1  0.30632165  0.91821117  0.24833583  1  0.121143  0  0.117131  0.087528  0  0.99568  0
H  H76  1  0.19367773  0.91821113  0.74833527  1  0.121155  0  0.117126  0.087538  0  0.995689  0
H  H77  1  0.30632146  0.58178940  0.74833528  1  0.121145  0  0.117123  0.087526  0  0.995659  0
H  H78  1  0.80632271  0.41821058  0.75166499  1  0.121189  0  0.117133  0.087518  0  0.995692  0
H  H79  1  0.69367783  0.08178992  0.75166456  1  0.12118  0  0.117113  0.087522  0  0.995669  0
H  H80  1  0.91331626  0.09243411  0.34534568  1  0.096616  0  0.101751  0.10902  0  1.081013  0
H  H81  1  0.58668339  0.40756546  0.34534625  1  0.096615  0  0.101741  0.108988  0  1.081019  0
H  H82  1  0.08668429  0.59243421  0.15465383  1  0.09661  0  0.101745  0.108983  0  1.08105  0
H  H83  1  0.41331560  0.90756596  0.15465368  1  0.09662  0  0.101749  0.109008  0  1.081023  0
H  H84  1  0.08668390  0.90756595  0.65465370  1  0.096627  0  0.101763  0.109011  0  1.080999  0
H  H85  1  0.41331540  0.59243408  0.65465363  1  0.096623  0  0.101754  0.10901  0  1.081025  0
H  H86  1  0.91331655  0.40756637  0.84534606  1  0.096623  0  0.101752  0.109005  0  1.081019  0
H  H87  1  0.58668388  0.09243410  0.84534621  1  0.096606  0  0.101756  0.109013  0  1.081063  0
H  H88  1  0.78051981  0.91523836  0.43850264  1  0.05005  0  0.105383  0.11495  0  1.021094  0
H  H89  1  0.71948078  0.58476207  0.43850219  1  0.050053  0  0.105362  0.114928  0  1.021132  0
H  H90  1  0.21948121  0.41523807  0.06149729  1  0.050051  0  0.105381  0.11494  0  1.021101  0
H  H91  1  0.28051908  0.08476175  0.06149782  1  0.050047  0  0.105363  0.11493  0  1.021121  0
H  H92  1  0.21948170  0.08476221  0.56149725  1  0.050034  0  0.105377  0.114936  0  1.021072  0
H  H93  1  0.28051937  0.41523748  0.56149770  1  0.050056  0  0.105372  0.114919  0  1.021138  0
H  H94  1  0.78051894  0.58476251  0.93850259  1  0.050048  0  0.105388  0.114951  0  1.021079  0
H  H95  1  0.71948039  0.91523779  0.93850257  1  0.050054  0  0.105387  0.114959  0  1.021078  0
H  H96  1  0.67500149  0.91596685  0.34124521  1  0.138637  0  0.112129  0.08883  0  1.039064  0
H  H97  1  0.82499854  0.58403361  0.34124418  1  0.138638  0  0.112128  0.088813  0  1.039022  0
H  H98  1  0.32499818  0.41596649  0.15875472  1  0.138643  0  0.11213  0.08882  0  1.039037  0
H  H99  1  0.17500133  0.08403382  0.15875532  1  0.138626  0  0.112159  0.08887  0  1.039046  0
H  H100  1  0.32499799  0.08403373  0.65875518  1  0.13863  0  0.112147  0.088849  0  1.039081  0
H  H101  1  0.17500161  0.41596593  0.65875519  1  0.138627  0  0.11215  0.088845  0  1.039073  0
H  H102  1  0.67500130  0.58403357  0.84124466  1  0.138634  0  0.112136  0.088845  0  1.039009  0
H  H103  1  0.82499747  0.91596624  0.84124457  1  0.138653  0  0.112139  0.088831  0  1.039036  0
H  H104  1  0.88463766  0.91024043  0.49782426  1  0.077611  0  0.113739  0.094519  0  0.986577  0
H  H105  1  0.61536286  0.58975946  0.49782489  1  0.077621  0  0.113752  0.094534  0  0.986602  0
H  H106  1  0.11536268  0.41024071  0.00217517  1  0.077634  0  0.113755  0.094548  0  0.98661  0
H  H107  1  0.38463700  0.08975964  0.00217563  1  0.077624  0  0.113749  0.094512  0  0.986594  0
H  H108  1  0.11536317  0.08975911  0.50217461  1  0.07762  0  0.11375  0.094532  0  0.98662  0
H  H109  1  0.38463729  0.41024060  0.50217550  1  0.077627  0  0.113754  0.094531  0  0.986604  0
H  H110  1  0.88463679  0.58975935  0.99782523  1  0.077618  0  0.113746  0.094526  0  0.986618  0
H  H111  1  0.61536316  0.91024093  0.99782477  1  0.077629  0  0.113746  0.094517  0  0.986629  0
H  H112  1  0.88337961  0.98299777  0.55287790  1  0.080505  0  0.107466  0.092946  0  0.999895  0
H  H113  1  0.61662017  0.51700212  0.55287804  1  0.080499  0  0.107466  0.092958  0  0.999884  0
H  H114  1  0.11662079  0.48299741  0.94712235  1  0.080677  0  0.107471  0.092987  0  0.999848  0
H  H115  1  0.38337916  0.01700218  0.94712232  1  0.080678  0  0.107475  0.092973  0  0.999867  0
H  H116  1  0.11662054  0.01700229  0.44712199  1  0.080843  0  0.107465  0.092972  0  0.999877  0
H  H117  1  0.38337930  0.48299794  0.44712235  1  0.080674  0  0.107474  0.092982  0  0.999861  0
H  H118  1  0.88337936  0.51700162  0.05287804  1  0.080493  0  0.10746  0.092962  0  0.999877  0
H  H119  1  0.61662100  0.98299788  0.05287756  1  0.080678  0  0.107478  0.092989  0  0.999854  0
H  H120  1  0.95153066  0.09746402  0.50149950  1  0.033495  0  0.100075  0.072697  0  0.989149  0
H  H121  1  0.54846881  0.40253603  0.50149960  1  0.033507  0  0.100075  0.072709  0  0.989153  0
H  H122  1  0.04846930  0.59746352  0.99850084  1  0.033503  0  0.100059  0.07266  0  0.989151  0
H  H123  1  0.45153096  0.90253591  0.99850067  1  0.033499  0  0.100056  0.07266  0  0.989155  0
H  H124  1  0.04846950  0.90253604  0.49850038  1  0.033495  0  0.100064  0.072694  0  0.989158  0
H  H125  1  0.45153066  0.59746351  0.49850080  1  0.033502  0  0.100079  0.072718  0  0.989155  0
H  H126  1  0.95153017  0.40253602  0.00149904  1  0.033491  0  0.100064  0.072698  0  0.989163  0
H  H127  1  0.54846920  0.09746364  0.00149921  1  0.033501  0  0.100081  0.072709  0  0.989153  0
H  H128  1  0.99440695  0.09173818  0.41662433  1  0.095351  0  0.112128  0.09603  0  1.045809  0
H  H129  1  0.50559262  0.40826188  0.41662495  1  0.095359  0  0.112143  0.096058  0  1.045797  0
H  H130  1  0.00559292  0.59173781  0.08337568  1  0.095358  0  0.112129  0.096033  0  1.045807  0
H  H131  1  0.49440705  0.90826237  0.08337549  1  0.095364  0  0.112138  0.096042  0  1.04581  0
H  H132  1  0.00559389  0.90826188  0.58337505  1  0.095357  0  0.112134  0.096034  0  1.045819  0
H  H133  1  0.49440685  0.59173766  0.58337544  1  0.095366  0  0.112142  0.096062  0  1.045796  0
H  H134  1  0.99440724  0.40826225  0.91662471  1  0.095368  0  0.112144  0.096055  0  1.045799  0
H  H135  1  0.50559311  0.09173820  0.91662491  1  0.095363  0  0.11214  0.096046  0  1.045809  0
H  H136  1  0.57090082  0.80370474  0.11264795  1  0.081387  0  0.103728  0.106663  0  0.997587  0
H  H137  1  0.92910016  0.69629629  0.11264734  1  0.081422  0  0.103741  0.106708  0  0.997499  0
H  H138  1  0.42909823  0.30370481  0.38735150  1  0.08136  0  0.103723  0.106656  0  0.997499  0
H  H139  1  0.07090169  0.19629545  0.38735112  1  0.081359  0  0.103736  0.106682  0  0.997478  0
H  H140  1  0.42909934  0.19629532  0.88735193  1  0.081397  0  0.103729  0.106653  0  0.997587  0
H  H141  1  0.07090068  0.30370429  0.88735204  1  0.081407  0  0.103719  0.106664  0  0.997547  0
H  H142  1  0.57090124  0.69629525  0.61264839  1  0.08136  0  0.103719  0.106639  0  0.997575  0
H  H143  1  0.92909847  0.80370461  0.61264877  1  0.081361  0  0.103733  0.106687  0  0.997483  0
H  H144  1  0.47802042  0.70120696  0.07686656  1  0.078648  0  0.103783  0.119795  0  1.007658  0
H  H145  1  0.02198092  0.79879477  0.07686619  1  0.078639  0  0.10379  0.119808  0  1.00766  0
H  H146  1  0.52197938  0.20120647  0.42313342  1  0.078663  0  0.103797  0.119792  0  1.007614  0
H  H147  1  0.97802086  0.29879360  0.42313326  1  0.078639  0  0.103795  0.119831  0  1.007617  0
H  H148  1  0.52197905  0.29879361  0.92313332  1  0.078629  0  0.10379  0.119813  0  1.007673  0
H  H149  1  0.97801992  0.20120632  0.92313319  1  0.078656  0  0.103775  0.119798  0  1.007648  0
H  H150  1  0.47802078  0.79879359  0.57686646  1  0.078646  0  0.103794  0.119818  0  1.007638  0
H  H151  1  0.02197861  0.70120646  0.57686713  1  0.078655  0  0.103799  0.119837  0  1.007584  0
H  H152  1  0.32654853  0.71373117  0.26413153  1  0.074069  0  0.10918  0.125129  0  0.987313  0
H  H153  1  0.17345259  0.78626897  0.26413208  1  0.073767  0  0.109165  0.125146  0  0.987266  0
H  H154  1  0.67345126  0.21373119  0.23586845  1  0.074069  0  0.109179  0.125145  0  0.987309  0
H  H155  1  0.82654784  0.28626893  0.23586890  1  0.073852  0  0.109171  0.125141  0  0.987285  0
H  H156  1  0.67345094  0.28626941  0.73586835  1  0.073993  0  0.109152  0.125077  0  0.987352  0
H  H157  1  0.82654825  0.21373109  0.73586831  1  0.073784  0  0.109155  0.125106  0  0.987308  0
H  H158  1  0.32654822  0.78626887  0.76413143  1  0.073856  0  0.109172  0.125141  0  0.98727  0
H  H159  1  0.17345164  0.71373113  0.76413098  1  0.073998  0  0.109152  0.1251  0  0.987306  0
H  H160  1  0.42129377  0.81642372  0.29979833  1  0.090089  0  0.105825  0.109298  0  0.994947  0
H  H161  1  0.07870663  0.68357538  0.29979846  1  0.090078  0  0.105806  0.109292  0  0.994934  0
H  H162  1  0.57870596  0.31642326  0.20020163  1  0.090088  0  0.105792  0.109245  0  0.994987  0
H  H163  1  0.92129318  0.18357635  0.20020153  1  0.090081  0  0.105801  0.109255  0  0.99495  0
H  H164  1  0.57870639  0.18357583  0.70020105  1  0.090076  0  0.105816  0.109288  0  0.994919  0
H  H165  1  0.92129353  0.31642365  0.70020092  1  0.090079  0  0.105819  0.109307  0  0.994915  0
H  H166  1  0.42129352  0.68357628  0.79979826  1  0.090081  0  0.105813  0.109289  0  0.994957  0
H  H167  1  0.07870698  0.81642423  0.79979886  1  0.090068  0  0.105815  0.109284  0  0.994926  0
H  H168  1  0.23244498  0.69165603  0.06182372  1  0.067724  0  0.103356  0.116811  0  1.01228  0
H  H169  1  0.26755501  0.80834468  0.06182318  1  0.068209  0  0.103347  0.116806  0  1.012281  0
H  H170  1  0.76755414  0.19165544  0.43817627  1  0.06773  0  0.103358  0.116823  0  1.012312  0
H  H171  1  0.73244540  0.30834462  0.43817677  1  0.068379  0  0.103348  0.1168  0  1.012289  0
H  H172  1  0.76755449  0.30834455  0.93817617  1  0.067731  0  0.103348  0.116812  0  1.012335  0
H  H173  1  0.73244583  0.19165538  0.93817670  1  0.06837  0  0.103359  0.116801  0  1.012326  0
H  H174  1  0.23244533  0.80834462  0.56182362  1  0.068375  0  0.103359  0.116826  0  1.012313  0
H  H175  1  0.26755475  0.69165544  0.56182362  1  0.067741  0  0.103355  0.116818  0  1.012323  0
H  H176  1  0.20689179  0.63667435  0.94732399  1  0.094685  0  0.098982  0.098382  0  1.02174  0
H  H177  1  0.29310853  0.86332613  0.94732342  1  0.094686  0  0.098981  0.098398  0  1.021713  0
H  H178  1  0.79310815  0.13667385  0.55267584  1  0.094698  0  0.09899  0.098402  0  1.02173  0
H  H179  1  0.70689262  0.36332566  0.55267635  1  0.094698  0  0.098948  0.098336  0  1.021782  0
H  H180  1  0.79310769  0.36332520  0.05267641  1  0.094698  0  0.098974  0.098354  0  1.021746  0
H  H181  1  0.70689162  0.13667445  0.05267646  1  0.094684  0  0.098985  0.098384  0  1.021734  0
H  H182  1  0.20689201  0.86332569  0.44732405  1  0.094704  0  0.09897  0.098359  0  1.021736  0
H  H183  1  0.29310821  0.63667440  0.44732354  1  0.094684  0  0.098983  0.098382  0  1.021749  0
H  H184  1  0.41412731  0.48693409  0.99075722  1  0.117937  0  0.104233  0.10641  0  1.01162  0
H  H185  1  0.08587259  0.01306652  0.99075637  1  0.117915  0  0.104209  0.106383  0  1.011653  0
H  H186  1  0.58587241  0.98693353  0.50924303  1  0.118108  0  0.104226  0.106399  0  1.011633  0
H  H187  1  0.91412742  0.51306585  0.50924349  1  0.118104  0  0.10422  0.10637  0  1.01165  0
H  H188  1  0.58587284  0.51306597  0.00924369  1  0.118118  0  0.104219  0.106401  0  1.011651  0
H  H189  1  0.91412757  0.98693302  0.00924352  1  0.118098  0  0.104251  0.106471  0  1.011599  0
H  H190  1  0.41412775  0.01306601  0.49075686  1  0.117923  0  0.104222  0.106394  0  1.011643  0
H  H191  1  0.08587205  0.48693370  0.49075639  1  0.117925  0  0.104222  0.106404  0  1.01164  0
H  H192  1  0.44529206  0.54479341  0.10322277  1  0.102316  0  0.111056  0.128206  0  1.002514  0
H  H193  1  0.05470652  0.95520677  0.10322285  1  0.102257  0  0.111067  0.128234  0  1.00246  0
H  H194  1  0.55470579  0.04479343  0.39677725  1  0.102255  0  0.111086  0.128248  0  1.002475  0
H  H195  1  0.94529244  0.45520768  0.39677758  1  0.102259  0  0.111064  0.128206  0  1.002491  0
H  H196  1  0.55470605  0.45520717  0.89677762  1  0.102272  0  0.111061  0.128201  0  1.002466  0
H  H197  1  0.94529295  0.04479278  0.89677704  1  0.102254  0  0.111064  0.128229  0  1.00246  0
H  H198  1  0.44529301  0.95520715  0.60322263  1  0.102259  0  0.11108  0.128244  0  1.002467  0
H  H199  1  0.05470635  0.54479290  0.60322230  1  0.102259  0  0.111072  0.128244  0  1.002441  0
C  C200  1  0.48133562  0.06322174  0.26212896  1  0.453339  0  0.038361  0.104391  0  3.975401  0
C  C201  1  0.01866512  0.43677752  0.26212856  1  0.453334  0  0.038383  0.104424  0  3.975336  0
C  C202  1  0.51866562  0.56322217  0.23787106  1  0.453344  0  0.038355  0.104374  0  3.975321  0
C  C203  1  0.98133521  0.93677831  0.23787086  1  0.453333  0  0.038387  0.104411  0  3.975405  0
C  C204  1  0.51866522  0.93677781  0.73787092  1  0.453324  0  0.038395  0.104411  0  3.975399  0
C  C205  1  0.98133503  0.56322254  0.73787133  1  0.45333  0  0.038354  0.104394  0  3.975482  0
C  C206  1  0.48133590  0.43677840  0.76212934  1  0.453393  0  0.038338  0.104351  0  3.975348  0
C  C207  1  0.01866495  0.06322227  0.76212852  1  0.453325  0  0.03841  0.104486  0  3.975437  0
C  C208  1  0.41023385  0.10965977  0.26594370  1  -0.003711  0  -0.102557  -0.243864  0  3.943883  0
C  C209  1  0.08976484  0.39034052  0.26594275  1  -0.003678  0  -0.102553  -0.243815  0  3.943934  0
C  C210  1  0.58976668  0.60965966  0.23405631  1  -0.00371  0  -0.10254  -0.243832  0  3.943918  0
C  C211  1  0.91023415  0.89034082  0.23405668  1  -0.003697  0  -0.102534  -0.243774  0  3.943942  0
C  C212  1  0.58976494  0.89034029  0.73405670  1  -0.003702  0  -0.102518  -0.243736  0  3.943936  0
C  C213  1  0.91023463  0.60965954  0.73405663  1  -0.003694  0  -0.102515  -0.243726  0  3.943899  0
C  C214  1  0.41023347  0.39034040  0.76594408  1  -0.003764  0  -0.10255  -0.243883  0  3.943909  0
C  C215  1  0.08976532  0.10965924  0.76594321  1  -0.003698  0  -0.102521  -0.243761  0  3.943968  0
C  C216  1  0.39873188  0.15936549  0.21369582  1  0.413305  0  0.119429  0.227489  0  4.066006  0
C  C217  1  0.10126687  0.34063532  0.21369640  1  0.413216  0  0.119411  0.227429  0  4.066066  0
C  C218  1  0.60126794  0.65936434  0.28630417  1  0.413239  0  0.119378  0.227381  0  4.06609  0
C  C219  1  0.89873284  0.84063561  0.28630405  1  0.413047  0  0.119396  0.227434  0  4.066041  0
C  C220  1  0.60126691  0.84063560  0.78630406  1  0.413235  0  0.119397  0.227443  0  4.066041  0
C  C221  1  0.89873260  0.65936474  0.78630450  1  0.413248  0  0.119431  0.227463  0  4.066005  0
C  C222  1  0.39873290  0.34063572  0.71369622  1  0.413242  0  0.119399  0.227452  0  4.066067  0
C  C223  1  0.10126732  0.15936445  0.71369583  1  0.41324  0  0.11939  0.227418  0  4.066075  0
C  C224  1  0.46372982  0.15833894  0.16025462  1  0.004402  0  -0.110565  -0.260061  0  4.013633  0
C  C225  1  0.03627104  0.34166085  0.16025473  1  0.004402  0  -0.110538  -0.260009  0  4.013577  0
C  C226  1  0.53627136  0.65833883  0.33974487  1  0.004394  0  -0.110553  -0.260032  0  4.013639  0
C  C227  1  0.96373003  0.84166163  0.33974470  1  0.004713  0  -0.110545  -0.260034  0  4.013575  0
C  C228  1  0.53627102  0.84166112  0.83974476  1  0.004404  0  -0.11054  -0.260027  0  4.013534  0
C  C229  1  0.96372911  0.65833921  0.83974464  1  0.004403  0  -0.110546  -0.260032  0  4.01357  0
C  C230  1  0.46372811  0.34166071  0.66025502  1  0.004411  0  -0.110536  -0.260016  0  4.013519  0
C  C231  1  0.03627081  0.15833895  0.66025518  1  0.004402  0  -0.110546  -0.260015  0  4.013553  0
C  C232  1  0.53438634  0.11121689  0.16213904  1  0.471677  0  0.030144  0.092095  0  4.014948  0
C  C233  1  0.96561352  0.38878376  0.16213938  1  0.471699  0  0.030098  0.092046  0  4.01494  0
C  C234  1  0.46561419  0.61121680  0.33786046  1  0.471694  0  0.030137  0.092076  0  4.014955  0
C  C235  1  0.03438616  0.88878383  0.33786056  1  0.471677  0  0.0301  0.092045  0  4.014966  0
C  C236  1  0.46561313  0.88878369  0.83786084  1  0.471691  0  0.030098  0.092047  0  4.01487  0
C  C237  1  0.03438732  0.61121681  0.83786102  1  0.471684  0  0.030137  0.092083  0  4.014866  0
C  C238  1  0.53438733  0.38878377  0.66213943  1  0.471717  0  0.030126  0.092106  0  4.014842  0
C  C239  1  0.96561331  0.11121675  0.66213881  1  0.471683  0  0.030147  0.092094  0  4.014862  0
C  C240  1  0.30141402  0.24381890  0.15469505  1  0.312803  0  -0.050936  -0.073642  0  3.92073  0
C  C241  1  0.19858617  0.25618141  0.15469509  1  0.34291  0  -0.050927  -0.073639  0  3.92074  0
C  C242  1  0.69858712  0.74381873  0.34530441  1  0.312794  0  -0.050913  -0.073614  0  3.920725  0
C  C243  1  0.80141427  0.75618121  0.34530437  1  0.342906  0  -0.050944  -0.073644  0  3.920747  0
C  C244  1  0.69858614  0.75618168  0.84530483  1  0.342904  0  -0.050929  -0.073622  0  3.920744  0
C  C245  1  0.80141330  0.74381865  0.84530480  1  0.312789  0  -0.050934  -0.073658  0  3.920739  0
C  C246  1  0.30141440  0.25618133  0.65469548  1  0.342909  0  -0.050949  -0.073655  0  3.920737  0
C  C247  1  0.19858657  0.24381885  0.65469551  1  0.312801  0  -0.050913  -0.073566  0  3.920723  0
C  C248  1  0.27270638  0.21456923  0.27616198  1  0.273507  0  -0.054549  -0.076582  0  3.886488  0
C  C249  1  0.22729367  0.28543105  0.27616198  1  0.300427  0  -0.054555  -0.07655  0  3.88647  0
C  C250  1  0.72729409  0.71456908  0.22383800  1  0.273498  0  -0.054563  -0.076587  0  3.886487  0
C  C251  1  0.77270608  0.78543089  0.22383798  1  0.300449  0  -0.05458  -0.076628  0  3.886446  0
C  C252  1  0.72729378  0.78543083  0.72383791  1  0.300433  0  -0.05457  -0.076598  0  3.886531  0
C  C253  1  0.77270581  0.71456901  0.72383790  1  0.273505  0  -0.054595  -0.076631  0  3.886502  0
C  C254  1  0.27270675  0.28543098  0.77616239  1  0.300431  0  -0.054608  -0.07665  0  3.8865  0
C  C255  1  0.22729408  0.21456917  0.77616190  1  0.273516  0  -0.054607  -0.076648  0  3.886432  0
C  C256  1  0.80340140  0.04548052  0.29403497  1  0.42033  0  0.042248  0.113216  0  3.982961  0
C  C257  1  0.69659830  0.45451906  0.29403648  1  0.420242  0  0.042248  0.113185  0  3.982958  0
C  C258  1  0.19659849  0.54548005  0.20596403  1  0.420332  0  0.042224  0.113193  0  3.983046  0
C  C259  1  0.30340133  0.95451959  0.20596446  1  0.420298  0  0.042231  0.113166  0  3.982982  0
C  C260  1  0.19659807  0.95451954  0.70596390  1  0.42032  0  0.04219  0.113103  0  3.983042  0
C  C261  1  0.30340117  0.54548048  0.70596442  1  0.420297  0  0.042255  0.113209  0  3.98298  0
C  C262  1  0.80340167  0.45451898  0.79403585  1  0.420263  0  0.042249  0.113247  0  3.982949  0
C  C263  1  0.69659882  0.04548047  0.79403543  1  0.420326  0  0.04223  0.113156  0  3.983013  0
C  C264  1  0.86449301  0.05045670  0.34697446  1  0.008702  0  -0.102089  -0.232487  0  3.950387  0
C  C265  1  0.63550800  0.44954287  0.34697398  1  0.008714  0  -0.102069  -0.232385  0  3.950362  0
C  C266  1  0.13550688  0.55045730  0.15302556  1  0.008719  0  -0.102047  -0.232378  0  3.950363  0
C  C267  1  0.36449232  0.94954286  0.15302594  1  0.008723  0  -0.102115  -0.232484  0  3.95041  0
C  C268  1  0.13550783  0.94954336  0.65302542  1  0.00871  0  -0.102103  -0.232437  0  3.950414  0
C  C269  1  0.36449215  0.55045719  0.65302591  1  0.008724  0  -0.102113  -0.232482  0  3.9504  0
C  C270  1  0.86449259  0.44954328  0.84697433  1  0.008727  0  -0.102042  -0.232391  0  3.950354  0
C  C271  1  0.63550647  0.05045720  0.84697445  1  0.008701  0  -0.102094  -0.232478  0  3.95039  0
C  C272  1  0.86279316  0.00201466  0.40110882  1  0.370747  0  0.125488  0.239555  0  4.026272  0
C  C273  1  0.63720642  0.49798541  0.40110934  1  0.370779  0  0.125524  0.23957  0  4.026226  0
C  C274  1  0.13720676  0.50201372  0.09889070  1  0.370768  0  0.125471  0.239509  0  4.026323  0
C  C275  1  0.36279319  0.99798542  0.09889057  1  0.370788  0  0.125476  0.239542  0  4.026241  0
C  C276  1  0.13720768  0.99798540  0.59889106  1  0.370633  0  0.125524  0.239617  0  4.026265  0
C  C277  1  0.36279237  0.50201413  0.59889105  1  0.370768  0  0.125453  0.239515  0  4.026278  0
C  C278  1  0.86279203  0.49798582  0.90110918  1  0.370756  0  0.12547  0.23952  0  4.026336  0
C  C279  1  0.63720697  0.00201412  0.90110932  1  0.370752  0  0.125463  0.239533  0  4.026319  0
C  C280  1  0.79190658  0.95230777  0.39782165  1  0.040697  0  -0.105599  -0.252211  0  3.991625  0
C  C281  1  0.70809406  0.54769215  0.39782122  1  0.0407  0  -0.10558  -0.252217  0  3.991649  0
C  C282  1  0.20809374  0.45230799  0.10217878  1  0.040674  0  -0.105571  -0.252179  0  3.991757  0
C  C283  1  0.29190514  0.04769234  0.10217829  1  0.040692  0  -0.105574  -0.25218  0  3.991604  0
C  C284  1  0.20809426  0.04769229  0.60217773  1  0.040821  0  -0.105576  -0.252202  0  3.991593  0
C  C285  1  0.29190541  0.45230791  0.60217867  1  0.040684  0  -0.105567  -0.252153  0  3.991672  0
C  C286  1  0.79190573  0.54769207  0.89782161  1  0.040676  0  -0.105567  -0.252167  0  3.991758  0
C  C287  1  0.70809365  0.95230824  0.89782159  1  0.040686  0  -0.105566  -0.252189  0  3.991689  0
C  C288  1  0.73196729  0.95208357  0.34355643  1  0.426283  0  0.036016  0.100073  0  3.987397  0
C  C289  1  0.76803206  0.54791637  0.34355596  1  0.426265  0  0.03603  0.100154  0  3.987356  0
C  C290  1  0.26803167  0.45208324  0.15644298  1  0.425727  0  0.036023  0.100128  0  3.987222  0
C  C291  1  0.23196715  0.04791656  0.15644356  1  0.426274  0  0.035988  0.100017  0  3.987317  0
C  C292  1  0.26803287  0.04791700  0.65644346  1  0.426241  0  0.036009  0.10009  0  3.987232  0
C  C293  1  0.23196742  0.45208318  0.65644342  1  0.426269  0  0.036034  0.100123  0  3.987281  0
C  C294  1  0.73196780  0.54791682  0.84355690  1  0.425734  0  0.035971  0.100028  0  3.987192  0
C  C295  1  0.76803164  0.95208402  0.84355633  1  0.425751  0  0.035995  0.100053  0  3.987269  0
C  C296  1  0.92102684  0.95771016  0.51112787  1  0.301841  0  -0.054917  -0.077242  0  3.904201  0
C  C297  1  0.57897299  0.54228973  0.51112804  1  0.301792  0  -0.05495  -0.077289  0  3.904261  0
C  C298  1  0.07897358  0.45771032  0.98887238  1  0.301701  0  -0.054933  -0.07734  0  3.904286  0
C  C299  1  0.42102700  0.04229029  0.98887232  1  0.301701  0  -0.054929  -0.077234  0  3.904231  0
C  C300  1  0.07897331  0.04228990  0.48887201  1  0.301533  0  -0.054952  -0.077348  0  3.904326  0
C  C301  1  0.42102649  0.45770981  0.48887236  1  0.301693  0  -0.05493  -0.077279  0  3.904255  0
C  C302  1  0.92102658  0.54228974  0.01112801  1  0.301877  0  -0.054914  -0.077305  0  3.9043  0
C  C303  1  0.57897315  0.95770977  0.01112756  1  0.301686  0  -0.054933  -0.077308  0  3.904299  0
C  C304  1  0.98444045  0.06300360  0.46388710  1  0.285706  0  -0.057703  -0.082901  0  3.915159  0
C  C305  1  0.51555974  0.43699645  0.46388721  1  0.285693  0  -0.05773  -0.082963  0  3.915209  0
C  C306  1  0.01555943  0.56300375  0.03611292  1  0.285697  0  -0.057705  -0.08286  0  3.915095  0
C  C307  1  0.48444059  0.93699644  0.03611272  1  0.285645  0  -0.057718  -0.082874  0  3.915129  0
C  C308  1  0.01555970  0.93699594  0.53611278  1  0.285685  0  -0.057715  -0.082933  0  3.915138  0
C  C309  1  0.48444041  0.56300361  0.53611268  1  0.285687  0  -0.057747  -0.082986  0  3.915218  0
C  C310  1  0.98444004  0.43699631  0.96388748  1  0.285663  0  -0.057724  -0.082943  0  3.915179  0
C  C311  1  0.51555957  0.06300362  0.96388717  1  0.285691  0  -0.057722  -0.08295  0  3.915176  0
C  C312  1  0.55381855  0.87901888  0.22894436  1  1.559357  0  0.190953  0.544445  0  4.262824  0
C  C313  1  0.94618161  0.62098108  0.22894529  1  1.559468  0  0.190915  0.544381  0  4.262766  0
C  C314  1  0.44618045  0.37901845  0.27105558  1  1.559463  0  0.190943  0.544368  0  4.262905  0
C  C315  1  0.05381892  0.12098131  0.27105574  1  1.559481  0  0.190895  0.544255  0  4.262754  0
C  C316  1  0.44618229  0.12098118  0.77105603  1  1.559323  0  0.190899  0.544364  0  4.262791  0
C  C317  1  0.05381787  0.37901898  0.77105460  1  1.559456  0  0.190946  0.544375  0  4.262865  0
C  C318  1  0.55381902  0.62098161  0.72894329  1  1.559339  0  0.190912  0.544377  0  4.262604  0
C  C319  1  0.94618124  0.87901875  0.72894415  1  1.559459  0  0.190889  0.544236  0  4.262802  0
C  C320  1  0.50154998  0.81615403  0.20832862  1  -0.010765  0  -0.036189  -0.074865  0  4.015491  0
C  C321  1  0.99845021  0.68384594  0.20832796  1  -0.010877  0  -0.036174  -0.074821  0  4.015427  0
C  C322  1  0.49844907  0.31615410  0.29167083  1  -0.010937  0  -0.036221  -0.074875  0  4.015438  0
C  C323  1  0.00155096  0.18384566  0.29167101  1  -0.01091  0  -0.036241  -0.074882  0  4.015492  0
C  C324  1  0.49845018  0.18384551  0.79167178  1  -0.010791  0  -0.036195  -0.074903  0  4.01547  0
C  C325  1  0.00155063  0.31615464  0.79167192  1  -0.010875  0  -0.036162  -0.074766  0  4.015291  0
C  C326  1  0.50155109  0.68384545  0.70832804  1  -0.010795  0  -0.036155  -0.074813  0  4.015383  0
C  C327  1  0.99844851  0.81615491  0.70832888  1  -0.010902  0  -0.036184  -0.074777  0  4.015394  0
C  C328  1  0.51693782  0.78381698  0.14541787  1  -0.082867  0  -0.089087  -0.080329  0  4.018846  0
C  C329  1  0.98306380  0.71618404  0.14541824  1  -0.082864  0  -0.089095  -0.08041  0  4.018891  0
C  C330  1  0.48306192  0.28381549  0.35458107  1  -0.082808  0  -0.089126  -0.080397  0  4.01886  0
C  C331  1  0.01693872  0.21618374  0.35458072  1  -0.082813  0  -0.089086  -0.080319  0  4.01882  0
C  C332  1  0.48306233  0.21618359  0.85458151  1  -0.082869  0  -0.08908  -0.080274  0  4.018917  0
C  C333  1  0.01693704  0.28381550  0.85458165  1  -0.082875  0  -0.08907  -0.080328  0  4.018883  0
C  C334  1  0.51693755  0.71618354  0.64541881  1  -0.082865  0  -0.089111  -0.080315  0  4.018934  0
C  C335  1  0.98306144  0.78381580  0.64541865  1  -0.08282  0  -0.089111  -0.080398  0  4.018827  0
C  C336  1  0.46515403  0.72715224  0.12516679  1  -0.00328  0  -0.111148  -0.224946  0  4.019696  0
C  C337  1  0.03484452  0.77284793  0.12516641  1  -0.0033  0  -0.111135  -0.224923  0  4.019636  0
C  C338  1  0.53484302  0.22715330  0.37483268  1  -0.003332  0  -0.111058  -0.224787  0  4.019522  0
C  C339  1  0.96515591  0.27284729  0.37483253  1  -0.003275  0  -0.111125  -0.224983  0  4.019681  0
C  C340  1  0.53484339  0.27284782  0.87483361  1  -0.003277  0  -0.111098  -0.22495  0  4.019614  0
C  C341  1  0.96515632  0.22715264  0.87483347  1  -0.003307  0  -0.111122  -0.224962  0  4.019641  0
C  C342  1  0.46515646  0.77284727  0.62516619  1  -0.003285  0  -0.111127  -0.224963  0  4.019595  0
C  C343  1  0.03484424  0.72715277  0.62516837  1  -0.003291  0  -0.11112  -0.224954  0  4.019692  0
C  C344  1  0.39685804  0.70262616  0.16875390  1  0.372855  0  0.091153  0.277128  0  4.048746  0
C  C345  1  0.10314250  0.79737400  0.16875450  1  0.372909  0  0.091191  0.277188  0  4.048646  0
C  C346  1  0.60314243  0.20262566  0.33124659  1  0.372895  0  0.091197  0.277183  0  4.048489  0
C  C347  1  0.89685791  0.29737392  0.33124597  1  0.372877  0  0.091166  0.277174  0  4.048689  0
C  C348  1  0.60314211  0.29737442  0.83124547  1  0.372947  0  0.091159  0.277235  0  4.048528  0
C  C349  1  0.89685697  0.20262554  0.83124539  1  0.372947  0  0.091143  0.277209  0  4.048601  0
C  C350  1  0.39685704  0.79737389  0.66875431  1  0.37296  0  0.091197  0.277187  0  4.048604  0
C  C351  1  0.10314088  0.70262563  0.66875442  1  0.372899  0  0.091161  0.27719  0  4.048638  0
C  C352  1  0.38019311  0.73443469  0.23162136  1  0.006838  0  -0.101307  -0.199877  0  3.994742  0
C  C353  1  0.11980668  0.76556442  0.23162246  1  0.006847  0  -0.101312  -0.199938  0  3.994804  0
C  C354  1  0.61980667  0.23443472  0.26837862  1  0.006825  0  -0.101358  -0.200015  0  3.994698  0
C  C355  1  0.88019239  0.26556539  0.26837853  1  0.006787  0  -0.101298  -0.199926  0  3.994775  0
C  C356  1  0.61980637  0.26556434  0.76837751  1  0.006838  0  -0.10126  -0.199832  0  3.994802  0
C  C357  1  0.88019415  0.23443564  0.76837743  1  0.006828  0  -0.101241  -0.199827  0  3.994842  0
C  C358  1  0.38019281  0.76556534  0.73162127  1  0.006719  0  -0.101323  -0.199924  0  3.994738  0
C  C359  1  0.11980640  0.73443570  0.73162238  1  0.006864  0  -0.101283  -0.199868  0  3.994687  0
C  C360  1  0.43273101  0.79061483  0.25117469  1  -0.031987  0  -0.081136  -0.067094  0  3.992281  0
C  C361  1  0.06727012  0.70938582  0.25117482  1  -0.031958  0  -0.08114  -0.067124  0  3.992337  0
C  C362  1  0.56726941  0.29061385  0.24882476  1  -0.031963  0  -0.081104  -0.067017  0  3.992274  0
C  C363  1  0.93273103  0.20938574  0.24882465  1  -0.031929  0  -0.081107  -0.067039  0  3.992239  0
C  C364  1  0.56726982  0.20938574  0.74882520  1  -0.031958  0  -0.081146  -0.067115  0  3.992309  0
C  C365  1  0.93273004  0.29061372  0.74882507  1  -0.031951  0  -0.081169  -0.067222  0  3.992354  0
C  C366  1  0.43273075  0.70938569  0.75117563  1  -0.031918  0  -0.081139  -0.067133  0  3.992253  0
C  C367  1  0.06726912  0.79061483  0.75117523  1  -0.031947  0  -0.081147  -0.067127  0  3.992256  0
C  C368  1  0.33985139  0.62072393  0.08805917  1  0.372498  0  0.081794  0.252779  0  4.048506  0
C  C369  1  0.16014857  0.87927574  0.08805869  1  0.372504  0  0.081827  0.252821  0  4.048562  0
C  C370  1  0.66014777  0.12072442  0.41194134  1  0.372514  0  0.081813  0.252797  0  4.048477  0
C  C371  1  0.83985112  0.37927565  0.41194125  1  0.372493  0  0.081798  0.252758  0  4.048523  0
C  C372  1  0.66014740  0.37927562  0.91194123  1  0.372496  0  0.08181  0.25284  0  4.048404  0
C  C373  1  0.83985159  0.12072381  0.91194069  1  0.372526  0  0.081789  0.25273  0  4.048534  0
C  C374  1  0.33985170  0.87927564  0.58805854  1  0.372515  0  0.081812  0.252785  0  4.048485  0
C  C375  1  0.16014768  0.62072441  0.58805914  1  0.372515  0  0.081787  0.252765  0  4.048512  0
C  C376  1  0.27376119  0.64818451  0.04467633  1  0.037283  0  -0.103205  -0.202332  0  4.011507  0
C  C377  1  0.22623746  0.85181672  0.04467632  1  0.037468  0  -0.103197  -0.202355  0  4.0117  0
C  C378  1  0.72623796  0.14818393  0.45532316  1  0.0373  0  -0.103191  -0.202331  0  4.01157  0
C  C379  1  0.77376225  0.35181664  0.45532363  1  0.03731  0  -0.103198  -0.202344  0  4.011542  0
C  C380  1  0.72623760  0.35181555  0.95532356  1  0.037299  0  -0.103212  -0.202397  0  4.011542  0
C  C381  1  0.77376134  0.14818386  0.95532357  1  0.037312  0  -0.103195  -0.202301  0  4.011566  0
C  C382  1  0.27376288  0.85181613  0.54467622  1  0.037292  0  -0.103175  -0.202331  0  4.011643  0
C  C383  1  0.22623723  0.64818393  0.54467626  1  0.037309  0  -0.103184  -0.20232  0  4.011617  0
C  C384  1  0.25894901  0.61696997  0.98178885  1  -0.109288  0  -0.089796  -0.078932  0  4.000542  0
C  C385  1  0.24105059  0.88302997  0.98178882  1  -0.109268  0  -0.089787  -0.078932  0  4.00052  0
C  C386  1  0.74105094  0.11696951  0.51821099  1  -0.109256  0  -0.089807  -0.078958  0  4.00048  0
C  C387  1  0.75895056  0.38303053  0.51821196  1  -0.109108  0  -0.089763  -0.078859  0  4.000509  0
C  C388  1  0.74104910  0.38303009  0.01821155  1  -0.109091  0  -0.089794  -0.078897  0  4.000536  0
C  C389  1  0.75894957  0.11696957  0.01821157  1  -0.109266  0  -0.089772  -0.078892  0  4.000477  0
C  C390  1  0.25895058  0.88303004  0.48178890  1  -0.109088  0  -0.089823  -0.078939  0  4.000566  0
C  C391  1  0.24105028  0.61697004  0.48178843  1  -0.109081  0  -0.089785  -0.078911  0  4.00048  0
C  C392  1  0.30815891  0.55787497  0.96284105  1  -0.022428  0  -0.025961  -0.051172  0  3.978392  0
C  C393  1  0.19184003  0.94212550  0.96284053  1  -0.022433  0  -0.025962  -0.051183  0  3.978392  0
C  C394  1  0.69184039  0.05787400  0.53715880  1  -0.022452  0  -0.025997  -0.051255  0  3.978493  0
C  C395  1  0.80816039  0.44212500  0.53715922  1  -0.022632  0  -0.025965  -0.051221  0  3.978468  0
C  C396  1  0.69183989  0.44212457  0.03715934  1  -0.02264  0  -0.025948  -0.05115  0  3.978427  0
C  C397  1  0.80815944  0.05787456  0.03715935  1  -0.022453  0  -0.025957  -0.051161  0  3.978419  0
C  C398  1  0.30816044  0.94212503  0.46284058  1  -0.022628  0  -0.025953  -0.051173  0  3.978404  0
C  C399  1  0.19183976  0.55787454  0.46284067  1  -0.022631  0  -0.025986  -0.051224  0  3.978424  0
C  C400  1  0.37663818  0.53301112  0.00607382  1  -0.091358  0  -0.081249  -0.072023  0  3.979727  0
C  C401  1  0.12336119  0.96698908  0.00607334  1  -0.091366  0  -0.081232  -0.071982  0  3.979699  0
C  C402  1  0.62336240  0.03301109  0.49392672  1  -0.091374  0  -0.08125  -0.071999  0  3.979737  0
C  C403  1  0.87663844  0.46698948  0.49392760  1  -0.091367  0  -0.081236  -0.071971  0  3.979655  0
C  C404  1  0.62336130  0.46698843  0.99392709  1  -0.091375  0  -0.081237  -0.072014  0  3.979737  0
C  C405  1  0.87663760  0.03301046  0.99392655  1  -0.091345  0  -0.08127  -0.072096  0  3.979718  0
C  C406  1  0.37663844  0.96698897  0.50607317  1  -0.091381  0  -0.081249  -0.072019  0  3.979737  0
C  C407  1  0.12336240  0.53301110  0.50607330  1  -0.091369  0  -0.08124  -0.071997  0  3.979727  0
C  C408  1  0.39357508  0.56465432  0.06858169  1  0.021507  0  -0.094694  -0.189669  0  3.977155  0
C  C409  1  0.10642354  0.93534690  0.06858174  1  0.021545  0  -0.094715  -0.18971  0  3.977045  0
C  C410  1  0.60642344  0.06465276  0.43141833  1  0.021546  0  -0.094723  -0.189702  0  3.977052  0
C  C411  1  0.89357679  0.43534627  0.43141768  1  0.021565  0  -0.094695  -0.189628  0  3.976975  0
C  C412  1  0.60642372  0.43534574  0.93141921  1  0.021549  0  -0.094672  -0.189626  0  3.977101  0
C  C413  1  0.89357593  0.06465265  0.93141764  1  0.021545  0  -0.094725  -0.189686  0  3.977051  0
C  C414  1  0.39357672  0.93534730  0.56858156  1  0.02154  0  -0.094718  -0.189687  0  3.977025  0
C  C415  1  0.10642405  0.56465276  0.56858170  1  0.021546  0  -0.094713  -0.189688  0  3.977051  0
C  C416  1  0.28227761  0.51741544  0.90018090  1  1.573271  0  0.197203  0.565943  0  4.247791  0
C  C417  1  0.21772208  0.98258453  0.90018086  1  1.573251  0  0.197168  0.565866  0  4.247775  0
C  C418  1  0.71772171  0.01741547  0.59981896  1  1.573181  0  0.197182  0.565949  0  4.247745  0
C  C419  1  0.78227832  0.48258455  0.59981990  1  1.573273  0  0.197212  0.565926  0  4.247775  0
C  C420  1  0.71772186  0.48258411  0.09981949  1  1.573185  0  0.197151  0.565884  0  4.247798  0
C  C421  1  0.78227808  0.01741553  0.09981902  1  1.573193  0  0.197163  0.565902  0  4.247745  0
C  C422  1  0.28227844  0.98258459  0.40018093  1  1.573251  0  0.197177  0.565919  0  4.247765  0
C  C423  1  0.21772251  0.51741603  0.40018050  1  1.573176  0  0.197181  0.56589  0  4.247831  0
N  N424  1  0.54461804  0.06356271  0.21188010  1  -1.297733  0  -0.355104  -0.271107  0  3.581609  0
N  N425  1  0.95538108  0.43643690  0.21187941  1  -1.297746  0  -0.355086  -0.271103  0  3.581532  0
N  N426  1  0.45538252  0.56356316  0.28811992  1  -1.297706  0  -0.355132  -0.271171  0  3.581639  0
N  N427  1  0.04461857  0.93643749  0.28812000  1  -1.297747  0  -0.355099  -0.271104  0  3.581606  0
N  N428  1  0.45538211  0.93643735  0.78812029  1  -1.29773  0  -0.355092  -0.2711  0  3.581631  0
N  N429  1  0.04461771  0.56356265  0.78811996  1  -1.297718  0  -0.355112  -0.271164  0  3.581627  0
N  N430  1  0.54461764  0.43643690  0.71188048  1  -1.297744  0  -0.355097  -0.271129  0  3.581661  0
N  N431  1  0.95538158  0.06356257  0.71188039  1  -1.297733  0  -0.355122  -0.271167  0  3.581637  0
N  N432  1  0.32812513  0.20495418  0.21490952  1  -1.215202  0  -0.283341  -0.083181  0  3.630791  0
N  N433  1  0.17187567  0.29504508  0.21490956  1  -1.215171  0  -0.283386  -0.0832  0  3.630759  0
N  N434  1  0.67187670  0.70495455  0.28509046  1  -1.215167  0  -0.283355  -0.083111  0  3.630711  0
N  N435  1  0.82812475  0.79504592  0.28509040  1  -1.215177  0  -0.283343  -0.083164  0  3.630692  0
N  N436  1  0.67187502  0.79504484  0.78509037  1  -1.215166  0  -0.283352  -0.083194  0  3.63072  0
N  N437  1  0.82812381  0.70495446  0.78509084  1  -1.215169  0  -0.283346  -0.083142  0  3.630682  0
N  N438  1  0.32812481  0.29504551  0.71490993  1  -1.215165  0  -0.28333  -0.083136  0  3.630696  0
N  N439  1  0.17187609  0.20495466  0.71490948  1  -1.215159  0  -0.283352  -0.083173  0  3.630673  0
N  N440  1  0.73708862  0.99703990  0.29106102  1  -1.244041  0  -0.356555  -0.274141  0  3.619291  0
N  N441  1  0.76291147  0.50296006  0.29106057  1  -1.244056  0  -0.356591  -0.274217  0  3.61926  0
N  N442  1  0.26291100  0.49704058  0.20893940  1  -1.243508  0  -0.356556  -0.274182  0  3.619166  0
N  N443  1  0.23708845  0.00296023  0.20893947  1  -1.244043  0  -0.356533  -0.274061  0  3.619207  0
N  N444  1  0.26291154  0.00295965  0.70893937  1  -1.244016  0  -0.356553  -0.274154  0  3.619134  0
N  N445  1  0.23708869  0.49703949  0.70893983  1  -1.24403  0  -0.356595  -0.274199  0  3.619183  0
N  N446  1  0.73708779  0.50295948  0.79106049  1  -1.243532  0  -0.356613  -0.274257  0  3.619077  0
N  N447  1  0.76291034  0.99704034  0.79106042  1  -1.24354  0  -0.356542  -0.274102  0  3.619248  0
N  N448  1  0.92621257  0.00319463  0.45213688  1  -1.151548  0  -0.281457  -0.079796  0  3.611499  0
N  N449  1  0.57378763  0.49680543  0.45213693  1  -1.15156  0  -0.281446  -0.079799  0  3.611563  0
N  N450  1  0.07378734  0.50319476  0.04786264  1  -1.151618  0  -0.281466  -0.079797  0  3.61153  0
N  N451  1  0.42621266  0.99680595  0.04786348  1  -1.151588  0  -0.281424  -0.079819  0  3.61156  0
N  N452  1  0.07378758  0.99680543  0.54786199  1  -1.151606  0  -0.281435  -0.079769  0  3.611464  0
N  N453  1  0.42621252  0.50319412  0.54786295  1  -1.151578  0  -0.281411  -0.079777  0  3.611541  0
N  N454  1  0.92621213  0.49680530  0.95213775  1  -1.151581  0  -0.28144  -0.079762  0  3.611498  0
N  N455  1  0.57378749  0.00319463  0.95213691  1  -1.151599  0  -0.281463  -0.079786  0  3.611514  0
O  O456  1  0.60503987  0.90601034  0.18154355  1  -1.182376  0  -0.339583  -0.561278  0  2.320159  0
O  O457  1  0.89495898  0.59398964  0.18154299  1  -1.182396  0  -0.339528  -0.56123  0  2.319955  0
O  O458  1  0.39495980  0.40600940  0.31845587  1  -1.182375  0  -0.339543  -0.561217  0  2.32021  0
O  O459  1  0.10504088  0.09398932  0.31845702  1  -1.182399  0  -0.339534  -0.561168  0  2.319989  0
O  O460  1  0.39496029  0.09398972  0.81845735  1  -1.18236  0  -0.339548  -0.561224  0  2.320062  0
O  O461  1  0.10504049  0.40601042  0.81845639  1  -1.182375  0  -0.339581  -0.561258  0  2.320129  0
O  O462  1  0.60504104  0.59399014  0.68154300  1  -1.182381  0  -0.339523  -0.561204  0  2.319985  0
O  O463  1  0.89495927  0.90601074  0.68154286  1  -1.182392  0  -0.339536  -0.561183  0  2.31997  0
O  O464  1  0.54566641  0.90325410  0.28786315  1  -1.181376  0  -0.330644  -0.561122  0  2.133141  0
O  O465  1  0.95433163  0.59674688  0.28786204  1  -1.181364  0  -0.330668  -0.561123  0  2.133309  0
O  O466  1  0.45433258  0.40325369  0.21213678  1  -1.181363  0  -0.330642  -0.561086  0  2.133116  0
O  O467  1  0.04566755  0.09674610  0.21213644  1  -1.18137  0  -0.330622  -0.561037  0  2.133108  0
O  O468  1  0.45433374  0.09674596  0.71213673  1  -1.181363  0  -0.330653  -0.561128  0  2.133157  0
O  O469  1  0.04566716  0.40325369  0.71213734  1  -1.18139  0  -0.330615  -0.56106  0  2.13319  0
O  O470  1  0.54566758  0.59674586  0.78786412  1  -1.181351  0  -0.33068  -0.56116  0  2.132995  0
O  O471  1  0.95433261  0.90325448  0.78786293  1  -1.181355  0  -0.330618  -0.561029  0  2.133138  0
O  O472  1  0.34468219  0.64572531  0.15452437  1  -1.097144  0  -0.151525  -0.225073  0  2.606488  0
O  O473  1  0.15531701  0.85427382  0.15452441  1  -1.097125  0  -0.151535  -0.225066  0  2.606488  0
O  O474  1  0.65531627  0.14572582  0.34547563  1  -1.097134  0  -0.151559  -0.225093  0  2.606526  0
O  O475  1  0.84468269  0.35427427  0.34547554  1  -1.097131  0  -0.151546  -0.225082  0  2.606497  0
O  O476  1  0.65531660  0.35427423  0.84547551  1  -1.097149  0  -0.151566  -0.225161  0  2.606493  0
O  O477  1  0.84468383  0.14572572  0.84547548  1  -1.09716  0  -0.151553  -0.22511  0  2.606573  0
O  O478  1  0.34468388  0.85427424  0.65452426  1  -1.097123  0  -0.151552  -0.22507  0  2.606515  0
O  O479  1  0.15531678  0.64572579  0.65452486  1  -1.097144  0  -0.151523  -0.225112  0  2.606489  0
O  O480  1  0.21949366  0.54658400  0.86297851  1  -1.192603  0  -0.346859  -0.586519  0  2.368511  0
O  O481  1  0.28050744  0.95341598  0.86297895  1  -1.192605  0  -0.346858  -0.586506  0  2.36848  0
O  O482  1  0.78050701  0.04658349  0.63702185  1  -1.19259  0  -0.34685  -0.586502  0  2.368438  0
O  O483  1  0.71949298  0.45341549  0.63702233  1  -1.19262  0  -0.346876  -0.58653  0  2.368468  0
O  O484  1  0.78050650  0.45341606  0.13702188  1  -1.192599  0  -0.346867  -0.586499  0  2.368528  0
O  O485  1  0.71949408  0.04658408  0.13702246  1  -1.192604  0  -0.346849  -0.586476  0  2.368493  0
O  O486  1  0.21949451  0.95341657  0.36297753  1  -1.192576  0  -0.346858  -0.586492  0  2.368524  0
O  O487  1  0.28050581  0.54658354  0.36297807  1  -1.192604  0  -0.346837  -0.586437  0  2.368559  0
O  O488  1  0.31728815  0.45978457  0.88944825  1  -1.180023  0  -0.330115  -0.54577  0  2.117463  0
O  O489  1  0.18271186  0.04021555  0.88944834  1  -1.180025  0  -0.330094  -0.545711  0  2.117399  0
O  O490  1  0.68271158  0.95978395  0.61055252  1  -1.179965  0  -0.330084  -0.545746  0  2.117402  0
O  O491  1  0.81728745  0.54021488  0.61055202  1  -1.180015  0  -0.330106  -0.545721  0  2.117491  0
O  O492  1  0.68271064  0.54021497  0.11055317  1  -1.179948  0  -0.330077  -0.545762  0  2.117417  0
O  O493  1  0.81728898  0.95978348  0.11055205  1  -1.179967  0  -0.330109  -0.545794  0  2.117356  0
O  O494  1  0.31728789  0.04021611  0.38944890  1  -1.180041  0  -0.330097  -0.545756  0  2.11737  0
O  O495  1  0.18271134  0.45978363  0.38944787  1  -1.17996  0  -0.330128  -0.545802  0  2.117388  0
