# generated using pymatgen
data_Dy2H37C42(NO4)4
_symmetry_space_group_name_H-M   'P 1'
_cell_length_a   18.36598201
_cell_length_b   18.36604458
_cell_length_c   19.28023414
_cell_angle_alpha   87.22560294
_cell_angle_beta   87.22575595
_cell_angle_gamma   70.74770948
_symmetry_Int_Tables_number   1
_chemical_formula_structural   Dy2H37C42(NO4)4
_chemical_formula_sum   'Dy8 H148 C168 N16 O64'
_cell_volume   6128.89905813
_cell_formula_units_Z   4
loop_
 _symmetry_equiv_pos_site_id
 _symmetry_equiv_pos_as_xyz
  1  'x, y, z'
loop_
 _atom_site_type_symbol
 _atom_site_label
 _atom_site_symmetry_multiplicity
 _atom_site_fract_x
 _atom_site_fract_y
 _atom_site_fract_z
 _atom_site_occupancy
 _atom_site_pbe_bader_charge
 _atom_site_pbe_bader_spin_density
 _atom_site_pbe_cm5_charge
 _atom_site_pbe_ddec_charge
 _atom_site_pbe_ddec_spin_density
 _atom_site_pbe_ddec_sum_bond_order
 _atom_site_pbe_magmom
Dy  Dy0  1  0.45104860  0.10321052  0.93697105  1  2.19716  0  1.528735  2.088017  0  2.174307  0
Dy  Dy1  1  0.89679201  0.54895251  0.56302651  1  2.197107  0  1.52865  2.087926  0  2.174389  0
Dy  Dy2  1  0.54895063  0.89679332  0.06302958  1  2.197171  0  1.528632  2.087878  0  2.17438  0
Dy  Dy3  1  0.10320893  0.45104910  0.43696895  1  2.197064  0  1.528638  2.087933  0  2.17438  0
Dy  Dy4  1  0.00730675  0.35248837  0.03344175  1  2.180428  0  1.537729  2.05987  0  2.215003  0
Dy  Dy5  1  0.64751302  0.99269169  0.46655741  1  2.180476  0  1.537711  2.0598  0  2.21503  0
Dy  Dy6  1  0.99269247  0.64751057  0.96655756  1  2.180408  0  1.537715  2.059856  0  2.214976  0
Dy  Dy7  1  0.35248677  0.00730542  0.53344249  1  2.180288  0  1.537707  2.059794  0  2.215007  0
H  H8  1  0.41678717  0.37950949  0.90358603  1  0.09081  0  0.110144  0.120191  0  0.991095  0
H  H9  1  0.62048901  0.58321401  0.59641182  1  0.090866  0  0.110156  0.120207  0  0.991099  0
H  H10  1  0.58321611  0.62049032  0.09642185  1  0.090803  0  0.110183  0.120187  0  0.991124  0
H  H11  1  0.37951251  0.41678362  0.40358848  1  0.090949  0  0.110129  0.12015  0  0.991029  0
H  H12  1  0.19830479  0.55806266  0.94525530  1  0.17188  0  0.109486  0.119416  0  1.037663  0
H  H13  1  0.44193625  0.80169697  0.55473108  1  0.1727  0  0.109407  0.119335  0  1.037852  0
H  H14  1  0.80169501  0.44193935  0.05474280  1  0.171975  0  0.109485  0.119416  0  1.037681  0
H  H15  1  0.55806469  0.19830193  0.44526659  1  0.172709  0  0.109408  0.119337  0  1.037881  0
H  H16  1  0.22711202  0.32053917  0.00083792  1  0.155594  0  0.113181  0.126605  0  1.015019  0
H  H17  1  0.67946237  0.77288799  0.49916201  1  0.155566  0  0.113161  0.126568  0  1.015044  0
H  H18  1  0.77288718  0.67946192  0.99915610  1  0.155521  0  0.113161  0.126534  0  1.015028  0
H  H19  1  0.32054032  0.22711035  0.50084131  1  0.155594  0  0.113193  0.126598  0  1.015051  0
H  H20  1  0.37059882  0.79096820  0.70180968  1  0.131149  0  0.105085  0.114972  0  1.015929  0
H  H21  1  0.20903345  0.62939894  0.79819172  1  0.131111  0  0.10512  0.115017  0  1.01594  0
H  H22  1  0.62940847  0.20902807  0.29819041  1  0.130955  0  0.10512  0.115025  0  1.015922  0
H  H23  1  0.79097037  0.37059629  0.20180754  1  0.131071  0  0.105112  0.114986  0  1.015938  0
H  H24  1  0.44525275  0.97369071  0.77077025  1  0.138237  0  0.115746  0.123178  0  1.010199  0
H  H25  1  0.02631147  0.55474350  0.72923261  1  0.138198  0  0.115739  0.123179  0  1.010107  0
H  H26  1  0.55474647  0.02631148  0.22922631  1  0.138262  0  0.115743  0.12313  0  1.010199  0
H  H27  1  0.97368892  0.44525561  0.27077182  1  0.138255  0  0.115746  0.123141  0  1.010131  0
H  H28  1  0.45173109  0.78258142  0.91035839  1  0.129802  0  0.115013  0.127612  0  0.985441  0
H  H29  1  0.21742093  0.54826999  0.58964293  1  0.129834  0  0.115005  0.127611  0  0.985444  0
H  H30  1  0.54826872  0.21742441  0.08964366  1  0.129594  0  0.115013  0.127583  0  0.985503  0
H  H31  1  0.78257483  0.45173771  0.41035456  1  0.129852  0  0.115002  0.12759  0  0.985475  0
H  H32  1  0.26770757  0.13736081  0.03122680  1  0.15688  0  0.119176  0.133341  0  1.024215  0
H  H33  1  0.86264371  0.73229509  0.46876641  1  0.156747  0  0.119157  0.133328  0  1.024217  0
H  H34  1  0.73229224  0.86264719  0.96877151  1  0.156686  0  0.119193  0.13335  0  1.024304  0
H  H35  1  0.13735665  0.26770563  0.53122705  1  0.156637  0  0.119163  0.133305  0  1.024259  0
H  H36  1  0.29176543  0.91857585  0.13433685  1  0.117416  0  0.107987  0.116  0  1.002668  0
H  H37  1  0.08142854  0.70824560  0.36565908  1  0.117412  0  0.108033  0.115978  0  1.002603  0
H  H38  1  0.70824073  0.08143059  0.86565812  1  0.117334  0  0.108023  0.115971  0  1.002534  0
H  H39  1  0.91857070  0.29176477  0.63433863  1  0.11734  0  0.108003  0.115939  0  1.002609  0
H  H40  1  0.07610026  0.10806419  0.15332242  1  0.08674  0  0.111618  0.122075  0  0.991197  0
H  H41  1  0.89193436  0.92390718  0.34667737  1  0.086639  0  0.111613  0.122067  0  0.991076  0
H  H42  1  0.92390299  0.89193341  0.84667728  1  0.086736  0  0.111615  0.122081  0  0.991164  0
H  H43  1  0.10806315  0.07609941  0.65332268  1  0.086738  0  0.111613  0.122095  0  0.991136  0
H  H44  1  0.53478727  0.20157188  0.80223158  1  0.076044  0  0.127879  0.049396  0  0.972801  0
H  H45  1  0.79842506  0.46521173  0.69777205  1  0.075864  0  0.127873  0.049398  0  0.972767  0
H  H46  1  0.46520675  0.79842443  0.19777123  1  0.075873  0  0.127843  0.049365  0  0.972739  0
H  H47  1  0.20157359  0.53479230  0.30222808  1  0.075922  0  0.127836  0.049345  0  0.972793  0
H  H48  1  0.56832664  0.24522553  0.70188730  1  0.046631  0  0.108095  0.111566  0  1.000224  0
H  H49  1  0.75477366  0.43167298  0.79811410  1  0.046648  0  0.108102  0.111606  0  1.000244  0
H  H50  1  0.43167141  0.75476997  0.29811173  1  0.046668  0  0.108081  0.111538  0  1.000286  0
H  H51  1  0.24522557  0.56832977  0.20188658  1  0.046732  0  0.108118  0.111664  0  1.000149  0
H  H52  1  0.49305936  0.27177559  0.64056608  1  0.059303  0  0.111271  0.12751  0  0.97076  0
H  H53  1  0.72822420  0.50694103  0.85943511  1  0.059286  0  0.111252  0.127519  0  0.970774  0
H  H54  1  0.50693869  0.72821937  0.35943401  1  0.05944  0  0.111245  0.12748  0  0.970774  0
H  H55  1  0.27177618  0.49306351  0.14056438  1  0.059225  0  0.111225  0.127518  0  0.970746  0
H  H56  1  0.57331709  0.18586129  0.62947083  1  0.057114  0  0.108801  0.123919  0  0.98439  0
H  H57  1  0.81413982  0.42668127  0.87053218  1  0.057057  0  0.108832  0.123976  0  0.984275  0
H  H58  1  0.42667865  0.81413443  0.37053037  1  0.056776  0  0.108754  0.123883  0  0.984353  0
H  H59  1  0.18586114  0.57331983  0.12947057  1  0.057082  0  0.108887  0.124072  0  0.984464  0
H  H60  1  0.41693947  0.11763810  0.71163343  1  0.124891  0  0.119901  0.147221  0  0.989022  0
H  H61  1  0.88236409  0.58305764  0.78836636  1  0.124725  0  0.11989  0.147174  0  0.989115  0
H  H62  1  0.58305743  0.88235833  0.28836665  1  0.124987  0  0.119927  0.147276  0  0.989062  0
H  H63  1  0.11763860  0.41694232  0.21163325  1  0.124914  0  0.11992  0.147237  0  0.989126  0
H  H64  1  0.48659464  0.09596513  0.64149913  1  0.078649  0  0.111564  0.136445  0  0.990139  0
H  H65  1  0.90403747  0.51340305  0.85850125  1  0.078808  0  0.111558  0.136475  0  0.990181  0
H  H66  1  0.51340341  0.90403038  0.35850094  1  0.078706  0  0.111615  0.136578  0  0.990156  0
H  H67  1  0.09596637  0.48659654  0.14149884  1  0.078641  0  0.111576  0.136499  0  0.990146  0
H  H68  1  0.40899956  0.18520489  0.63961878  1  0.061841  0  0.108672  0.123263  0  0.98106  0
H  H69  1  0.81479674  0.59099949  0.86038136  1  0.061698  0  0.108666  0.123309  0  0.98099  0
H  H70  1  0.59099849  0.81479170  0.36038123  1  0.06185  0  0.108739  0.123487  0  0.981044  0
H  H71  1  0.18520652  0.40900138  0.13961818  1  0.061887  0  0.108716  0.123403  0  0.981026  0
H  H72  1  0.09622305  0.40470378  0.85334871  1  0.10713  0  0.133853  0.058422  0  0.961531  0
H  H73  1  0.59529940  0.90377470  0.64665121  1  0.107366  0  0.133862  0.058443  0  0.961471  0
H  H74  1  0.90377618  0.59529625  0.14665314  1  0.107139  0  0.133851  0.058407  0  0.961524  0
H  H75  1  0.40470385  0.09622181  0.35334906  1  0.107093  0  0.133861  0.058443  0  0.961502  0
H  H76  1  0.10645024  0.40749440  0.74061854  1  0.077666  0  0.110542  0.122189  0  1.004095  0
H  H77  1  0.59250443  0.89354946  0.75938151  1  0.077632  0  0.110576  0.122265  0  1.004057  0
H  H78  1  0.89355186  0.59250249  0.25938177  1  0.077655  0  0.11057  0.122244  0  1.004048  0
H  H79  1  0.40749536  0.10644983  0.24061932  1  0.077637  0  0.110554  0.122214  0  1.004095  0
H  H80  1  0.01890651  0.41944612  0.69839299  1  0.12003  0  0.114627  0.146064  0  1.0084  0
H  H81  1  0.58055291  0.98109221  0.80160697  1  0.12002  0  0.114628  0.146093  0  1.008368  0
H  H82  1  0.98109616  0.58055003  0.30160733  1  0.119995  0  0.11464  0.146079  0  1.008325  0
H  H83  1  0.41944631  0.01890836  0.19839226  1  0.120025  0  0.114641  0.146064  0  1.008377  0
H  H84  1  0.09303535  0.32731903  0.70039888  1  0.058436  0  0.102758  0.118061  0  0.989227  0
H  H85  1  0.67267923  0.90696370  0.79960391  1  0.058409  0  0.102739  0.118091  0  0.989233  0
H  H86  1  0.90696617  0.67267697  0.29960306  1  0.058489  0  0.102746  0.118054  0  0.989239  0
H  H87  1  0.32732057  0.09303506  0.20039901  1  0.058457  0  0.102748  0.118055  0  0.989255  0
H  H88  1  0.99731112  0.26708308  0.76465519  1  0.045818  0  0.098273  0.104664  0  1.03886  0
H  H89  1  0.73291789  0.00268680  0.73534676  1  0.045796  0  0.098317  0.104719  0  1.038881  0
H  H90  1  0.00268983  0.73291474  0.23534513  1  0.045849  0  0.098275  0.104664  0  1.038896  0
H  H91  1  0.26708594  0.99731006  0.26465139  1  0.045883  0  0.098269  0.104595  0  1.038894  0
H  H92  1  0.92403786  0.35881653  0.76378033  1  0.061905  0  0.104956  0.11559  0  1.009996  0
H  H93  1  0.64118603  0.07596012  0.73622131  1  0.061923  0  0.104988  0.115595  0  1.010002  0
H  H94  1  0.07596482  0.64118344  0.23621980  1  0.061841  0  0.104932  0.115537  0  1.010019  0
H  H95  1  0.35881953  0.92403726  0.26377725  1  0.06181  0  0.104916  0.115466  0  1.010049  0
H  H96  1  0.95583936  0.30938034  0.84547236  1  0.089127  0  0.114704  0.130903  0  1.026843  0
H  H97  1  0.69062123  0.04415955  0.65453043  1  0.089066  0  0.114735  0.130945  0  1.02683  0
H  H98  1  0.04416102  0.69061876  0.15452845  1  0.089107  0  0.114713  0.130907  0  1.026841  0
H  H99  1  0.30938144  0.95583552  0.34546890  1  0.08923  0  0.114689  0.130798  0  1.026874  0
H  H100  1  0.86973454  0.26278819  0.07013596  1  0.126317  0  0.134593  0.070972  0  1.000296  0
H  H101  1  0.73721741  0.13026301  0.42986225  1  0.12623  0  0.13457  0.070952  0  1.000242  0
H  H102  1  0.13026237  0.73721477  0.92986223  1  0.126294  0  0.134567  0.070959  0  1.000277  0
H  H103  1  0.26278297  0.86973935  0.57013736  1  0.126243  0  0.134581  0.071009  0  1.000255  0
H  H104  1  0.84843747  0.15384115  0.89428670  1  0.075602  0  0.102635  0.114809  0  1.024315  0
H  H105  1  0.84615807  0.15156224  0.60571623  1  0.075558  0  0.102631  0.114791  0  1.024292  0
H  H106  1  0.15156060  0.84615708  0.10571581  1  0.075612  0  0.102628  0.114773  0  1.024299  0
H  H107  1  0.15384000  0.84843654  0.39428678  1  0.075563  0  0.102639  0.115423  0  1.023748  0
H  H108  1  0.91888659  0.20202668  0.89304447  1  0.094834  0  0.114333  0.134367  0  0.994308  0
H  H109  1  0.79797166  0.08111462  0.60695794  1  0.094833  0  0.114335  0.134349  0  0.994385  0
H  H110  1  0.08111378  0.79797134  0.10695691  1  0.094786  0  0.114327  0.134331  0  0.994384  0
H  H111  1  0.20202525  0.91888563  0.39304194  1  0.094849  0  0.114308  0.134292  0  0.994423  0
H  H112  1  0.82080042  0.25513121  0.87473683  1  0.046635  0  0.104367  0.113373  0  0.980068  0
H  H113  1  0.74486703  0.17920010  0.62526386  1  0.046583  0  0.104375  0.113366  0  0.980086  0
H  H114  1  0.17919821  0.74486682  0.12526204  1  0.04664  0  0.104386  0.113375  0  0.980083  0
H  H115  1  0.25513161  0.82079957  0.37473700  1  0.046636  0  0.104372  0.113373  0  0.980142  0
H  H116  1  0.77339577  0.21825200  0.06854647  1  0.054941  0  0.117059  0.129725  0  0.989965  0
H  H117  1  0.78174772  0.22660350  0.43145447  1  0.054925  0  0.117053  0.129741  0  0.989935  0
H  H118  1  0.22660229  0.78175167  0.93145215  1  0.054965  0  0.117045  0.129735  0  0.990006  0
H  H119  1  0.21825267  0.77339833  0.56854724  1  0.054903  0  0.117063  0.129799  0  0.989932  0
H  H120  1  0.78511426  0.14269782  0.00923194  1  0.041618  0  0.109054  0.123286  0  0.975036  0
H  H121  1  0.85730180  0.21488761  0.49076796  1  0.041593  0  0.10904  0.123282  0  0.975064  0
H  H122  1  0.21488439  0.85730512  0.99076772  1  0.041577  0  0.109031  0.123265  0  0.97508  0
H  H123  1  0.14269858  0.78511258  0.50923435  1  0.041633  0  0.109047  0.123312  0  0.975087  0
H  H124  1  0.72416513  0.23861645  0.98890185  1  0.058849  0  0.112435  0.12786  0  0.965826  0
H  H125  1  0.76138260  0.27583453  0.51109821  1  0.05884  0  0.112467  0.127936  0  0.965772  0
H  H126  1  0.27583236  0.76138633  0.01109787  1  0.058845  0  0.112425  0.127883  0  0.96587  0
H  H127  1  0.23861894  0.72416691  0.48890397  1  0.058757  0  0.112456  0.127906  0  0.965814  0
H  H128  1  0.23922394  0.17995423  0.92517532  1  0.138662  0  0.128468  0.060696  0  1.015117  0
H  H129  1  0.82004883  0.76077666  0.57482236  1  0.138679  0  0.12846  0.060729  0  1.015142  0
H  H130  1  0.76077758  0.82004611  0.07482329  1  0.138673  0  0.12848  0.060785  0  1.015043  0
H  H131  1  0.17995327  0.23922295  0.42517625  1  0.138683  0  0.128473  0.060737  0  1.015087  0
H  H132  1  0.12218750  0.19629542  0.89879899  1  0.11409  0  0.115043  0.141622  0  1.021167  0
H  H133  1  0.80369968  0.87781094  0.60120369  1  0.114028  0  0.115032  0.141626  0  1.021199  0
H  H134  1  0.87781403  0.80369949  0.10120352  1  0.114043  0  0.115037  0.141658  0  1.021147  0
H  H135  1  0.19629896  0.12218710  0.39879881  1  0.114053  0  0.115003  0.141577  0  1.021148  0
H  H136  1  0.10661157  0.11827176  0.85643145  1  0.034915  0  0.101014  0.109681  0  0.983403  0
H  H137  1  0.88172260  0.89339032  0.64357066  1  0.035079  0  0.100964  0.10955  0  0.983491  0
H  H138  1  0.89339284  0.88172383  0.14357037  1  0.035021  0  0.100993  0.1096  0  0.983397  0
H  H139  1  0.11827489  0.10660811  0.35643136  1  0.034977  0  0.101025  0.109676  0  0.983472  0
H  H140  1  0.10999778  0.20136150  0.80665174  1  0.040339  0  0.097909  0.105321  0  1.02338  0
H  H141  1  0.79863373  0.88999785  0.69335208  1  0.040708  0  0.097897  0.105338  0  1.023318  0
H  H142  1  0.89000144  0.79863581  0.19335076  1  0.040256  0  0.09797  0.105423  0  1.023281  0
H  H143  1  0.20136433  0.10999821  0.30665106  1  0.040303  0  0.097896  0.105321  0  1.023314  0
H  H144  1  0.30714865  0.05772711  0.77881665  1  0.073597  0  0.116016  0.140756  0  1.007508  0
H  H145  1  0.94227451  0.69285187  0.72118293  1  0.073583  0  0.116024  0.140757  0  1.007521  0
H  H146  1  0.69285462  0.94227213  0.22118504  1  0.073645  0  0.116047  0.140795  0  1.007558  0
H  H147  1  0.05772354  0.30714581  0.27881547  1  0.073656  0  0.116065  0.140817  0  1.007518  0
H  H148  1  0.22477092  0.11413491  0.73162084  1  0.084006  0  0.10282  0.12235  0  1.004407  0
H  H149  1  0.88586790  0.77522794  0.76837909  1  0.084046  0  0.102859  0.122386  0  1.004369  0
H  H150  1  0.77523061  0.88586489  0.26837832  1  0.084041  0  0.102843  0.122391  0  1.004398  0
H  H151  1  0.11413189  0.22476918  0.23162132  1  0.084012  0  0.102858  0.122368  0  1.004383  0
H  H152  1  0.22109292  0.03201760  0.78256115  1  0.025259  0  0.103817  0.113033  0  0.97669  0
H  H153  1  0.96798353  0.77890668  0.71743790  1  0.025327  0  0.103804  0.113056  0  0.976657  0
H  H154  1  0.77890918  0.96798038  0.21744015  1  0.025233  0  0.103844  0.113059  0  0.976667  0
H  H155  1  0.03201684  0.22109024  0.28256198  1  0.025132  0  0.103805  0.113054  0  0.976642  0
C  C156  1  0.37480731  0.25864128  0.95367388  1  1.582033  0  0.186253  0.569781  0  4.24607  0
C  C157  1  0.74136048  0.62519761  0.54632633  1  1.58132  0  0.186281  0.569808  0  4.245835  0
C  C158  1  0.62519019  0.74136095  0.04632743  1  1.582077  0  0.186313  0.569835  0  4.245734  0
C  C159  1  0.25864105  0.37480219  0.45367335  1  1.581992  0  0.186293  0.569842  0  4.245832  0
C  C160  1  0.32711217  0.34243239  0.95329575  1  -0.033721  0  -0.015509  -0.021072  0  3.979532  0
C  C161  1  0.65756579  0.67288792  0.54670107  1  -0.033656  0  -0.015472  -0.020966  0  3.979154  0
C  C162  1  0.67288763  0.65756908  0.04670548  1  -0.033685  0  -0.015522  -0.021141  0  3.979592  0
C  C163  1  0.34243226  0.32710595  0.45329804  1  -0.033714  0  -0.015499  -0.021055  0  3.979484  0
C  C164  1  0.35754695  0.39791588  0.92437838  1  -0.046666  0  -0.066367  -0.117122  0  3.871368  0
C  C165  1  0.60207962  0.64245367  0.57561592  1  -0.046991  0  -0.066346  -0.117135  0  3.871177  0
C  C166  1  0.64245460  0.60208612  0.07562481  1  -0.04666  0  -0.066393  -0.117173  0  3.871409  0
C  C167  1  0.39791554  0.35754333  0.42438266  1  -0.046646  0  -0.066321  -0.117068  0  3.871273  0
C  C168  1  0.31170804  0.47641458  0.92174607  1  0.119818  0  -0.004541  0.116609  0  4.143144  0
C  C169  1  0.52357984  0.68829256  0.57824759  1  0.120487  0  -0.004522  0.116593  0  4.143185  0
C  C170  1  0.68829407  0.52358721  0.07825399  1  0.120045  0  -0.004548  0.116732  0  4.143118  0
C  C171  1  0.47641360  0.31170393  0.42175525  1  0.120278  0  -0.004454  0.116741  0  4.142959  0
C  C172  1  0.23503699  0.49790608  0.94850492  1  -0.101458  0  -0.07145  -0.124205  0  3.881066  0
C  C173  1  0.50209209  0.76496088  0.55148648  1  -0.102424  0  -0.071411  -0.124088  0  3.881282  0
C  C174  1  0.76496223  0.50209394  0.05149537  1  -0.101705  0  -0.071393  -0.124201  0  3.880964  0
C  C175  1  0.49790884  0.23503204  0.44851512  1  -0.102367  0  -0.071445  -0.124167  0  3.881295  0
C  C176  1  0.20485995  0.44211374  0.97698397  1  0.005216  0  -0.021277  -0.061834  0  4.009019  0
C  C177  1  0.55788564  0.79513999  0.52301146  1  0.005027  0  -0.021296  -0.061928  0  4.009133  0
C  C178  1  0.79513927  0.55788737  0.02301472  1  0.005438  0  -0.021293  -0.061801  0  4.008848  0
C  C179  1  0.44211474  0.20485803  0.47698992  1  0.004756  0  -0.021352  -0.062086  0  4.009175  0
C  C180  1  0.25087670  0.36430613  0.97952269  1  -0.091622  0  -0.069157  -0.097462  0  3.905378  0
C  C181  1  0.63569316  0.74912455  0.52047544  1  -0.091373  0  -0.069153  -0.097455  0  3.905358  0
C  C182  1  0.74912367  0.63569405  0.02047599  1  -0.091602  0  -0.069125  -0.097348  0  3.905368  0
C  C183  1  0.36430722  0.25087346  0.47952646  1  -0.091591  0  -0.069216  -0.097474  0  3.90541  0
C  C184  1  0.12234449  0.46595148  0.00289344  1  1.610359  0  0.24292  0.66719  0  4.161416  0
C  C185  1  0.53405021  0.87765592  0.49710405  1  1.610363  0  0.242891  0.667149  0  4.161296  0
C  C186  1  0.87765645  0.53404905  0.99710260  1  1.610381  0  0.242891  0.667087  0  4.161408  0
C  C187  1  0.46595248  0.12234351  0.50289766  1  1.610368  0  0.242983  0.667394  0  4.161183  0
C  C188  1  0.33975400  0.53452754  0.89244483  1  -0.197963  0  -0.024523  -0.0778  0  4.04088  0
C  C189  1  0.46546678  0.66024352  0.60754221  1  -0.197884  0  -0.024469  -0.07782  0  4.040612  0
C  C190  1  0.66024754  0.46547826  0.10755558  1  -0.198651  0  -0.024661  -0.077929  0  4.040647  0
C  C191  1  0.53452838  0.33975511  0.39245680  1  -0.197752  0  -0.024482  -0.077864  0  4.040459  0
C  C192  1  0.35824989  0.58929603  0.86846106  1  -0.038738  0  -0.045919  -0.047897  0  4.325321  0
C  C193  1  0.41069917  0.64174633  0.63152699  1  -0.039178  0  -0.045953  -0.047876  0  4.325146  0
C  C194  1  0.64175857  0.41070313  0.13153986  1  -0.038003  0  -0.04573  -0.047783  0  4.324714  0
C  C195  1  0.58929716  0.35825192  0.36847354  1  -0.039286  0  -0.045882  -0.047696  0  4.324982  0
C  C196  1  0.37707382  0.65119260  0.84451934  1  0.01818  0  -0.046959  -0.050692  0  4.324823  0
C  C197  1  0.34880380  0.62292144  0.65547694  1  0.0186  0  -0.04698  -0.050702  0  4.325007  0
C  C198  1  0.62293809  0.34880322  0.15548054  1  0.017439  0  -0.046982  -0.050606  0  4.324711  0
C  C199  1  0.65118908  0.37708015  0.34452671  1  0.01885  0  -0.046984  -0.050905  0  4.324553  0
C  C200  1  0.39213517  0.70925679  0.82458449  1  -0.263969  0  -0.023191  -0.075881  0  4.043942  0
C  C201  1  0.29074533  0.60786184  0.67541707  1  -0.264169  0  -0.023165  -0.075868  0  4.04402  0
C  C202  1  0.60787271  0.29074255  0.17541697  1  -0.263221  0  -0.023211  -0.075963  0  4.04388  0
C  C203  1  0.70925332  0.39214436  0.32458139  1  -0.264177  0  -0.023187  -0.075762  0  4.043808  0
C  C204  1  0.40857625  0.77817482  0.80797606  1  0.078837  0  -0.005341  0.113629  0  4.146846  0
C  C205  1  0.22182585  0.59141983  0.69202814  1  0.079068  0  -0.005368  0.113734  0  4.146685  0
C  C206  1  0.59142585  0.22182317  0.19202524  1  0.078438  0  -0.005327  0.113564  0  4.146937  0
C  C207  1  0.77816933  0.40858371  0.30797218  1  0.078878  0  -0.005362  0.113644  0  4.146986  0
C  C208  1  0.39334241  0.81595408  0.74225213  1  -0.041443  0  -0.069389  -0.12063  0  3.874178  0
C  C209  1  0.18404672  0.60665411  0.75774989  1  -0.041925  0  -0.069408  -0.12067  0  3.874322  0
C  C210  1  0.60665855  0.18404537  0.25774967  1  -0.041242  0  -0.069482  -0.120732  0  3.87439  0
C  C211  1  0.81595135  0.39334575  0.24224995  1  -0.041593  0  -0.069398  -0.120587  0  3.874092  0
C  C212  1  0.40747579  0.88569554  0.72868960  1  -0.015397  0  -0.018389  -0.032142  0  3.988533  0
C  C213  1  0.11430464  0.59251874  0.77131091  1  -0.015485  0  -0.018429  -0.032346  0  3.988816  0
C  C214  1  0.59252515  0.11430500  0.27130747  1  -0.015212  0  -0.018417  -0.032146  0  3.988558  0
C  C215  1  0.88569399  0.40747875  0.22868850  1  -0.015266  0  -0.018452  -0.032328  0  3.988551  0
C  C216  1  0.43603697  0.91844056  0.78063121  1  -0.113153  0  -0.069745  -0.104638  0  3.925668  0
C  C217  1  0.08156191  0.56395722  0.71936921  1  -0.112907  0  -0.069711  -0.104585  0  3.925699  0
C  C218  1  0.56396282  0.08156035  0.21936538  1  -0.113304  0  -0.069688  -0.104527  0  3.925447  0
C  C219  1  0.91843846  0.43603970  0.28063067  1  -0.113168  0  -0.069698  -0.104488  0  3.925608  0
C  C220  1  0.45211075  0.88100710  0.84585159  1  0.01636  0  -0.014596  -0.035272  0  3.971273  0
C  C221  1  0.11899420  0.54788379  0.65414842  1  0.016319  0  -0.014669  -0.035303  0  3.971275  0
C  C222  1  0.54788905  0.11899600  0.15414853  1  0.016108  0  -0.014629  -0.035376  0  3.971315  0
C  C223  1  0.88100558  0.45211277  0.34584942  1  0.016241  0  -0.014642  -0.035251  0  3.971329  0
C  C224  1  0.43895923  0.81105281  0.85936336  1  -0.02026  0  -0.065596  -0.116987  0  3.87353  0
C  C225  1  0.18894798  0.56103671  0.64063927  1  -0.020083  0  -0.065506  -0.117002  0  3.873429  0
C  C226  1  0.56103654  0.18895163  0.14063844  1  -0.019731  0  -0.065541  -0.116813  0  3.873669  0
C  C227  1  0.81104777  0.43896609  0.35936002  1  -0.020215  0  -0.065551  -0.11704  0  3.873541  0
C  C228  1  0.39086469  0.92609359  0.65903040  1  1.552596  0  0.190391  0.578243  0  4.22394  0
C  C229  1  0.07390727  0.60913142  0.84096993  1  1.552705  0  0.190356  0.578395  0  4.223881  0
C  C230  1  0.60913567  0.07390442  0.34096786  1  1.552574  0  0.190336  0.578157  0  4.223964  0
C  C231  1  0.92609482  0.39086602  0.15902932  1  1.552699  0  0.190418  0.578227  0  4.223828  0
C  C232  1  0.48177682  0.91716323  0.90176486  1  1.619584  0  0.232843  0.648792  0  4.16038  0
C  C233  1  0.08283890  0.51821935  0.59823554  1  1.619567  0  0.232904  0.648867  0  4.160291  0
C  C234  1  0.51822183  0.08284134  0.09823472  1  1.619649  0  0.232869  0.648774  0  4.160191  0
C  C235  1  0.91716031  0.48177904  0.40176328  1  1.619537  0  0.232881  0.648754  0  4.160221  0
C  C236  1  0.11475916  0.21000761  0.06934871  1  1.561086  0  0.189457  0.563812  0  4.255933  0
C  C237  1  0.78999548  0.88523775  0.43065026  1  1.560944  0  0.189296  0.563632  0  4.256173  0
C  C238  1  0.88523718  0.78999554  0.93065053  1  1.560968  0  0.189309  0.563692  0  4.256109  0
C  C239  1  0.21000431  0.11475936  0.56934912  1  1.56108  0  0.189345  0.563606  0  4.256162  0
C  C240  1  0.16571151  0.12989570  0.08849756  1  -0.024875  0  -0.012335  -0.013866  0  3.976924  0
C  C241  1  0.87010260  0.83428956  0.41149902  1  -0.024369  0  -0.012186  -0.013574  0  3.976863  0
C  C242  1  0.83428714  0.87010234  0.91150494  1  -0.024566  0  -0.012134  -0.013562  0  3.977065  0
C  C243  1  0.12989545  0.16571029  0.58849771  1  -0.025091  0  -0.012264  -0.01367  0  3.976823  0
C  C244  1  0.24203811  0.10056410  0.06265203  1  -0.03577  0  -0.062406  -0.09668  0  3.864131  0
C  C245  1  0.89943502  0.75796662  0.43734396  1  -0.03585  0  -0.062426  -0.096715  0  3.864152  0
C  C246  1  0.75796342  0.89943570  0.93734764  1  -0.035645  0  -0.062393  -0.096683  0  3.864206  0
C  C247  1  0.10056419  0.24203502  0.56265159  1  -0.035266  0  -0.062394  -0.096652  0  3.864021  0
C  C248  1  0.28712329  0.02453737  0.07982894  1  0.001841  0  -0.012037  -0.026878  0  3.960134  0
C  C249  1  0.97546205  0.71287926  0.42016990  1  0.001665  0  -0.012104  -0.027042  0  3.960297  0
C  C250  1  0.71287594  0.97546375  0.92017130  1  0.002211  0  -0.012086  -0.02696  0  3.960294  0
C  C251  1  0.02453716  0.28712239  0.57982669  1  0.0018  0  -0.012073  -0.026954  0  3.960081  0
C  C252  1  0.25563261  0.97746139  0.12162172  1  -0.061676  0  -0.074396  -0.14059  0  3.922867  0
C  C253  1  0.02253856  0.74436666  0.37837904  1  -0.061611  0  -0.074441  -0.140529  0  3.922956  0
C  C254  1  0.74436430  0.02253831  0.87837923  1  -0.062027  0  -0.074449  -0.140566  0  3.92283  0
C  C255  1  0.97746009  0.25563574  0.62162117  1  -0.061691  0  -0.07442  -0.140491  0  3.922965  0
C  C256  1  0.17916542  0.00665661  0.14844904  1  0.079596  0  -0.011694  0.099924  0  4.182743  0
C  C257  1  0.99334315  0.82083874  0.35155684  1  0.079773  0  -0.011705  0.099827  0  4.182806  0
C  C258  1  0.82083669  0.99333975  0.85155545  1  0.079394  0  -0.01172  0.099885  0  4.182791  0
C  C259  1  0.00665435  0.17916677  0.64844482  1  0.079066  0  -0.011682  0.099914  0  4.182795  0
C  C260  1  0.13485460  0.08385423  0.13217162  1  -0.058831  0  -0.071758  -0.135523  0  3.895336  0
C  C261  1  0.91614312  0.86514917  0.36782749  1  -0.05913  0  -0.071783  -0.135574  0  3.89535  0
C  C262  1  0.86514634  0.91614032  0.86782990  1  -0.058813  0  -0.071859  -0.135689  0  3.895643  0
C  C263  1  0.08385437  0.13485469  0.63217114  1  -0.058827  0  -0.071761  -0.13559  0  3.895213  0
C  C264  1  0.14626219  0.96091103  0.19198916  1  -0.122767  0  -0.024096  -0.08122  0  4.06545  0
C  C265  1  0.03909544  0.85374720  0.30802049  1  -0.122016  0  -0.024055  -0.081115  0  4.065554  0
C  C266  1  0.85374109  0.03909203  0.80801493  1  -0.122245  0  -0.02404  -0.081214  0  4.065339  0
C  C267  1  0.96090613  0.14626133  0.69198341  1  -0.121808  0  -0.024058  -0.081201  0  4.065335  0
C  C268  1  0.11372107  0.92450774  0.22975049  1  -0.095245  0  -0.047745  -0.052672  0  4.324202  0
C  C269  1  0.07550247  0.88628830  0.27026469  1  -0.166534  0  -0.047837  -0.052904  0  4.324573  0
C  C270  1  0.88628454  0.07549621  0.77025759  1  -0.167827  0  -0.047813  -0.052737  0  4.324269  0
C  C271  1  0.92450371  0.11371654  0.72974228  1  -0.094079  0  -0.047759  -0.052723  0  4.324206  0
C  C272  1  0.50096178  0.16949707  0.77925474  1  1.421206  0  0.187857  0.320216  0  4.118691  0
C  C273  1  0.83050626  0.49903562  0.72074450  1  1.421668  0  0.187859  0.320218  0  4.11875  0
C  C274  1  0.49903397  0.83050356  0.22074518  1  1.42152  0  0.187806  0.320094  0  4.118975  0
C  C275  1  0.16949642  0.50096435  0.27925511  1  1.421545  0  0.187929  0.320309  0  4.118772  0
C  C276  1  0.53444214  0.22301746  0.66833436  1  0.294715  0  -0.124903  -0.277735  0  3.948987  0
C  C277  1  0.77698273  0.46555771  0.83166644  1  0.294754  0  -0.124951  -0.277915  0  3.949004  0
C  C278  1  0.46555591  0.77697859  0.33166464  1  0.295199  0  -0.124766  -0.277617  0  3.949005  0
C  C279  1  0.22301708  0.53444594  0.16833261  1  0.29505  0  -0.124919  -0.27802  0  3.949093  0
C  C280  1  0.44909196  0.14228473  0.67357550  1  0.241785  0  -0.12963  -0.266535  0  3.849674  0
C  C281  1  0.85771757  0.55090678  0.82642576  1  0.241918  0  -0.129541  -0.266546  0  3.849614  0
C  C282  1  0.55090551  0.85771206  0.32642556  1  0.241737  0  -0.129795  -0.267066  0  3.849978  0
C  C283  1  0.14228454  0.44909447  0.17357433  1  0.241763  0  -0.129739  -0.266859  0  3.84978  0
C  C284  1  0.05330323  0.37428184  0.85672013  1  1.387734  0  0.2005  0.349054  0  4.069884  0
C  C285  1  0.62571888  0.94669816  0.64327971  1  1.387583  0  0.200492  0.349066  0  4.070018  0
C  C286  1  0.94670002  0.62571466  0.14327806  1  1.387998  0  0.200558  0.349148  0  4.070228  0
C  C287  1  0.37428207  0.05330130  0.35672105  1  1.387895  0  0.200521  0.349122  0  4.070224  0
C  C288  1  0.06418717  0.37941628  0.72995465  1  0.230128  0  -0.130038  -0.27871  0  3.880022  0
C  C289  1  0.62058278  0.93581206  0.77004695  1  0.230178  0  -0.130048  -0.278801  0  3.880042  0
C  C290  1  0.93581377  0.62058045  0.27004572  1  0.230072  0  -0.130023  -0.278688  0  3.879979  0
C  C291  1  0.37941817  0.06418685  0.22995436  1  0.230118  0  -0.130056  -0.278698  0  3.88007  0
C  C292  1  0.97365901  0.32124075  0.79229770  1  0.26589  0  -0.134003  -0.275549  0  3.89322  0
C  C293  1  0.67876083  0.02634023  0.70770404  1  0.265703  0  -0.134107  -0.27558  0  3.893445  0
C  C294  1  0.02634251  0.67875852  0.20770252  1  0.265884  0  -0.133992  -0.275454  0  3.893197  0
C  C295  1  0.32124300  0.97365609  0.29229518  1  0.265744  0  -0.133946  -0.275133  0  3.893125  0
C  C296  1  0.88609980  0.25351463  0.01471697  1  1.375152  0  0.18862  0.321332  0  4.074475  0
C  C297  1  0.74648591  0.11390018  0.48528400  1  1.375294  0  0.188628  0.321446  0  4.074451  0
C  C298  1  0.11389941  0.74648485  0.98528284  1  1.375109  0  0.188613  0.321297  0  4.07454  0
C  C299  1  0.25351447  0.88610110  0.51471670  1  1.375248  0  0.188582  0.321147  0  4.074594  0
C  C300  1  0.85876194  0.20727631  0.90629285  1  0.238422  0  -0.130211  -0.268705  0  3.90537  0
C  C301  1  0.79272297  0.14123840  0.59370895  1  0.238528  0  -0.130249  -0.268649  0  3.905484  0
C  C302  1  0.14123554  0.79272320  0.09370756  1  0.238488  0  -0.130186  -0.268593  0  3.905354  0
C  C303  1  0.20727510  0.85876147  0.40629349  1  0.238432  0  -0.130224  -0.269248  0  3.905059  0
C  C304  1  0.77808623  0.20416994  0.01355159  1  0.322841  0  -0.120772  -0.273377  0  3.917079  0
C  C305  1  0.79583140  0.22191456  0.48644870  1  0.322867  0  -0.120784  -0.273434  0  3.916976  0
C  C306  1  0.22191300  0.79583444  0.98644797  1  0.322571  0  -0.120727  -0.273433  0  3.917025  0
C  C307  1  0.20416956  0.77808708  0.51355351  1  0.322954  0  -0.12083  -0.273635  0  3.917103  0
C  C308  1  0.26689785  0.14113152  0.88256103  1  1.337228  0  0.186266  0.324101  0  4.076303  0
C  C309  1  0.85887214  0.73310058  0.61743787  1  1.337219  0  0.186269  0.323986  0  4.076598  0
C  C310  1  0.73310369  0.85887047  0.11743906  1  1.337378  0  0.186247  0.323954  0  4.07631  0
C  C311  1  0.14112880  0.26689777  0.38256035  1  1.337286  0  0.186194  0.323959  0  4.07628  0
C  C312  1  0.13443043  0.16308176  0.85134810  1  0.27213  0  -0.130777  -0.279581  0  3.923217  0
C  C313  1  0.83691537  0.86556834  0.64865348  1  0.271663  0  -0.13071  -0.279428  0  3.923306  0
C  C314  1  0.86556937  0.83691536  0.14865438  1  0.272144  0  -0.130823  -0.279658  0  3.923244  0
C  C315  1  0.16308269  0.13442989  0.35134748  1  0.272122  0  -0.130752  -0.279555  0  3.923204  0
C  C316  1  0.24410873  0.08033783  0.77981863  1  0.292959  0  -0.131662  -0.26563  0  3.884092  0
C  C317  1  0.91966519  0.75589042  0.72018187  1  0.292821  0  -0.131676  -0.265614  0  3.883949  0
C  C318  1  0.75589280  0.91966252  0.22018257  1  0.293026  0  -0.131685  -0.265649  0  3.884146  0
C  C319  1  0.08033460  0.24410615  0.27981961  1  0.293132  0  -0.131697  -0.265688  0  3.884172  0
C  C320  1  0.37067538  0.99419269  0.05567594  1  1.624949  0  0.226977  0.641592  0  4.175095  0
C  C321  1  0.00581071  0.62932905  0.44431829  1  1.625014  0  0.227084  0.641805  0  4.175089  0
C  C322  1  0.62932674  0.00581400  0.94432180  1  1.624898  0  0.227084  0.641797  0  4.175138  0
C  C323  1  0.99418562  0.37067626  0.55567462  1  1.624969  0  0.226971  0.641576  0  4.175258  0
N  N324  1  0.49443411  0.17918960  0.71009250  1  -1.228922  0  -0.28308  0.018267  0  3.729224  0
N  N325  1  0.82081171  0.50556546  0.78990775  1  -1.228899  0  -0.283154  0.018286  0  3.728974  0
N  N326  1  0.50556337  0.82080773  0.28990802  1  -1.229373  0  -0.283123  0.018354  0  3.729167  0
N  N327  1  0.17919097  0.49443669  0.21009123  1  -1.229294  0  -0.283133  0.018351  0  3.728806  0
N  N328  1  0.03168693  0.35891089  0.79530599  1  -1.203144  0  -0.279848  0.025038  0  3.721096  0
N  N329  1  0.64109077  0.96831252  0.70469649  1  -1.202971  0  -0.279894  0.024837  0  3.7214  0
N  N330  1  0.96831344  0.64108766  0.20469484  1  -1.203157  0  -0.279942  0.024799  0  3.721224  0
N  N331  1  0.35891249  0.03168454  0.29530479  1  -1.203184  0  -0.279881  0.024784  0  3.721281  0
N  N332  1  0.84369809  0.22131756  0.98011393  1  -1.195145  0  -0.278335  0.026329  0  3.714461  0
N  N333  1  0.77868522  0.15630035  0.51988775  1  -1.195173  0  -0.278263  0.026262  0  3.714422  0
N  N334  1  0.15629710  0.77868653  0.01988688  1  -1.194892  0  -0.278305  0.026417  0  3.714212  0
N  N335  1  0.22131459  0.84370058  0.48011455  1  -1.195091  0  -0.278239  0.026534  0  3.714392  0
N  N336  1  0.21715715  0.12790654  0.84011852  1  -1.18859  0  -0.28189  0.026468  0  3.715339  0
N  N337  1  0.87209398  0.78284317  0.65988142  1  -1.188543  0  -0.281881  0.026377  0  3.715357  0
N  N338  1  0.78284381  0.87209346  0.15988376  1  -1.188907  0  -0.281894  0.026473  0  3.715507  0
N  N339  1  0.12790523  0.21715576  0.34011738  1  -1.188771  0  -0.28182  0.026572  0  3.715431  0
O  O340  1  0.44060789  0.23767007  0.92158609  1  -1.185559  0  -0.391002  -0.646456  0  2.162961  0
O  O341  1  0.76233416  0.55939543  0.57841212  1  -1.185362  0  -0.390981  -0.646429  0  2.162932  0
O  O342  1  0.55939018  0.76233143  0.07841575  1  -1.185647  0  -0.391066  -0.64648  0  2.162758  0
O  O343  1  0.23766966  0.44060251  0.42158390  1  -1.185396  0  -0.390992  -0.646432  0  2.162927  0
O  O344  1  0.34713507  0.20972438  0.98415050  1  -1.181723  0  -0.382223  -0.634508  0  2.224711  0
O  O345  1  0.79027522  0.65287157  0.51584769  1  -1.181132  0  -0.382257  -0.634585  0  2.224586  0
O  O346  1  0.65286184  0.79027859  0.01584925  1  -1.181707  0  -0.382202  -0.634502  0  2.224547  0
O  O347  1  0.20972458  0.34713044  0.48415248  1  -1.181782  0  -0.382253  -0.63458  0  2.224524  0
O  O348  1  0.09580574  0.41328423  0.02515599  1  -1.195486  0  -0.41412  -0.683976  0  2.359796  0
O  O349  1  0.58671985  0.90419156  0.47483950  1  -1.195602  0  -0.414154  -0.683991  0  2.359624  0
O  O350  1  0.90419462  0.58671703  0.97483848  1  -1.195563  0  -0.41419  -0.684007  0  2.359701  0
O  O351  1  0.41328455  0.09580457  0.52516074  1  -1.195516  0  -0.414156  -0.684052  0  2.359594  0
O  O352  1  0.08399794  0.53746547  0.00194074  1  -1.204821  0  -0.417832  -0.696444  0  2.360036  0
O  O353  1  0.46253717  0.91600260  0.49805655  1  -1.204749  0  -0.417769  -0.696333  0  2.360004  0
O  O354  1  0.91600011  0.46253438  0.99805703  1  -1.204793  0  -0.417777  -0.696363  0  2.360122  0
O  O355  1  0.53746436  0.08399557  0.50194320  1  -1.204884  0  -0.417816  -0.696434  0  2.360005  0
O  O356  1  0.35426893  0.90203982  0.61559394  1  -1.186187  0  -0.382369  -0.651427  0  2.270629  0
O  O357  1  0.09795834  0.64573080  0.88440529  1  -1.18608  0  -0.382351  -0.651532  0  2.270565  0
O  O358  1  0.64573087  0.09795784  0.38440697  1  -1.186063  0  -0.382315  -0.651392  0  2.270588  0
O  O359  1  0.90204260  0.35426430  0.11559620  1  -1.186131  0  -0.382342  -0.651391  0  2.270456  0
O  O360  1  0.41329898  0.98405969  0.64374933  1  -1.174617  0  -0.384018  -0.637495  0  2.182425  0
O  O361  1  0.01594320  0.58669478  0.85625252  1  -1.174777  0  -0.384009  -0.637499  0  2.182413  0
O  O362  1  0.58669850  0.01594036  0.35624950  1  -1.174715  0  -0.384005  -0.637447  0  2.182391  0
O  O363  1  0.98405775  0.41330631  0.14374867  1  -1.174766  0  -0.384043  -0.637492  0  2.182374  0
O  O364  1  0.50128908  0.87846983  0.95802198  1  -1.190252  0  -0.388365  -0.654107  0  2.303116  0
O  O365  1  0.12153160  0.49871066  0.54197784  1  -1.190279  0  -0.388432  -0.654199  0  2.303062  0
O  O366  1  0.49870785  0.12153695  0.04197810  1  -1.190282  0  -0.388443  -0.654153  0  2.30311  0
O  O367  1  0.87846819  0.50128862  0.45802143  1  -1.190207  0  -0.388393  -0.654099  0  2.303091  0
O  O368  1  0.48479418  0.98444751  0.88784511  1  -1.196345  0  -0.403266  -0.679453  0  2.391416  0
O  O369  1  0.01555365  0.51520336  0.61215311  1  -1.196383  0  -0.403253  -0.679444  0  2.391419  0
O  O370  1  0.51520505  0.01555687  0.11215342  1  -1.196315  0  -0.403246  -0.679408  0  2.39125  0
O  O371  1  0.98444555  0.48479501  0.38784208  1  -1.196221  0  -0.4033  -0.679419  0  2.391237  0
O  O372  1  0.05929063  0.24405406  0.11144764  1  -1.177659  0  -0.387822  -0.641059  0  2.207197  0
O  O373  1  0.75594367  0.94070558  0.38855307  1  -1.177697  0  -0.387783  -0.641004  0  2.207165  0
O  O374  1  0.94070512  0.75594656  0.88855228  1  -1.177687  0  -0.38781  -0.641097  0  2.207163  0
O  O375  1  0.24404919  0.05929110  0.61144875  1  -1.17768  0  -0.387818  -0.641046  0  2.207288  0
O  O376  1  0.12581250  0.24165445  0.01121753  1  -1.183376  0  -0.36406  -0.625308  0  2.202529  0
O  O377  1  0.75834882  0.87418371  0.48877936  1  -1.183304  0  -0.364017  -0.625277  0  2.202647  0
O  O378  1  0.87418324  0.75834670  0.98877874  1  -1.183332  0  -0.36401  -0.625276  0  2.202569  0
O  O379  1  0.24165213  0.12581466  0.51122041  1  -1.18328  0  -0.364013  -0.625234  0  2.202557  0
O  O380  1  0.39420486  0.03511934  0.01112635  1  -1.203912  0  -0.39848  -0.697655  0  2.405578  0
O  O381  1  0.96488542  0.60579721  0.48886407  1  -1.20348  0  -0.398568  -0.697864  0  2.405718  0
O  O382  1  0.60579437  0.96489102  0.98886928  1  -1.203613  0  -0.398526  -0.697827  0  2.405807  0
O  O383  1  0.03511204  0.39420444  0.51112430  1  -1.203783  0  -0.398446  -0.697671  0  2.40564  0
O  O384  1  0.41235722  0.93053958  0.08271522  1  -1.182214  0  -0.379855  -0.647007  0  2.236769  0
O  O385  1  0.06946471  0.58764379  0.41727876  1  -1.182664  0  -0.379819  -0.646951  0  2.236561  0
O  O386  1  0.58764317  0.06946932  0.91728250  1  -1.18243  0  -0.379896  -0.647021  0  2.236489  0
O  O387  1  0.93053276  0.41235788  0.58271480  1  -1.182361  0  -0.379885  -0.646999  0  2.236769  0
O  O388  1  0.47143437  0.12775596  0.81531180  1  -1.167634  0  -0.349844  -0.521061  0  2.421169  0
O  O389  1  0.87224483  0.52856159  0.68468921  1  -1.16792  0  -0.349787  -0.521022  0  2.421321  0
O  O390  1  0.52855677  0.87224456  0.18468939  1  -1.167783  0  -0.349705  -0.520837  0  2.421342  0
O  O391  1  0.12775670  0.47143877  0.31531148  1  -1.167792  0  -0.349796  -0.521016  0  2.421387  0
O  O392  1  0.02742168  0.35608590  0.91346709  1  -1.186411  0  -0.376692  -0.558643  0  2.455861  0
O  O393  1  0.64391300  0.97257934  0.58653544  1  -1.186416  0  -0.376663  -0.558586  0  2.455989  0
O  O394  1  0.97257753  0.64391087  0.08653492  1  -1.186571  0  -0.376698  -0.558625  0  2.45623  0
O  O395  1  0.35608564  0.02742251  0.41346427  1  -1.186329  0  -0.376675  -0.558619  0  2.456244  0
O  O396  1  0.94037504  0.27308818  0.98683717  1  -1.181159  0  -0.357567  -0.551284  0  2.333121  0
O  O397  1  0.72691387  0.05962421  0.51316249  1  -1.181171  0  -0.357599  -0.551372  0  2.333181  0
O  O398  1  0.05962360  0.72691203  0.01316211  1  -1.181067  0  -0.357574  -0.551316  0  2.333179  0
O  O399  1  0.27308707  0.94037524  0.48683567  1  -1.181211  0  -0.357556  -0.5512  0  2.333212  0
O  O400  1  0.33851687  0.11252138  0.87465725  1  -1.169091  0  -0.360298  -0.541781  0  2.399148  0
O  O401  1  0.88748399  0.66148358  0.62533952  1  -1.1691  0  -0.360305  -0.54168  0  2.399304  0
O  O402  1  0.66148524  0.88747824  0.12534241  1  -1.169023  0  -0.360312  -0.541769  0  2.399118  0
O  O403  1  0.11252156  0.33851597  0.37465634  1  -1.169082  0  -0.360307  -0.541787  0  2.399142  0
