# generated using pymatgen
data_Zn3H32C46N6O13
_symmetry_space_group_name_H-M   'P 1'
_cell_length_a   11.28038968
_cell_length_b   18.17014028
_cell_length_c   25.16427674
_cell_angle_alpha   89.99995602
_cell_angle_beta   89.99999999
_cell_angle_gamma   89.99992379
_symmetry_Int_Tables_number   1
_chemical_formula_structural   Zn3H32C46N6O13
_chemical_formula_sum   'Zn12 H128 C184 N24 O52'
_cell_volume   5157.82776193
_cell_formula_units_Z   4
loop_
 _symmetry_equiv_pos_site_id
 _symmetry_equiv_pos_as_xyz
  1  'x, y, z'
loop_
 _atom_site_type_symbol
 _atom_site_label
 _atom_site_symmetry_multiplicity
 _atom_site_fract_x
 _atom_site_fract_y
 _atom_site_fract_z
 _atom_site_occupancy
 _atom_site_pbe_bader_charge
 _atom_site_pbe_bader_spin_density
 _atom_site_pbe_cm5_charge
 _atom_site_pbe_ddec_charge
 _atom_site_pbe_ddec_spin_density
 _atom_site_pbe_ddec_sum_bond_order
 _atom_site_pbe_magmom
Zn  Zn0  1  0.37723246  0.07345776  0.97637773  1  1.311679  0  0.709414  0.909605  0  2.335578  0
Zn  Zn1  1  0.62276830  0.07345790  0.52362242  1  1.311678  0  0.709407  0.909612  0  2.335574  0
Zn  Zn2  1  0.62276881  0.42654215  0.47637797  1  1.311678  0  0.709405  0.909582  0  2.335613  0
Zn  Zn3  1  0.37723119  0.42654249  0.02362226  1  1.311681  0  0.709402  0.909571  0  2.335613  0
Zn  Zn4  1  0.62276827  0.92654238  0.02362212  1  1.311674  0  0.709402  0.909589  0  2.335638  0
Zn  Zn5  1  0.37723154  0.92654225  0.47637823  1  1.311676  0  0.709406  0.909565  0  2.335655  0
Zn  Zn6  1  0.37723192  0.57345799  0.52362228  1  1.311674  0  0.70939  0.909546  0  2.335628  0
Zn  Zn7  1  0.62276865  0.57345710  0.97637799  1  1.311674  0  0.709396  0.909593  0  2.335612  0
Zn  Zn8  1  0.00000059  0.28027673  0.24999956  1  1.286726  0  0.683265  0.862751  0  2.223288  0
Zn  Zn9  1  0.99999976  0.21972328  0.74999964  1  1.286718  0  0.683263  0.862729  0  2.223327  0
Zn  Zn10  1  0.00000100  0.71972492  0.74999990  1  1.286724  0  0.683254  0.86269  0  2.223368  0
Zn  Zn11  1  0.99999916  0.78027728  0.25000021  1  1.286734  0  0.683258  0.862726  0  2.223301  0
H  H12  1  0.48276679  0.20510937  0.04495256  1  0.104167  0  0.104861  0.110261  0  1.040529  0
H  H13  1  0.51723368  0.20510913  0.45504779  1  0.104008  0  0.104878  0.110328  0  1.040528  0
H  H14  1  0.51723359  0.29489100  0.54495260  1  0.10417  0  0.10484  0.110229  0  1.040537  0
H  H15  1  0.48276669  0.29489080  0.95504783  1  0.104011  0  0.104858  0.110295  0  1.040545  0
H  H16  1  0.51723305  0.79489023  0.95504769  1  0.104009  0  0.10488  0.110283  0  1.040553  0
H  H17  1  0.48276704  0.79489046  0.54495246  1  0.104014  0  0.104881  0.110276  0  1.04055  0
H  H18  1  0.48276714  0.70510914  0.45504765  1  0.104167  0  0.10488  0.110291  0  1.040536  0
H  H19  1  0.51723315  0.70510934  0.04495242  1  0.104179  0  0.104867  0.110274  0  1.040555  0
H  H20  1  0.70684226  0.32317545  0.15334348  1  0.116711  0  0.106741  0.116404  0  1.01029  0
H  H21  1  0.29315885  0.32317552  0.34665641  1  0.116734  0  0.106763  0.116438  0  1.010272  0
H  H22  1  0.29315724  0.17682480  0.65334358  1  0.116708  0  0.106765  0.116463  0  1.010259  0
H  H23  1  0.70684241  0.17682453  0.84665651  1  0.116711  0  0.106738  0.116399  0  1.010301  0
H  H24  1  0.29315670  0.67682414  0.84665677  1  0.116809  0  0.106751  0.116433  0  1.010279  0
H  H25  1  0.70684276  0.67682408  0.65334345  1  0.116804  0  0.106748  0.116423  0  1.010294  0
H  H26  1  0.70684349  0.82317479  0.34665627  1  0.116711  0  0.106767  0.116448  0  1.010264  0
H  H27  1  0.29315654  0.82317561  0.15334374  1  0.116806  0  0.106754  0.116432  0  1.010272  0
H  H28  1  0.72976016  0.08737099  0.14448416  1  0.104316  0  0.107827  0.113787  0  1.00844  0
H  H29  1  0.27024057  0.08737217  0.35551586  1  0.104331  0  0.10783  0.1138  0  1.00847  0
H  H30  1  0.27024111  0.41262872  0.64448413  1  0.104321  0  0.107822  0.113785  0  1.008428  0
H  H31  1  0.72975981  0.41262897  0.85551623  1  0.104328  0  0.107815  0.113755  0  1.008371  0
H  H32  1  0.27024057  0.91262805  0.85551609  1  0.104332  0  0.107806  0.11375  0  1.008437  0
H  H33  1  0.72975927  0.91262797  0.64448360  1  0.104331  0  0.107824  0.113784  0  1.00848  0
H  H34  1  0.72975873  0.58737142  0.35551612  1  0.10432  0  0.107819  0.113782  0  1.008439  0
H  H35  1  0.27024003  0.58737172  0.14448402  1  0.104324  0  0.10782  0.113787  0  1.008437  0
H  H36  1  0.27543639  0.01161010  0.08018470  1  0.17098  0  0.111478  0.144189  0  1.011594  0
H  H37  1  0.72456361  0.01160974  0.41981536  1  0.17098  0  0.111478  0.144193  0  1.011586  0
H  H38  1  0.72456398  0.48838968  0.58018463  1  0.170987  0  0.111484  0.144202  0  1.011582  0
H  H39  1  0.27543588  0.48839023  0.91981569  1  0.170993  0  0.11148  0.1442  0  1.0116  0
H  H40  1  0.72456345  0.98839004  0.91981555  1  0.170983  0  0.111474  0.144187  0  1.0116  0
H  H41  1  0.27543535  0.98838986  0.58018489  1  0.171001  0  0.111481  0.144201  0  1.01159  0
H  H42  1  0.27543674  0.51160936  0.41981562  1  0.170974  0  0.111476  0.144179  0  1.011581  0
H  H43  1  0.72456396  0.51160991  0.08018456  1  0.170982  0  0.11148  0.144197  0  1.011589  0
H  H44  1  0.12731282  0.97505233  0.14831117  1  0.038212  0  0.099434  0.093665  0  1.007392  0
H  H45  1  0.87268689  0.97505191  0.35168876  1  0.038196  0  0.099408  0.093618  0  1.007423  0
H  H46  1  0.87268737  0.52494736  0.64831135  1  0.038215  0  0.099416  0.093611  0  1.007437  0
H  H47  1  0.12731241  0.52494756  0.85168855  1  0.038206  0  0.099409  0.093636  0  1.007404  0
H  H48  1  0.87268702  0.02494781  0.85168869  1  0.038206  0  0.099426  0.09366  0  1.007395  0
H  H49  1  0.12731206  0.02494823  0.64831149  1  0.038266  0  0.099406  0.093607  0  1.007408  0
H  H50  1  0.12731335  0.47505223  0.35168850  1  0.038203  0  0.099427  0.093641  0  1.007388  0
H  H51  1  0.87268654  0.47505148  0.14831130  1  0.038182  0  0.099397  0.093576  0  1.007436  0
H  H52  1  0.91444092  0.00851572  0.13882616  1  0.052306  0  0.100284  0.097189  0  1.008606  0
H  H53  1  0.08555909  0.00851594  0.36117350  1  0.052292  0  0.100264  0.097166  0  1.00862  0
H  H54  1  0.08555946  0.49148455  0.63882609  1  0.0523  0  0.100275  0.09718  0  1.008609  0
H  H55  1  0.91444040  0.49148409  0.86117383  1  0.052291  0  0.100269  0.09719  0  1.008611  0
H  H56  1  0.08555981  0.99148442  0.86117369  1  0.052289  0  0.100267  0.097187  0  1.008615  0
H  H57  1  0.91443986  0.99148475  0.63882595  1  0.052285  0  0.100271  0.097178  0  1.008598  0
H  H58  1  0.91444127  0.50851559  0.36117416  1  0.052308  0  0.100278  0.097214  0  1.008596  0
H  H59  1  0.08555856  0.50851550  0.13882602  1  0.052306  0  0.100281  0.097177  0  1.008621  0
H  H60  1  0.84096821  0.07441622  0.05950378  1  0.069968  0  0.103431  0.116564  0  1.047892  0
H  H61  1  0.15903166  0.07441630  0.44049585  1  0.06997  0  0.103435  0.11657  0  1.047886  0
H  H62  1  0.15903217  0.42558358  0.55950374  1  0.069957  0  0.103426  0.116554  0  1.047912  0
H  H63  1  0.84096783  0.42558365  0.94049622  1  0.069956  0  0.10343  0.116573  0  1.047883  0
H  H64  1  0.15903252  0.92558392  0.94049608  1  0.069954  0  0.103443  0.116574  0  1.047832  0
H  H65  1  0.84096729  0.92558384  0.55950400  1  0.069959  0  0.103446  0.116581  0  1.047831  0
H  H66  1  0.84096856  0.57441656  0.44049611  1  0.069963  0  0.103422  0.116557  0  1.04788  0
H  H67  1  0.15903201  0.57441704  0.05950443  1  0.069963  0  0.103449  0.116594  0  1.0478  0
H  H68  1  0.03455363  0.12834196  0.85751756  1  0.097651  0  0.113898  0.077009  0  1.041182  0
H  H69  1  0.96544701  0.12834169  0.64248217  1  0.097647  0  0.113886  0.076991  0  1.041197  0
H  H70  1  0.96544763  0.37165972  0.35751782  1  0.098064  0  0.113874  0.076974  0  1.041187  0
H  H71  1  0.03455249  0.37165857  0.14248243  1  0.097649  0  0.113892  0.077016  0  1.041152  0
H  H72  1  0.96544621  0.87165818  0.14248230  1  0.097661  0  0.113899  0.077017  0  1.041174  0
H  H73  1  0.03455284  0.87165845  0.35751768  1  0.09765  0  0.113892  0.077003  0  1.041187  0
H  H74  1  0.03455398  0.62834152  0.64248243  1  0.098089  0  0.11389  0.076991  0  1.041196  0
H  H75  1  0.96544736  0.62834157  0.85751742  1  0.097649  0  0.113897  0.077013  0  1.041153  0
H  H76  1  0.27521185  0.24979382  0.95824285  1  0.107574  0  0.111788  0.1124  0  1.016632  0
H  H77  1  0.72478675  0.24979330  0.54175681  1  0.107586  0  0.111769  0.112399  0  1.016607  0
H  H78  1  0.72478852  0.25020611  0.45824279  1  0.11037  0  0.111778  0.112416  0  1.016619  0
H  H79  1  0.27521274  0.25020652  0.04175714  1  0.110356  0  0.111783  0.112427  0  1.016646  0
H  H80  1  0.72478710  0.75020688  0.04175700  1  0.110376  0  0.111767  0.112392  0  1.016614  0
H  H81  1  0.27521309  0.75020684  0.45824304  1  0.110378  0  0.111768  0.112395  0  1.016614  0
H  H82  1  0.27521309  0.74979348  0.54175667  1  0.107579  0  0.111764  0.112387  0  1.01662  0
H  H83  1  0.72478710  0.74979307  0.95824311  1  0.107582  0  0.111782  0.112423  0  1.016654  0
H  H84  1  0.30535611  0.33727803  0.88312920  1  0.091007  0  0.114803  0.125051  0  0.990969  0
H  H85  1  0.69464053  0.33727691  0.61687120  1  0.091008  0  0.114817  0.125053  0  0.991007  0
H  H86  1  0.69464427  0.16272307  0.38312879  1  0.091036  0  0.114813  0.125056  0  0.990954  0
H  H87  1  0.30535896  0.16272283  0.11687079  1  0.091003  0  0.114812  0.125055  0  0.99101  0
H  H88  1  0.69464019  0.66272321  0.11687065  1  0.091007  0  0.114794  0.125037  0  0.990969  0
H  H89  1  0.30535842  0.66272268  0.38312945  1  0.091006  0  0.114809  0.125055  0  0.991014  0
H  H90  1  0.30535912  0.83727652  0.61687106  1  0.09101  0  0.114801  0.12503  0  0.990993  0
H  H91  1  0.69464088  0.83727676  0.88312946  1  0.091002  0  0.11481  0.12506  0  0.991006  0
H  H92  1  0.19081665  0.31704933  0.79818617  1  0.151998  0  0.121384  0.100731  0  1.009341  0
H  H93  1  0.80918358  0.31704913  0.70181305  1  0.152054  0  0.121381  0.100737  0  1.009357  0
H  H94  1  0.80918462  0.18295187  0.29818615  1  0.152053  0  0.121425  0.100828  0  1.009274  0
H  H95  1  0.19081679  0.18295052  0.20181302  1  0.152003  0  0.1214  0.100788  0  1.009337  0
H  H96  1  0.80918231  0.68295081  0.20181328  1  0.152004  0  0.121396  0.100771  0  1.009345  0
H  H97  1  0.19081714  0.68295101  0.29818680  1  0.152009  0  0.121405  0.100792  0  1.009335  0
H  H98  1  0.19081611  0.81704883  0.70181291  1  0.152063  0  0.121377  0.10072  0  1.00935  0
H  H99  1  0.80918305  0.81704962  0.79818683  1  0.152047  0  0.1214  0.100786  0  1.009338  0
H  H100  1  0.82726561  0.12852099  0.97832691  1  0.104466  0  0.119637  0.109282  0  0.961971  0
H  H101  1  0.17273414  0.12852095  0.52167242  1  0.104463  0  0.119641  0.10926  0  0.962001  0
H  H102  1  0.17273477  0.37147837  0.47832678  1  0.10446  0  0.119645  0.109257  0  0.962002  0
H  H103  1  0.82726535  0.37147834  0.02167268  1  0.104462  0  0.119641  0.109251  0  0.962021  0
H  H104  1  0.17273423  0.87147860  0.02167294  1  0.10447  0  0.119641  0.109288  0  0.961965  0
H  H105  1  0.82726570  0.87147864  0.47832743  1  0.104462  0  0.119635  0.109271  0  0.961974  0
H  H106  1  0.82726596  0.62852122  0.52167268  1  0.10447  0  0.119642  0.109272  0  0.961975  0
H  H107  1  0.17273361  0.62852125  0.97832717  1  0.104471  0  0.119649  0.109297  0  0.961937  0
H  H108  1  0.89414980  0.14717082  0.91694187  1  0.100604  0  0.111425  0.08946  0  1.008797  0
H  H109  1  0.10585079  0.14717077  0.58305785  1  0.100602  0  0.111429  0.089472  0  1.0088  0
H  H110  1  0.10585057  0.35282860  0.41694175  1  0.100603  0  0.111419  0.089425  0  1.008831  0
H  H111  1  0.89414870  0.35282900  0.08305812  1  0.1006  0  0.111433  0.089474  0  1.00878  0
H  H112  1  0.10585093  0.85282877  0.08305798  1  0.10061  0  0.111427  0.089469  0  1.008795  0
H  H113  1  0.89414905  0.85282937  0.41694201  1  0.100608  0  0.111426  0.089459  0  1.0088  0
H  H114  1  0.89414927  0.64717099  0.58305810  1  0.100594  0  0.111423  0.089452  0  1.008796  0
H  H115  1  0.10585114  0.64717114  0.91694213  1  0.100612  0  0.111434  0.089462  0  1.008783  0
H  H116  1  0.96719502  0.26838998  0.95013850  1  0.03849  0  0.089159  0.083595  0  1.013849  0
H  H117  1  0.03280443  0.26839003  0.54986115  1  0.038486  0  0.089149  0.083584  0  1.013875  0
H  H118  1  0.03280447  0.23160996  0.45013844  1  0.038478  0  0.089153  0.083587  0  1.013841  0
H  H119  1  0.96719506  0.23160978  0.04986149  1  0.038484  0  0.089149  0.083585  0  1.013876  0
H  H120  1  0.03280393  0.73160961  0.04986175  1  0.038477  0  0.089149  0.083587  0  1.013843  0
H  H121  1  0.96719541  0.73161011  0.45013870  1  0.038487  0  0.08915  0.083582  0  1.013879  0
H  H122  1  0.96719537  0.76839018  0.54986141  1  0.038482  0  0.089149  0.083587  0  1.013875  0
H  H123  1  0.03280478  0.76838981  0.95013876  1  0.038488  0  0.089148  0.083586  0  1.013882  0
H  H124  1  0.81167115  0.26116005  0.95167441  1  0.044782  0  0.095584  0.099949  0  1.006721  0
H  H125  1  0.18832832  0.26115997  0.54832524  1  0.044791  0  0.095572  0.099923  0  1.00668  0
H  H126  1  0.18832923  0.23883934  0.45167435  1  0.044776  0  0.095575  0.099936  0  1.006719  0
H  H127  1  0.81167029  0.23883929  0.04832558  1  0.044771  0  0.095574  0.099933  0  1.006741  0
H  H128  1  0.18832869  0.73883954  0.04832505  1  0.044793  0  0.095574  0.099931  0  1.006718  0
H  H129  1  0.81167152  0.73883962  0.45167461  1  0.044788  0  0.095569  0.099917  0  1.006685  0
H  H130  1  0.81167150  0.76116026  0.54832550  1  0.044781  0  0.095578  0.099944  0  1.006724  0
H  H131  1  0.18832956  0.76116030  0.95167427  1  0.04478  0  0.095576  0.099948  0  1.006715  0
H  H132  1  0.93133437  0.44095756  0.24689074  1  0.62582  0  0.345277  0.425665  0  0.844323  0
H  H133  1  0.06866648  0.44095681  0.25310908  1  0.626176  0  0.34526  0.42564  0  0.844362  0
H  H134  1  0.06866600  0.05904260  0.74689091  1  0.62582  0  0.345274  0.425665  0  0.844332  0
H  H135  1  0.93133390  0.05904334  0.75310885  1  0.626184  0  0.345275  0.425666  0  0.844331  0
H  H136  1  0.06866635  0.55904314  0.75310911  1  0.626178  0  0.345269  0.425654  0  0.844346  0
H  H137  1  0.93133425  0.55904278  0.74689117  1  0.626182  0  0.345277  0.425667  0  0.844327  0
H  H138  1  0.93133384  0.94095809  0.25310934  1  0.625807  0  0.345279  0.425627  0  0.844358  0
H  H139  1  0.06866683  0.94095790  0.24689100  1  0.625807  0  0.345288  0.42564  0  0.844323  0
C  C140  1  0.56359748  0.06972732  0.06472388  1  1.554757  0  0.230993  0.621825  0  4.14433  0
C  C141  1  0.43640240  0.06972717  0.43527615  1  1.554752  0  0.231068  0.621912  0  4.144249  0
C  C142  1  0.43640290  0.43027193  0.56472384  1  1.554765  0  0.231029  0.621875  0  4.144296  0
C  C143  1  0.56359709  0.43027223  0.93527612  1  1.554754  0  0.231106  0.621987  0  4.144144  0
C  C144  1  0.43640236  0.93027172  0.93527598  1  1.554739  0  0.231068  0.621938  0  4.144265  0
C  C145  1  0.56359833  0.93027242  0.56472410  1  1.554743  0  0.231073  0.621948  0  4.14424  0
C  C146  1  0.56359694  0.56972711  0.43527641  1  1.554758  0  0.231078  0.621967  0  4.144221  0
C  C147  1  0.43640275  0.56972736  0.06472413  1  1.554751  0  0.231012  0.621871  0  4.144361  0
C  C148  1  0.60070339  0.13864255  0.09234953  1  -0.046617  0  -0.023365  -0.056752  0  4.003488  0
C  C149  1  0.39929634  0.13864247  0.40765046  1  -0.046618  0  -0.023353  -0.056627  0  4.003413  0
C  C150  1  0.39929699  0.36135721  0.59234993  1  -0.046627  0  -0.023338  -0.056735  0  4.00352  0
C  C151  1  0.60070404  0.36135751  0.90765046  1  -0.046631  0  -0.023357  -0.056664  0  4.00345  0
C  C152  1  0.39929556  0.86135759  0.90765072  1  -0.046624  0  -0.02336  -0.056716  0  4.003535  0
C  C153  1  0.60070350  0.86135767  0.59234939  1  -0.046638  0  -0.023366  -0.056718  0  4.003563  0
C  C154  1  0.60070285  0.63864238  0.40765072  1  -0.046607  0  -0.023397  -0.056779  0  4.00352  0
C  C155  1  0.39929669  0.63864263  0.09234939  1  -0.046622  0  -0.023378  -0.056733  0  4.003615  0
C  C156  1  0.54954640  0.20504603  0.07613605  1  -0.008117  0  -0.076549  -0.102372  0  3.930997  0
C  C157  1  0.45045319  0.20504589  0.42386390  1  -0.008104  0  -0.076653  -0.102697  0  3.931272  0
C  C158  1  0.45045309  0.29495375  0.57613609  1  -0.008113  0  -0.076544  -0.102325  0  3.931135  0
C  C159  1  0.54954719  0.29495408  0.92386394  1  -0.008104  0  -0.076626  -0.102624  0  3.931233  0
C  C160  1  0.45045256  0.79495356  0.92386420  1  -0.008119  0  -0.076625  -0.102541  0  3.931221  0
C  C161  1  0.54954754  0.79495425  0.57613595  1  -0.008112  0  -0.076615  -0.102516  0  3.93122  0
C  C162  1  0.54954586  0.70504584  0.42386377  1  -0.008123  0  -0.076566  -0.10245  0  3.931077  0
C  C163  1  0.45045265  0.70504606  0.07613631  1  -0.008111  0  -0.076574  -0.102455  0  3.931229  0
C  C164  1  0.58835350  0.27153201  0.09787677  1  -0.064497  0  -0.021552  -0.03562  0  3.998498  0
C  C165  1  0.41164595  0.27153192  0.40212315  1  -0.064497  0  -0.021556  -0.035596  0  3.998578  0
C  C166  1  0.41164599  0.22846775  0.59787645  1  -0.064569  0  -0.021533  -0.035661  0  3.998674  0
C  C167  1  0.58835354  0.22846807  0.90212322  1  -0.064498  0  -0.021537  -0.035585  0  3.998579  0
C  C168  1  0.41164546  0.72846814  0.90212348  1  -0.064561  0  -0.021518  -0.03556  0  3.998484  0
C  C169  1  0.58835389  0.72846822  0.59787671  1  -0.064553  0  -0.02154  -0.035616  0  3.998551  0
C  C170  1  0.58835296  0.77153184  0.40212301  1  -0.064466  0  -0.021555  -0.035593  0  3.998503  0
C  C171  1  0.41164541  0.77153207  0.09787663  1  -0.064537  0  -0.021515  -0.035587  0  3.998499  0
C  C172  1  0.67650116  0.27126668  0.13664442  1  0.023339  0  -0.071738  -0.093887  0  3.927994  0
C  C173  1  0.32350006  0.27126670  0.36335509  1  0.0233  0  -0.071772  -0.093925  0  3.928043  0
C  C174  1  0.32349922  0.22873304  0.63664450  1  0.023408  0  -0.071814  -0.094046  0  3.928129  0
C  C175  1  0.67650032  0.22873332  0.86335557  1  0.023343  0  -0.071718  -0.09385  0  3.928004  0
C  C176  1  0.32349868  0.72873291  0.86335543  1  0.023342  0  -0.071792  -0.093957  0  3.927989  0
C  C177  1  0.67650156  0.72873289  0.63664476  1  0.02333  0  -0.071777  -0.093931  0  3.928007  0
C  C178  1  0.67650151  0.77126655  0.36335495  1  0.023365  0  -0.071789  -0.093968  0  3.927996  0
C  C179  1  0.32349775  0.77126682  0.13664468  1  0.023319  0  -0.071786  -0.093944  0  3.927997  0
C  C180  1  0.72700835  0.20512462  0.15370792  1  -0.089085  0  -0.019217  -0.033577  0  3.978829  0
C  C181  1  0.27299212  0.20512470  0.34629164  1  -0.089103  0  -0.019217  -0.033631  0  3.978963  0
C  C182  1  0.27299203  0.29487563  0.65370796  1  -0.089091  0  -0.019189  -0.033525  0  3.978816  0
C  C183  1  0.72700826  0.29487534  0.84629168  1  -0.089109  0  -0.019226  -0.033632  0  3.978944  0
C  C184  1  0.27299149  0.79487552  0.84629194  1  -0.089112  0  -0.019179  -0.033588  0  3.978952  0
C  C185  1  0.72700861  0.79487599  0.65370822  1  -0.089098  0  -0.019186  -0.033568  0  3.978856  0
C  C186  1  0.72700870  0.70512396  0.34629190  1  -0.089111  0  -0.019186  -0.033574  0  3.978864  0
C  C187  1  0.27299070  0.70512425  0.15370818  1  -0.089113  0  -0.019193  -0.033585  0  3.97886  0
C  C188  1  0.68936699  0.13867111  0.13136714  1  0.005007  0  -0.071072  -0.097423  0  3.924826  0
C  C189  1  0.31063362  0.13867114  0.36863245  1  0.004993  0  -0.071023  -0.09736  0  3.924838  0
C  C190  1  0.31063338  0.36132916  0.63136714  1  0.005007  0  -0.071056  -0.097403  0  3.924776  0
C  C191  1  0.68936675  0.36132833  0.86863285  1  0.005006  0  -0.071029  -0.097342  0  3.924791  0
C  C192  1  0.31063285  0.86132848  0.86863271  1  0.00499  0  -0.071053  -0.097364  0  3.92487  0
C  C193  1  0.68936710  0.86132900  0.63136700  1  0.004985  0  -0.071054  -0.097393  0  3.92486  0
C  C194  1  0.68936734  0.63867098  0.36863271  1  0.005013  0  -0.071056  -0.097402  0  3.924816  0
C  C195  1  0.31063309  0.63867126  0.13136740  1  0.005018  0  -0.07106  -0.097411  0  3.92483  0
C  C196  1  0.82530371  0.20703593  0.19387994  1  1.546364  0  0.195082  0.565223  0  4.234768  0
C  C197  1  0.17470030  0.20703724  0.30611921  1  1.54628  0  0.195104  0.565338  0  4.234594  0
C  C198  1  0.17469666  0.29296428  0.69387998  1  1.546357  0  0.195112  0.565308  0  4.234596  0
C  C199  1  0.82530185  0.29296395  0.80612044  1  1.546108  0  0.19511  0.565301  0  4.234632  0
C  C200  1  0.17469879  0.79296366  0.80612031  1  1.546065  0  0.19513  0.565341  0  4.234544  0
C  C201  1  0.82530131  0.79296345  0.69387985  1  1.546071  0  0.195153  0.565334  0  4.234481  0
C  C202  1  0.82530406  0.70703587  0.30611987  1  1.546213  0  0.195109  0.565312  0  4.234719  0
C  C203  1  0.17469711  0.70703619  0.19388060  1  1.546097  0  0.195073  0.565253  0  4.234729  0
C  C204  1  0.53930901  0.34330914  0.07882713  1  1.582704  0  0.196422  0.56949  0  4.235183  0
C  C205  1  0.46069028  0.34330899  0.42117354  1  1.582626  0  0.196486  0.569562  0  4.235104  0
C  C206  1  0.46069048  0.15669064  0.57882684  1  1.582698  0  0.196428  0.569535  0  4.235121  0
C  C207  1  0.53930921  0.15669043  0.92117326  1  1.58271  0  0.19643  0.569513  0  4.235184  0
C  C208  1  0.46068905  0.65668990  0.92117392  1  1.58272  0  0.196424  0.569483  0  4.235098  0
C  C209  1  0.53931045  0.65668950  0.57882631  1  1.582736  0  0.196464  0.569557  0  4.23518  0
C  C210  1  0.53931025  0.84331005  0.42117380  1  1.582714  0  0.196412  0.569462  0  4.235241  0
C  C211  1  0.46068885  0.84331026  0.07882619  1  1.58272  0  0.196445  0.569521  0  4.23507  0
C  C212  1  0.14157660  0.06809626  0.03269474  1  0.358774  0  0.083392  0.140849  0  4.077063  0
C  C213  1  0.85842329  0.06809573  0.46730489  1  0.358737  0  0.083375  0.140822  0  4.077101  0
C  C214  1  0.85842378  0.43190357  0.53269471  1  0.358531  0  0.083375  0.140816  0  4.077142  0
C  C215  1  0.14157621  0.43190418  0.96730525  1  0.358771  0  0.083377  0.140851  0  4.077108  0
C  C216  1  0.85842324  0.93190388  0.96730511  1  0.358531  0  0.083377  0.140833  0  4.077112  0
C  C217  1  0.14157656  0.93190441  0.53269496  1  0.358769  0  0.083369  0.140789  0  4.07707  0
C  C218  1  0.14157695  0.56809547  0.46730554  1  0.358754  0  0.083359  0.140746  0  4.077106  0
C  C219  1  0.85842275  0.56809596  0.03269500  1  0.358747  0  0.083373  0.140797  0  4.077125  0
C  C220  1  0.18231903  0.02677018  0.07601847  1  -0.053297  0  -0.089131  -0.159631  0  3.946341  0
C  C221  1  0.81768094  0.02677028  0.42398158  1  -0.053331  0  -0.089143  -0.15964  0  3.946361  0
C  C222  1  0.81768135  0.47322961  0.57601841  1  -0.053301  0  -0.089138  -0.159622  0  3.946348  0
C  C223  1  0.18231766  0.47323023  0.92398152  1  -0.053315  0  -0.089137  -0.159665  0  3.946387  0
C  C224  1  0.81768170  0.97322996  0.92398178  1  -0.053293  0  -0.089133  -0.159641  0  3.946374  0
C  C225  1  0.18231713  0.97322986  0.57601867  1  -0.053377  0  -0.089145  -0.159662  0  3.946329  0
C  C226  1  0.18231849  0.52676999  0.42398144  1  -0.053274  0  -0.089148  -0.159634  0  3.946288  0
C  C227  1  0.81768129  0.52676991  0.07601833  1  -0.053287  0  -0.089147  -0.159657  0  3.946381  0
C  C228  1  0.09805689  0.00616441  0.11361383  1  -0.023406  0  -0.097686  -0.093826  0  4.036472  0
C  C229  1  0.90194224  0.00616393  0.38638583  1  -0.023364  0  -0.09769  -0.0938  0  4.036476  0
C  C230  1  0.90194260  0.49383534  0.61361376  1  -0.023378  0  -0.097704  -0.093821  0  4.036464  0
C  C231  1  0.09805725  0.49383607  0.88638616  1  -0.023386  0  -0.097715  -0.093822  0  4.036461  0
C  C232  1  0.90194295  0.99383573  0.88638602  1  -0.02339  0  -0.097717  -0.093832  0  4.036473  0
C  C233  1  0.09805672  0.99383566  0.61361402  1  -0.023389  0  -0.097687  -0.093759  0  4.036365  0
C  C234  1  0.09805724  0.50616426  0.38638609  1  -0.023405  0  -0.097707  -0.093779  0  4.036429  0
C  C235  1  0.90194259  0.50616462  0.11361409  1  -0.023373  0  -0.097663  -0.093741  0  4.036441  0
C  C236  1  0.97710984  0.02431581  0.10789262  1  -0.070642  0  -0.094363  -0.081379  0  4.022007  0
C  C237  1  0.02289014  0.02431550  0.39210663  1  -0.070646  0  -0.094317  -0.08136  0  4.021951  0
C  C238  1  0.02289143  0.47568394  0.60789256  1  -0.070628  0  -0.094301  -0.081326  0  4.021961  0
C  C239  1  0.97710846  0.47568395  0.89210697  1  -0.070622  0  -0.094349  -0.081467  0  4.022019  0
C  C240  1  0.02289178  0.97568433  0.89210723  1  -0.070624  0  -0.094354  -0.081474  0  4.022056  0
C  C241  1  0.97710881  0.97568464  0.60789322  1  -0.070647  0  -0.094314  -0.081377  0  4.021888  0
C  C242  1  0.97710930  0.52431565  0.39210729  1  -0.070631  0  -0.094353  -0.081497  0  4.022034  0
C  C243  1  0.02289049  0.52431619  0.10789288  1  -0.070635  0  -0.094349  -0.081354  0  4.021963  0
C  C244  1  0.93515025  0.06280647  0.06389254  1  0.089376  0  -0.095316  -0.160684  0  3.984127  0
C  C245  1  0.06484964  0.06280718  0.43610709  1  0.089408  0  -0.095343  -0.16069  0  3.984081  0
C  C246  1  0.06485101  0.43719333  0.56389250  1  0.08936  0  -0.095323  -0.160664  0  3.984141  0
C  C247  1  0.93514896  0.43719332  0.93610785  1  0.089368  0  -0.095293  -0.160582  0  3.984091  0
C  C248  1  0.06485048  0.93719312  0.93610771  1  0.089371  0  -0.095303  -0.160593  0  3.984062  0
C  C249  1  0.93514931  0.93719351  0.56389276  1  0.089373  0  -0.095348  -0.160688  0  3.984014  0
C  C250  1  0.93514971  0.56280682  0.43610775  1  0.089365  0  -0.095282  -0.160567  0  3.984105  0
C  C251  1  0.06484999  0.56280737  0.06389280  1  0.089368  0  -0.095365  -0.160735  0  3.98401  0
C  C252  1  0.01986270  0.08467681  0.02663376  1  0.329445  0  0.093797  0.090176  0  4.018705  0
C  C253  1  0.98013715  0.08467673  0.47336665  1  0.329521  0  0.093814  0.09018  0  4.018677  0
C  C254  1  0.98013768  0.41532302  0.52663334  1  0.329697  0  0.093806  0.090191  0  4.018702  0
C  C255  1  0.01986234  0.41532318  0.97336662  1  0.32951  0  0.093816  0.090181  0  4.018768  0
C  C256  1  0.98013803  0.91532333  0.97336688  1  0.329754  0  0.093816  0.09016  0  4.018766  0
C  C257  1  0.01986181  0.91532341  0.52663400  1  0.329519  0  0.093806  0.090188  0  4.01867  0
C  C258  1  0.01986216  0.58467657  0.47336651  1  0.329512  0  0.093815  0.090195  0  4.018774  0
C  C259  1  0.98013750  0.58467751  0.02663402  1  0.329463  0  0.093857  0.090232  0  4.018641  0
C  C260  1  0.12340517  0.13432421  0.96020717  1  0.9638  0  0.236217  0.268439  0  3.960666  0
C  C261  1  0.87659457  0.13432358  0.53979255  1  0.963801  0  0.236215  0.268428  0  3.960711  0
C  C262  1  0.87659521  0.36567626  0.46020744  1  0.963868  0  0.236224  0.268449  0  3.960683  0
C  C263  1  0.12340403  0.36567625  0.03979282  1  0.963871  0  0.236233  0.268485  0  3.960645  0
C  C264  1  0.87659556  0.86567648  0.03979228  1  0.963878  0  0.236248  0.268485  0  3.960624  0
C  C265  1  0.12340438  0.86567657  0.46020770  1  0.963881  0  0.236243  0.268456  0  3.960611  0
C  C266  1  0.12340463  0.63432333  0.53979281  1  0.963868  0  0.236239  0.268446  0  3.96061  0
C  C267  1  0.87659492  0.63432334  0.96020743  1  0.963876  0  0.236225  0.268438  0  3.960629  0
C  C268  1  0.15020561  0.18243338  0.91464177  1  -0.005345  0  -0.002942  -0.034309  0  4.002551  0
C  C269  1  0.84979491  0.18243271  0.58535832  1  -0.00535  0  -0.002921  -0.034302  0  4.002614  0
C  C270  1  0.84979566  0.31756715  0.41464167  1  -0.005273  0  -0.002915  -0.034252  0  4.002583  0
C  C271  1  0.15020546  0.31756706  0.08535822  1  -0.005317  0  -0.002955  -0.034356  0  4.002471  0
C  C272  1  0.84979512  0.81756732  0.08535808  1  -0.005326  0  -0.002951  -0.034359  0  4.002525  0
C  C273  1  0.15020581  0.81756743  0.41464193  1  -0.005332  0  -0.002954  -0.03435  0  4.00256  0
C  C274  1  0.15020596  0.68243244  0.58535818  1  -0.005338  0  -0.002958  -0.03434  0  4.002529  0
C  C275  1  0.84979438  0.68243308  0.91464164  1  -0.005323  0  -0.002944  -0.034303  0  4.002457  0
C  C276  1  0.09434939  0.17427829  0.86522371  1  0.533419  0  0.051922  0.057456  0  3.929074  0
C  C277  1  0.90565026  0.17427808  0.63477599  1  0.532845  0  0.051935  0.057481  0  3.929052  0
C  C278  1  0.90565099  0.32572229  0.36522360  1  0.532744  0  0.051931  0.057463  0  3.929065  0
C  C279  1  0.09435011  0.32572110  0.13477668  1  0.533208  0  0.051949  0.057473  0  3.929041  0
C  C280  1  0.90564957  0.82572130  0.13477615  1  0.533096  0  0.051929  0.057453  0  3.929072  0
C  C281  1  0.09435046  0.82572152  0.36522386  1  0.533429  0  0.051939  0.057475  0  3.929092  0
C  C282  1  0.09434974  0.67427785  0.63477625  1  0.532744  0  0.051928  0.057474  0  3.929056  0
C  C283  1  0.90564973  0.67427850  0.86522357  1  0.533198  0  0.051924  0.057454  0  3.929034  0
C  C284  1  0.22890495  0.24170861  0.92086089  1  -0.023485  0  -0.055704  -0.040549  0  3.913898  0
C  C285  1  0.77109456  0.24170802  0.57913917  1  -0.023499  0  -0.055697  -0.040558  0  3.913894  0
C  C286  1  0.77109454  0.25829191  0.42086082  1  -0.023551  0  -0.055721  -0.040609  0  3.913944  0
C  C287  1  0.22890671  0.25829121  0.07913910  1  -0.023485  0  -0.055694  -0.04056  0  3.913901  0
C  C288  1  0.77109400  0.75829153  0.07913896  1  -0.023507  0  -0.055679  -0.040512  0  3.913857  0
C  C289  1  0.22890617  0.75829157  0.42086068  1  -0.023503  0  -0.055692  -0.040532  0  3.913904  0
C  C290  1  0.22890619  0.74170769  0.57913903  1  -0.023498  0  -0.055678  -0.040527  0  3.913832  0
C  C291  1  0.77109313  0.74170838  0.92086075  1  -0.023511  0  -0.055699  -0.04057  0  3.913903  0
C  C292  1  0.24600626  0.29037473  0.87891173  1  0.059052  0  -0.074284  -0.110332  0  3.943921  0
C  C293  1  0.75399314  0.29037356  0.62108791  1  0.058597  0  -0.074284  -0.110322  0  3.943935  0
C  C294  1  0.75399500  0.20962638  0.37891208  1  0.059043  0  -0.074283  -0.110322  0  3.943959  0
C  C295  1  0.24600723  0.20962617  0.12108826  1  0.059046  0  -0.074305  -0.110366  0  3.943997  0
C  C296  1  0.75399269  0.70962651  0.12108812  1  0.059046  0  -0.074297  -0.110371  0  3.943952  0
C  C297  1  0.24600670  0.70962603  0.37891195  1  0.059047  0  -0.074314  -0.110389  0  3.943987  0
C  C298  1  0.24600750  0.79037376  0.62108817  1  0.0586  0  -0.074283  -0.110321  0  3.943919  0
C  C299  1  0.75399261  0.79037397  0.87891199  1  0.05904  0  -0.074321  -0.110396  0  3.944003  0
C  C300  1  0.18412898  0.27906502  0.83169758  1  0.41202  0  0.060774  0.109162  0  3.894145  0
C  C301  1  0.81586779  0.27906540  0.66830246  1  0.412383  0  0.06075  0.109141  0  3.894096  0
C  C302  1  0.81586874  0.22093449  0.33169713  1  0.411932  0  0.060745  0.109089  0  3.894068  0
C  C303  1  0.18413081  0.22093539  0.16830281  1  0.412005  0  0.060769  0.109149  0  3.89408  0
C  C304  1  0.81586820  0.72093512  0.16830267  1  0.412001  0  0.060776  0.109185  0  3.894088  0
C  C305  1  0.18413116  0.72093529  0.33169739  1  0.412006  0  0.060773  0.10915  0  3.894091  0
C  C306  1  0.18413110  0.77906510  0.66830232  1  0.412387  0  0.06078  0.109189  0  3.894089  0
C  C307  1  0.81586903  0.77906530  0.83169744  1  0.411957  0  0.06077  0.109159  0  3.894093  0
C  C308  1  0.90088715  0.15829069  0.95959678  1  0.223226  0  -0.050076  -0.05385  0  3.870045  0
C  C309  1  0.09911254  0.15829069  0.54040293  1  0.222998  0  -0.050068  -0.053862  0  3.870041  0
C  C310  1  0.09911234  0.34170924  0.45959706  1  0.223238  0  -0.050053  -0.05377  0  3.870058  0
C  C311  1  0.90088695  0.34170913  0.04040282  1  0.223225  0  -0.050065  -0.053818  0  3.870062  0
C  C312  1  0.09911269  0.84170890  0.04040307  1  0.223227  0  -0.050079  -0.053881  0  3.869997  0
C  C313  1  0.90088730  0.84170945  0.45959692  1  0.223235  0  -0.050061  -0.053816  0  3.870018  0
C  C314  1  0.90088750  0.65829090  0.54040319  1  0.223229  0  -0.050048  -0.053771  0  3.869994  0
C  C315  1  0.09911200  0.65829046  0.95959704  1  0.222995  0  -0.050054  -0.053786  0  3.86998  0
C  C316  1  0.89325346  0.24071602  0.97048759  1  -0.028178  0  -0.167606  -0.169486  0  3.933428  0
C  C317  1  0.10674605  0.24071603  0.52951247  1  -0.02818  0  -0.167589  -0.16945  0  3.933403  0
C  C318  1  0.10674603  0.25928389  0.47048712  1  0.00522  0  -0.167577  -0.169457  0  3.933383  0
C  C319  1  0.89325344  0.25928380  0.02951280  1  0.005216  0  -0.167584  -0.16947  0  3.933466  0
C  C320  1  0.10674638  0.75928357  0.02951226  1  -0.028182  0  -0.167595  -0.16947  0  3.933415  0
C  C321  1  0.89325379  0.75928356  0.47048778  1  -0.02818  0  -0.167588  -0.169452  0  3.933411  0
C  C322  1  0.89325381  0.74071625  0.52951273  1  0.005204  0  -0.167586  -0.169502  0  3.933453  0
C  C323  1  0.10674552  0.74071634  0.97048745  1  0.005215  0  -0.167593  -0.169519  0  3.933482  0
N  N324  1  0.20363470  0.09984012  0.99080969  1  -1.219586  0  -0.34545  -0.398164  0  3.470818  0
N  N325  1  0.79636511  0.09984013  0.50919005  1  -1.219594  0  -0.345461  -0.398188  0  3.470853  0
N  N326  1  0.79636656  0.40015978  0.49080994  1  -1.219668  0  -0.345461  -0.398182  0  3.470883  0
N  N327  1  0.20363349  0.40016028  0.00919030  1  -1.219642  0  -0.345445  -0.398161  0  3.470837  0
N  N328  1  0.79636603  0.90016003  0.00919016  1  -1.219668  0  -0.345455  -0.398167  0  3.470823  0
N  N329  1  0.20363384  0.90016001  0.49080980  1  -1.219658  0  -0.345439  -0.398109  0  3.470796  0
N  N330  1  0.20363417  0.59983981  0.50919031  1  -1.219666  0  -0.345439  -0.39807  0  3.470777  0
N  N331  1  0.79636635  0.59984041  0.99080955  1  -1.219668  0  -0.345449  -0.398123  0  3.470805  0
N  N332  1  0.01080534  0.12525718  0.97997925  1  -1.185328  0  -0.230658  -0.06069  0  3.666134  0
N  N333  1  0.98919353  0.12525757  0.52002087  1  -1.185176  0  -0.230648  -0.060621  0  3.666085  0
N  N334  1  0.98919415  0.37474273  0.47997912  1  -1.185361  0  -0.230663  -0.06071  0  3.666179  0
N  N335  1  0.01080508  0.37474228  0.02002074  1  -1.185425  0  -0.230643  -0.060701  0  3.666166  0
N  N336  1  0.98919450  0.87474242  0.02002060  1  -1.185438  0  -0.230653  -0.060635  0  3.666125  0
N  N337  1  0.01080543  0.87474257  0.47997938  1  -1.185409  0  -0.23065  -0.060686  0  3.666159  0
N  N338  1  0.01080569  0.62525741  0.52002073  1  -1.185411  0  -0.230652  -0.06071  0  3.66616  0
N  N339  1  0.98919388  0.62525731  0.97997911  1  -1.185117  0  -0.230661  -0.060718  0  3.666176  0
N  N340  1  0.11059346  0.22142323  0.82486132  1  -1.228804  0  -0.311787  -0.235185  0  3.49308  0
N  N341  1  0.88940609  0.22142409  0.67513836  1  -1.228177  0  -0.311747  -0.235158  0  3.493003  0
N  N342  1  0.88940692  0.27857629  0.32486203  1  -1.228523  0  -0.311768  -0.235167  0  3.492957  0
N  N343  1  0.11059340  0.27857614  0.17513788  1  -1.228591  0  -0.311789  -0.235203  0  3.493127  0
N  N344  1  0.88940638  0.77857636  0.17513814  1  -1.228458  0  -0.311763  -0.235183  0  3.493026  0
N  N345  1  0.11059375  0.77857660  0.32486189  1  -1.228787  0  -0.311779  -0.235184  0  3.493057  0
N  N346  1  0.11059381  0.72142386  0.67513822  1  -1.228536  0  -0.311753  -0.235159  0  3.493024  0
N  N347  1  0.88940644  0.72142400  0.82486197  1  -1.228549  0  -0.311763  -0.235174  0  3.493036  0
O  O348  1  0.45903815  0.06553808  0.04640704  1  -1.201295  0  -0.320771  -0.57439  0  2.414629  0
O  O349  1  0.54096174  0.06553838  0.45359259  1  -1.201278  0  -0.320776  -0.574417  0  2.414592  0
O  O350  1  0.54096311  0.43446173  0.54640740  1  -1.201297  0  -0.320785  -0.574411  0  2.414613  0
O  O351  1  0.45903775  0.43446155  0.95359295  1  -1.201297  0  -0.320776  -0.574421  0  2.414617  0
O  O352  1  0.54096258  0.93446096  0.95359242  1  -1.201305  0  -0.32077  -0.574419  0  2.414605  0
O  O353  1  0.45903810  0.93446176  0.54640726  1  -1.201281  0  -0.320769  -0.574411  0  2.414604  0
O  O354  1  0.45903761  0.56553841  0.45359285  1  -1.201307  0  -0.320785  -0.57444  0  2.414615  0
O  O355  1  0.54096297  0.56553859  0.04640730  1  -1.201318  0  -0.320725  -0.574399  0  2.414651  0
O  O356  1  0.64320294  0.01966218  0.06093717  1  -1.154457  0  -0.31236  -0.544239  0  2.359547  0
O  O357  1  0.35679705  0.01966265  0.43906288  1  -1.154454  0  -0.312412  -0.544275  0  2.359511  0
O  O358  1  0.35679744  0.48033817  0.56093751  1  -1.154439  0  -0.312381  -0.544258  0  2.359557  0
O  O359  1  0.64320333  0.48033730  0.93906322  1  -1.154445  0  -0.312439  -0.54434  0  2.359441  0
O  O360  1  0.35679691  0.98033686  0.93906268  1  -1.154437  0  -0.312408  -0.544283  0  2.359474  0
O  O361  1  0.64320279  0.98033749  0.56093737  1  -1.154462  0  -0.31243  -0.544318  0  2.359488  0
O  O362  1  0.64320329  0.51966252  0.43906274  1  -1.154452  0  -0.312418  -0.544291  0  2.359478  0
O  O363  1  0.35679740  0.51966284  0.06093743  1  -1.154445  0  -0.312409  -0.544256  0  2.35953  0
O  O364  1  0.85984589  0.27368702  0.20568277  1  -1.15537  0  -0.347759  -0.583784  0  2.345926  0
O  O365  1  0.14015710  0.27368782  0.29431675  1  -1.155245  0  -0.347749  -0.583818  0  2.34594  0
O  O366  1  0.14015449  0.22631317  0.70568285  1  -1.155365  0  -0.347769  -0.583807  0  2.345865  0
O  O367  1  0.85984417  0.22631228  0.79431683  1  -1.155149  0  -0.347745  -0.583807  0  2.345916  0
O  O368  1  0.14015573  0.72631257  0.79431708  1  -1.155224  0  -0.347784  -0.583838  0  2.34591  0
O  O369  1  0.85984452  0.72631232  0.70568310  1  -1.155224  0  -0.347756  -0.583786  0  2.345936  0
O  O370  1  0.85984535  0.77368697  0.29431701  1  -1.155324  0  -0.347774  -0.583822  0  2.345941  0
O  O371  1  0.14015390  0.77368731  0.20568303  1  -1.155231  0  -0.347773  -0.583799  0  2.345877  0
O  O372  1  0.86769061  0.14939683  0.21288110  1  -1.171817  0  -0.337243  -0.559675  0  2.083522  0
O  O373  1  0.13231087  0.14939930  0.28711769  1  -1.171852  0  -0.33725  -0.559721  0  2.083342  0
O  O374  1  0.13230977  0.35060280  0.71288111  1  -1.171814  0  -0.337266  -0.559715  0  2.083429  0
O  O375  1  0.86769039  0.35060191  0.78711809  1  -1.171776  0  -0.337269  -0.559699  0  2.083393  0
O  O376  1  0.13230923  0.85060166  0.78711835  1  -1.171663  0  -0.337247  -0.55968  0  2.083301  0
O  O377  1  0.86769074  0.85060194  0.71288177  1  -1.171667  0  -0.337316  -0.559763  0  2.083222  0
O  O378  1  0.86769096  0.64939624  0.28711914  1  -1.171729  0  -0.33725  -0.559706  0  2.083466  0
O  O379  1  0.13230945  0.64939658  0.21288096  1  -1.171714  0  -0.337223  -0.559665  0  2.083503  0
O  O380  1  0.58894553  0.40266529  0.08930506  1  -1.171404  0  -0.327819  -0.544982  0  2.095681  0
O  O381  1  0.41105452  0.40266519  0.41069518  1  -1.171394  0  -0.327839  -0.544994  0  2.095661  0
O  O382  1  0.41105396  0.09733448  0.58930481  1  -1.171415  0  -0.32783  -0.544993  0  2.095619  0
O  O383  1  0.58894586  0.09733479  0.91069493  1  -1.171411  0  -0.327813  -0.544979  0  2.0957  0
O  O384  1  0.41105342  0.59733431  0.91069519  1  -1.171449  0  -0.327827  -0.544986  0  2.095671  0
O  O385  1  0.58894798  0.59733440  0.58930586  1  -1.171466  0  -0.327853  -0.545041  0  2.095706  0
O  O386  1  0.58894766  0.90266511  0.41069465  1  -1.171462  0  -0.327826  -0.545006  0  2.095742  0
O  O387  1  0.41105221  0.90266590  0.08930532  1  -1.171466  0  -0.327851  -0.545019  0  2.095661  0
O  O388  1  0.44269623  0.33623715  0.05055014  1  -1.173455  0  -0.340706  -0.588565  0  2.398509  0
O  O389  1  0.55730397  0.33623689  0.44945054  1  -1.173379  0  -0.340736  -0.588597  0  2.398504  0
O  O390  1  0.55730327  0.16376266  0.55054985  1  -1.173447  0  -0.340722  -0.588602  0  2.398502  0
O  O391  1  0.44269641  0.16376305  0.94945025  1  -1.173456  0  -0.340719  -0.58859  0  2.398506  0
O  O392  1  0.55730273  0.66376244  0.94945011  1  -1.173427  0  -0.340715  -0.588572  0  2.398492  0
O  O393  1  0.44269765  0.66376270  0.55055011  1  -1.173439  0  -0.34071  -0.588546  0  2.398516  0
O  O394  1  0.44269746  0.83623803  0.44944960  1  -1.173426  0  -0.340684  -0.588507  0  2.398523  0
O  O395  1  0.55730255  0.83623765  0.05054960  1  -1.173415  0  -0.340719  -0.588581  0  2.398501  0
O  O396  1  0.00000045  0.40882940  0.25000032  1  -1.198712  0  -0.543028  -0.730845  0  2.003534  0
O  O397  1  0.99999990  0.09117116  0.75000007  1  -1.19872  0  -0.543034  -0.730863  0  2.003521  0
O  O398  1  0.00000025  0.59117115  0.74999993  1  -1.199074  0  -0.543031  -0.730847  0  2.00352  0
O  O399  1  0.99999991  0.90882994  0.25000018  1  -1.198338  0  -0.543061  -0.730807  0  2.003529  0
