# generated using pymatgen
data_CdH22C24N3O4
_symmetry_space_group_name_H-M   'P 1'
_cell_length_a   14.39759040
_cell_length_b   16.56581033
_cell_length_c   22.39031895
_cell_angle_alpha   89.99990701
_cell_angle_beta   89.99999403
_cell_angle_gamma   89.99995445
_symmetry_Int_Tables_number   1
_chemical_formula_structural   CdH22C24N3O4
_chemical_formula_sum   'Cd8 H176 C192 N24 O32'
_cell_volume   5340.26463145
_cell_formula_units_Z   8
loop_
 _symmetry_equiv_pos_site_id
 _symmetry_equiv_pos_as_xyz
  1  'x, y, z'
loop_
 _atom_site_type_symbol
 _atom_site_label
 _atom_site_symmetry_multiplicity
 _atom_site_fract_x
 _atom_site_fract_y
 _atom_site_fract_z
 _atom_site_occupancy
 _atom_site_pbe_bader_charge
 _atom_site_pbe_bader_spin_density
 _atom_site_pbe_cm5_charge
 _atom_site_pbe_ddec_charge
 _atom_site_pbe_ddec_spin_density
 _atom_site_pbe_ddec_sum_bond_order
 _atom_site_pbe_magmom
Cd  Cd0  1  0.35789028  0.23910131  0.61100499  1  1.236536  0  0.754291  0.781938  0  2.253973  0
Cd  Cd1  1  0.14210420  0.26090768  0.11100987  1  1.236471  0  0.754323  0.782036  0  2.253881  0
Cd  Cd2  1  0.85789201  0.26089748  0.38899561  1  1.236615  0  0.754284  0.781948  0  2.253874  0
Cd  Cd3  1  0.64210865  0.23909426  0.88899610  1  1.23647  0  0.754279  0.781944  0  2.25388  0
Cd  Cd4  1  0.64210845  0.76090569  0.38899041  1  1.236403  0  0.754272  0.781936  0  2.253951  0
Cd  Cd5  1  0.85789939  0.73909026  0.88899401  1  1.236531  0  0.754286  0.781939  0  2.253889  0
Cd  Cd6  1  0.14210394  0.73909926  0.61100648  1  1.236486  0  0.754277  0.78195  0  2.25388  0
Cd  Cd7  1  0.35788800  0.76090368  0.11100956  1  1.236503  0  0.754264  0.78189  0  2.253988  0
H  H8  1  0.57073828  0.46994947  0.71205566  1  0.072042  0  0.111774  0.119629  0  0.985161  0
H  H9  1  0.92926033  0.03004929  0.21205767  1  0.07199  0  0.111746  0.119651  0  0.985152  0
H  H10  1  0.07073749  0.03004830  0.28794273  1  0.071611  0  0.111794  0.119654  0  0.985216  0
H  H11  1  0.42926530  0.46995185  0.78794203  1  0.071611  0  0.111749  0.119597  0  0.985125  0
H  H12  1  0.42925975  0.53004907  0.28794331  1  0.072001  0  0.111756  0.119636  0  0.98517  0
H  H13  1  0.07073841  0.96995046  0.78794442  1  0.072009  0  0.111797  0.119635  0  0.985214  0
H  H14  1  0.92926124  0.96995025  0.71205579  1  0.071662  0  0.111772  0.119592  0  0.985194  0
H  H15  1  0.57073830  0.53004910  0.21205738  1  0.071624  0  0.111743  0.11964  0  0.985167  0
H  H16  1  0.70373908  0.34325310  0.56669692  1  0.086281  0  0.108145  0.117583  0  1.020807  0
H  H17  1  0.79625747  0.15674659  0.06669522  1  0.086231  0  0.108175  0.117585  0  1.020819  0
H  H18  1  0.20373954  0.15674398  0.43330369  1  0.086279  0  0.108159  0.117613  0  1.020774  0
H  H19  1  0.29626045  0.34325585  0.93330359  1  0.086301  0  0.108156  0.117603  0  1.020721  0
H  H20  1  0.29626104  0.65674786  0.43330428  1  0.08627  0  0.10813  0.117549  0  1.020802  0
H  H21  1  0.20373918  0.84325376  0.93330330  1  0.086302  0  0.10815  0.117576  0  1.020817  0
H  H22  1  0.79626058  0.84325336  0.56669617  1  0.086303  0  0.108167  0.117561  0  1.02077  0
H  H23  1  0.70374037  0.65674510  0.06669627  1  0.086277  0  0.108156  0.117586  0  1.020778  0
H  H24  1  0.02671594  0.62940178  0.51474709  1  0.147991  0  0.11731  0.101995  0  1.011797  0
H  H25  1  0.47328504  0.87059653  0.01474735  1  0.147987  0  0.117292  0.101974  0  1.01175  0
H  H26  1  0.52671547  0.87059721  0.48525293  1  0.147994  0  0.117312  0.101982  0  1.011803  0
H  H27  1  0.97328541  0.62940154  0.98525174  1  0.148052  0  0.117309  0.102013  0  1.011774  0
H  H28  1  0.97328557  0.37059797  0.48525098  1  0.14805  0  0.1173  0.101989  0  1.011822  0
H  H29  1  0.52671578  0.12940020  0.98525206  1  0.14809  0  0.1173  0.101939  0  1.01181  0
H  H30  1  0.47328465  0.12940134  0.51474872  1  0.14807  0  0.117279  0.101931  0  1.011809  0
H  H31  1  0.02671471  0.37059760  0.01474767  1  0.148016  0  0.117316  0.101993  0  1.011817  0
H  H32  1  0.14708695  0.25091369  0.57999248  1  0.094813  0  0.118679  0.096709  0  0.982723  0
H  H33  1  0.35291310  0.24908691  0.07999423  1  0.094853  0  0.118668  0.096761  0  0.98271  0
H  H34  1  0.64708521  0.24908403  0.42000724  1  0.094968  0  0.118634  0.096684  0  0.982673  0
H  H35  1  0.85291475  0.25091549  0.92000771  1  0.094774  0  0.118663  0.096687  0  0.982695  0
H  H36  1  0.85291387  0.74908606  0.42000649  1  0.094828  0  0.118666  0.096736  0  0.982667  0
H  H37  1  0.64708563  0.75091404  0.92000741  1  0.094809  0  0.118653  0.096702  0  0.982694  0
H  H38  1  0.35291421  0.75091391  0.57999262  1  0.094827  0  0.118661  0.096726  0  0.982678  0
H  H39  1  0.14708606  0.74908365  0.07999305  1  0.094948  0  0.118639  0.096674  0  0.982723  0
H  H40  1  0.00736361  0.17041484  0.55133818  1  0.115087  0  0.102581  0.120377  0  1.042659  0
H  H41  1  0.49263714  0.32958643  0.05134028  1  0.115037  0  0.102603  0.12043  0  1.042584  0
H  H42  1  0.50736179  0.32958478  0.44866155  1  0.115041  0  0.102586  0.120401  0  1.042636  0
H  H43  1  0.99263886  0.17041528  0.94866210  1  0.115047  0  0.102581  0.120382  0  1.04265  0
H  H44  1  0.99263790  0.82958612  0.44866168  1  0.115075  0  0.102577  0.120371  0  1.042657  0
H  H45  1  0.50736229  0.67041513  0.94866181  1  0.11507  0  0.102589  0.120395  0  1.042651  0
H  H46  1  0.49263833  0.67041436  0.55133831  1  0.115076  0  0.102578  0.12037  0  1.042654  0
H  H47  1  0.00736265  0.82958447  0.05133821  1  0.115067  0  0.102564  0.120351  0  1.042658  0
H  H48  1  0.43243880  0.37943963  0.69668300  1  0.085889  0  0.115454  0.084055  0  1.012839  0
H  H49  1  0.06756193  0.12055951  0.19668314  1  0.086111  0  0.115444  0.084027  0  1.01285  0
H  H50  1  0.93243789  0.12055910  0.30331670  1  0.08657  0  0.115464  0.084049  0  1.012825  0
H  H51  1  0.56756348  0.37943886  0.80331569  1  0.08647  0  0.115435  0.084046  0  1.012802  0
H  H52  1  0.56755924  0.62055952  0.30331597  1  0.086113  0  0.11545  0.084068  0  1.012837  0
H  H53  1  0.93243958  0.87943963  0.80331761  1  0.085956  0  0.115464  0.084051  0  1.012884  0
H  H54  1  0.06756154  0.87943944  0.69668271  1  0.086349  0  0.115455  0.084029  0  1.012865  0
H  H55  1  0.43243803  0.62056029  0.19668373  1  0.08651  0  0.115451  0.084032  0  1.012833  0
H  H56  1  0.31118186  0.04661272  0.59072446  1  0.103778  0  0.112558  0.080164  0  1.004149  0
H  H57  1  0.18881679  0.45338967  0.09072509  1  0.103778  0  0.112573  0.080133  0  1.004187  0
H  H58  1  0.81118133  0.45338730  0.40927480  1  0.1038  0  0.112544  0.080125  0  1.004122  0
H  H59  1  0.68881933  0.04661345  0.90927552  1  0.103818  0  0.112569  0.080162  0  1.004133  0
H  H60  1  0.68881756  0.95338824  0.40927495  1  0.10376  0  0.112552  0.080137  0  1.004134  0
H  H61  1  0.81118194  0.54661189  0.90927521  1  0.103788  0  0.112546  0.080153  0  1.004104  0
H  H62  1  0.18881810  0.54661124  0.59072461  1  0.103771  0  0.112598  0.080176  0  1.00416  0
H  H63  1  0.31118009  0.95338570  0.09072524  1  0.103822  0  0.112565  0.08016  0  1.004109  0
H  H64  1  0.17999144  0.95622783  0.56147735  1  0.142934  0  0.105461  0.134952  0  1.033127  0
H  H65  1  0.32000885  0.54377280  0.06147713  1  0.142889  0  0.105462  0.134954  0  1.033126  0
H  H66  1  0.67999058  0.54377226  0.43852176  1  0.14293  0  0.105473  0.134978  0  1.033082  0
H  H67  1  0.82001031  0.95622840  0.93852288  1  0.142935  0  0.105468  0.134958  0  1.033118  0
H  H68  1  0.82000869  0.04377253  0.43852206  1  0.142899  0  0.105487  0.134962  0  1.033112  0
H  H69  1  0.67998989  0.45622876  0.93852229  1  0.142901  0  0.105464  0.134958  0  1.033135  0
H  H70  1  0.32000885  0.45622628  0.56147810  1  0.14286  0  0.105479  0.134941  0  1.033151  0
H  H71  1  0.17999051  0.04377014  0.06147743  1  0.143  0  0.105472  0.13499  0  1.03315  0
H  H72  1  0.02995953  0.62271672  0.69897582  1  0.151245  0  0.118783  0.10177  0  1.015225  0
H  H73  1  0.47004212  0.87728179  0.19897563  1  0.151042  0  0.118771  0.101754  0  1.015257  0
H  H74  1  0.52995908  0.87728226  0.30102420  1  0.151242  0  0.118784  0.101793  0  1.015232  0
H  H75  1  0.97004044  0.62271629  0.80102391  1  0.151042  0  0.118788  0.101788  0  1.015213  0
H  H76  1  0.97004059  0.37728423  0.30102270  1  0.151038  0  0.118772  0.101742  0  1.015192  0
H  H77  1  0.52995800  0.12271736  0.80102333  1  0.151033  0  0.118791  0.10179  0  1.015203  0
H  H78  1  0.47004035  0.12271749  0.69897655  1  0.151232  0  0.118776  0.101773  0  1.015202  0
H  H79  1  0.02996038  0.37728165  0.19897639  1  0.151207  0  0.118781  0.101765  0  1.015292  0
H  H80  1  0.89610591  0.52914862  0.50962035  1  0.105034  0  0.108153  0.115119  0  1.005969  0
H  H81  1  0.60389366  0.97085178  0.00962052  1  0.10504  0  0.108131  0.115072  0  1.006014  0
H  H82  1  0.39610676  0.97085193  0.49038009  1  0.105146  0  0.10814  0.115072  0  1.006002  0
H  H83  1  0.10389553  0.52914897  0.99037905  1  0.105045  0  0.108129  0.115067  0  1.006018  0
H  H84  1  0.10389421  0.47085173  0.49037995  1  0.105008  0  0.108134  0.115108  0  1.005981  0
H  H85  1  0.39610647  0.02914676  0.99037934  1  0.105018  0  0.108099  0.115042  0  1.005945  0
H  H86  1  0.60389336  0.02914722  0.50962111  1  0.105034  0  0.108149  0.115093  0  1.005984  0
H  H87  1  0.89610667  0.47085199  0.00962036  1  0.105019  0  0.108128  0.115075  0  1.005925  0
H  H88  1  0.89965094  0.52282031  0.70259394  1  0.096083  0  0.111164  0.120673  0  0.994224  0
H  H89  1  0.60034929  0.97717845  0.20259320  1  0.096025  0  0.111185  0.120651  0  0.99427  0
H  H90  1  0.39964834  0.97717661  0.29740606  1  0.096024  0  0.111199  0.120635  0  0.994229  0
H  H91  1  0.10034912  0.52282169  0.79740681  1  0.096024  0  0.111201  0.120691  0  0.994233  0
H  H92  1  0.10034780  0.47717883  0.29740592  1  0.096066  0  0.111171  0.120643  0  0.994268  0
H  H93  1  0.39965152  0.02281948  0.79740666  1  0.096002  0  0.11116  0.120661  0  0.994248  0
H  H94  1  0.60035039  0.02282435  0.70259514  1  0.096053  0  0.11119  0.120664  0  0.9942  0
H  H95  1  0.89964961  0.47717746  0.20259394  1  0.096086  0  0.111189  0.120614  0  0.994268  0
H  H96  1  0.56181954  0.26022673  0.55751890  1  0.114727  0  0.116496  0.085063  0  1.01081  0
H  H97  1  0.93817979  0.23977298  0.05751754  1  0.114715  0  0.116496  0.085073  0  1.010765  0
H  H98  1  0.06181923  0.23977225  0.44248172  1  0.114745  0  0.116506  0.085053  0  1.010803  0
H  H99  1  0.43817937  0.26022816  0.94248127  1  0.114759  0  0.116501  0.085072  0  1.01083  0
H  H100  1  0.43818128  0.73977483  0.44248185  1  0.114696  0  0.116484  0.085058  0  1.010765  0
H  H101  1  0.06181964  0.76022738  0.94248098  1  0.114731  0  0.116505  0.085073  0  1.010821  0
H  H102  1  0.93818090  0.76022750  0.55751859  1  0.114729  0  0.116518  0.085139  0  1.010795  0
H  H103  1  0.56182075  0.73977098  0.05751859  1  0.114783  0  0.116495  0.085079  0  1.010849  0
H  H104  1  0.70799248  0.53194586  0.64596812  1  0.063406  0  0.100144  0.105504  0  0.99203  0
H  H105  1  0.79200776  0.96805243  0.14596873  1  0.063381  0  0.10015  0.105493  0  0.991962  0
H  H106  1  0.20799197  0.96805059  0.35403189  1  0.063325  0  0.100159  0.105513  0  0.991927  0
H  H107  1  0.29200757  0.53195000  0.85403127  1  0.063322  0  0.100156  0.105482  0  0.991897  0
H  H108  1  0.29200834  0.46805328  0.35403174  1  0.063404  0  0.100153  0.105503  0  0.991997  0
H  H109  1  0.20799236  0.03194732  0.85403247  1  0.063377  0  0.100138  0.105469  0  0.99202  0
H  H110  1  0.79200885  0.03194735  0.64596842  1  0.063377  0  0.100147  0.105499  0  0.992002  0
H  H111  1  0.70799255  0.46805156  0.14596859  1  0.063366  0  0.100145  0.1055  0  0.991973  0
H  H112  1  0.75867321  0.46145724  0.69448556  1  0.045271  0  0.105691  0.111819  0  0.967094  0
H  H113  1  0.74132679  0.03854217  0.19448669  1  0.045409  0  0.105704  0.111874  0  0.967101  0
H  H114  1  0.25867241  0.03854161  0.30551415  1  0.04527  0  0.105712  0.111877  0  0.967078  0
H  H115  1  0.24132760  0.46145910  0.80551347  1  0.04543  0  0.105703  0.111863  0  0.967055  0
H  H116  1  0.24132761  0.53854311  0.30551296  1  0.045419  0  0.105677  0.111807  0  0.9671  0
H  H117  1  0.25867194  0.96145758  0.80551541  1  0.045299  0  0.10569  0.111837  0  0.96712  0
H  H118  1  0.74132771  0.96145754  0.69448660  1  0.045414  0  0.105697  0.111846  0  0.967103  0
H  H119  1  0.75867391  0.53854185  0.19448683  1  0.045404  0  0.1057  0.111878  0  0.96709  0
H  H120  1  0.83943398  0.39442285  0.60897677  1  0.077515  0  0.102275  0.10826  0  0.982777  0
H  H121  1  0.66056603  0.10557674  0.10897692  1  0.077533  0  0.102266  0.108245  0  0.982702  0
H  H122  1  0.33943241  0.10557473  0.39102339  1  0.077441  0  0.102266  0.108241  0  0.982808  0
H  H123  1  0.16056897  0.39442579  0.89102280  1  0.077597  0  0.102281  0.108261  0  0.982794  0
H  H124  1  0.16056544  0.60557750  0.39102309  1  0.077502  0  0.102298  0.108322  0  0.982731  0
H  H125  1  0.33943201  0.89442301  0.89102294  1  0.077643  0  0.102283  0.108273  0  0.982793  0
H  H126  1  0.66056563  0.89442441  0.60897737  1  0.077533  0  0.102262  0.108237  0  0.982749  0
H  H127  1  0.83943323  0.60557637  0.10897662  1  0.077543  0  0.1023  0.108284  0  0.982751  0
H  H128  1  0.78085193  0.45611988  0.55752950  1  0.058302  0  0.09739  0.096092  0  0.997558  0
H  H129  1  0.71914740  0.04387922  0.05752928  1  0.058311  0  0.097365  0.096068  0  0.997574  0
H  H130  1  0.28085041  0.04387895  0.44247155  1  0.05822  0  0.097387  0.096095  0  0.997599  0
H  H131  1  0.21914958  0.45612207  0.94247088  1  0.058238  0  0.097373  0.096057  0  0.997596  0
H  H132  1  0.21914749  0.54388047  0.44247170  1  0.058283  0  0.09735  0.09605  0  0.997605  0
H  H133  1  0.28085064  0.95611932  0.94247148  1  0.058272  0  0.097393  0.096088  0  0.997571  0
H  H134  1  0.71914693  0.95612140  0.55752920  1  0.058316  0  0.097365  0.09608  0  0.997579  0
H  H135  1  0.78085124  0.54387949  0.05752898  1  0.058305  0  0.097359  0.096042  0  0.997586  0
H  H136  1  0.37530988  0.23956153  0.38350979  1  0.069587  0  0.102307  0.097584  0  1.001995  0
H  H137  1  0.12468387  0.26043961  0.88351293  1  0.069503  0  0.102273  0.097503  0  1.002018  0
H  H138  1  0.87531574  0.26044327  0.61648858  1  0.069474  0  0.102243  0.097519  0  1.002004  0
H  H139  1  0.62468844  0.23955812  0.11648768  1  0.069502  0  0.102288  0.097551  0  1.002003  0
H  H140  1  0.62468399  0.76044124  0.61648784  1  0.06949  0  0.102257  0.097498  0  1.002046  0
H  H141  1  0.87531626  0.73955833  0.11648826  1  0.069487  0  0.102255  0.097534  0  1.001973  0
H  H142  1  0.12468924  0.73956493  0.38351173  1  0.069651  0  0.102307  0.097614  0  1.002002  0
H  H143  1  0.37530960  0.76044405  0.88351397  1  0.069514  0  0.102275  0.097517  0  1.001974  0
H  H144  1  0.93561344  0.03323380  0.54877507  1  0.029229  0  0.093645  0.098927  0  0.985311  0
H  H145  1  0.56438380  0.46676714  0.04877525  1  0.029212  0  0.093661  0.098956  0  0.985286  0
H  H146  1  0.43561222  0.46676614  0.45122463  1  0.029208  0  0.093659  0.098969  0  0.985285  0
H  H147  1  0.06438707  0.03323365  0.95122448  1  0.029224  0  0.093648  0.098952  0  0.985257  0
H  H148  1  0.06438668  0.96676656  0.45122479  1  0.029224  0  0.093629  0.098928  0  0.985278  0
H  H149  1  0.43561285  0.53323442  0.95122551  1  0.029203  0  0.093662  0.098997  0  0.985276  0
H  H150  1  0.56438512  0.53323361  0.54877523  1  0.029199  0  0.093644  0.098933  0  0.985307  0
H  H151  1  0.93561375  0.96676610  0.04877449  1  0.029216  0  0.093669  0.098998  0  0.985291  0
H  H152  1  0.33527265  0.19892737  0.27795929  1  0.068246  0  0.099247  0.112886  0  0.995742  0
H  H153  1  0.16472181  0.30107341  0.77795791  1  0.068113  0  0.099238  0.1128  0  0.995563  0
H  H154  1  0.83527777  0.30107445  0.72204176  1  0.068128  0  0.099246  0.112826  0  0.995505  0
H  H155  1  0.66472570  0.19892671  0.22203957  1  0.068133  0  0.099222  0.112872  0  0.995695  0
H  H156  1  0.66472191  0.80107480  0.72204236  1  0.068099  0  0.09923  0.112796  0  0.995519  0
H  H157  1  0.83527623  0.69892634  0.22204150  1  0.068145  0  0.099227  0.112819  0  0.995453  0
H  H158  1  0.16472444  0.69893134  0.27795989  1  0.068179  0  0.099237  0.112822  0  0.995704  0
H  H159  1  0.33527789  0.80107605  0.77795806  1  0.068106  0  0.099226  0.112812  0  0.995498  0
H  H160  1  0.00551502  0.94540379  0.55505316  1  0.057222  0  0.093123  0.094821  0  1.029371  0
H  H161  1  0.49448387  0.55459564  0.05505246  1  0.057217  0  0.093132  0.094812  0  1.029373  0
H  H162  1  0.50551416  0.55459581  0.44494731  1  0.057233  0  0.093077  0.09473  0  1.02932  0
H  H163  1  0.99448534  0.94540484  0.94494664  1  0.057226  0  0.093125  0.094815  0  1.029393  0
H  H164  1  0.99448440  0.05459596  0.44494715  1  0.057223  0  0.093082  0.09475  0  1.029341  0
H  H165  1  0.50551417  0.44540532  0.94494829  1  0.057258  0  0.093082  0.094752  0  1.029339  0
H  H166  1  0.49448458  0.44540394  0.55505300  1  0.057215  0  0.093116  0.094805  0  1.029378  0
H  H167  1  0.00551548  0.05459491  0.05505233  1  0.057258  0  0.093082  0.09475  0  1.029323  0
H  H168  1  0.21268541  0.33757316  0.32465216  1  0.103604  0  0.098228  0.095703  0  1.025415  0
H  H169  1  0.28731043  0.16242570  0.82465541  1  0.103689  0  0.098244  0.095751  0  1.025222  0
H  H170  1  0.71268927  0.16242633  0.67534443  1  0.103702  0  0.098282  0.095806  0  1.025144  0
H  H171  1  0.78731352  0.33757313  0.17534386  1  0.103642  0  0.098285  0.095755  0  1.025257  0
H  H172  1  0.78731055  0.66242780  0.67534502  1  0.103705  0  0.098258  0.095776  0  1.02526  0
H  H173  1  0.71268899  0.83757525  0.17534401  1  0.10368  0  0.098256  0.095752  0  1.025159  0
H  H174  1  0.28731363  0.83757705  0.32465453  1  0.103551  0  0.098227  0.095677  0  1.025364  0
H  H175  1  0.21268383  0.66243025  0.82465511  1  0.104031  0  0.098263  0.095729  0  1.025276  0
H  H176  1  0.23579342  0.36249665  0.43442637  1  0.068538  0  0.09468  0.109767  0  1.039488  0
H  H177  1  0.26420032  0.13750016  0.93442429  1  0.068559  0  0.094658  0.109769  0  1.039476  0
H  H178  1  0.73579801  0.13750342  0.56557513  1  0.068607  0  0.094615  0.109684  0  1.039516  0
H  H179  1  0.76420548  0.36249567  0.06557363  1  0.068628  0  0.094645  0.109773  0  1.039434  0
H  H180  1  0.76420115  0.63750008  0.56557662  1  0.068552  0  0.094633  0.109719  0  1.039472  0
H  H181  1  0.73579911  0.86249597  0.06557467  1  0.06864  0  0.094637  0.109761  0  1.039482  0
H  H182  1  0.26420558  0.86250176  0.43442607  1  0.068452  0  0.094683  0.1098  0  1.039406  0
H  H183  1  0.23579325  0.63750106  0.93442533  1  0.06854  0  0.094656  0.109778  0  1.039352  0
C  C184  1  0.88749127  0.51588868  0.60571323  1  0.015436  0  0.012004  0.160041  0  3.953986  0
C  C185  1  0.61251036  0.98410970  0.10571338  1  0.015045  0  0.011999  0.160079  0  3.953987  0
C  C186  1  0.38748935  0.98410886  0.39428766  1  0.015385  0  0.011925  0.159927  0  3.954225  0
C  C187  1  0.11251157  0.51589285  0.89428663  1  0.015053  0  0.011987  0.160086  0  3.954082  0
C  C188  1  0.11251024  0.48411107  0.39428708  1  0.015391  0  0.012008  0.160124  0  3.953935  0
C  C189  1  0.38749115  0.01588764  0.89428737  1  0.015358  0  0.012005  0.160116  0  3.953967  0
C  C190  1  0.61250869  0.01588969  0.60571399  1  0.015464  0  0.012  0.160135  0  3.953874  0
C  C191  1  0.88749133  0.48410992  0.10571278  1  0.015356  0  0.011985  0.160109  0  3.954028  0
C  C192  1  0.28182758  0.24580707  0.27817989  1  -0.069081  0  -0.093032  -0.209416  0  3.886239  0
C  C193  1  0.21817174  0.25418585  0.77818348  1  -0.068911  0  -0.092982  -0.209225  0  3.886245  0
C  C194  1  0.78182579  0.25418874  0.72181580  1  -0.069011  0  -0.092919  -0.209208  0  3.886092  0
C  C195  1  0.71817282  0.24580699  0.22181668  1  -0.068971  0  -0.09297  -0.209326  0  3.886164  0
C  C196  1  0.71817324  0.75418845  0.72181774  1  -0.068971  0  -0.092991  -0.209212  0  3.886216  0
C  C197  1  0.78182630  0.74581450  0.22181504  1  -0.068937  0  -0.092993  -0.209268  0  3.886247  0
C  C198  1  0.21817156  0.74581101  0.27818093  1  -0.068868  0  -0.093021  -0.209324  0  3.886113  0
C  C199  1  0.28182522  0.75418854  0.77818363  1  -0.068992  0  -0.093037  -0.209298  0  3.8863  0
C  C200  1  0.08181918  0.05602258  0.55384201  1  -0.095277  0  0.009357  0.164833  0  3.952623  0
C  C201  1  0.41818088  0.44397929  0.05384308  1  -0.095334  0  0.009319  0.164835  0  3.952614  0
C  C202  1  0.58181656  0.44397759  0.44615638  1  -0.095295  0  0.009315  0.164865  0  3.952581  0
C  C203  1  0.91818340  0.05602307  0.94615841  1  -0.095295  0  0.009331  0.164831  0  3.9526  0
C  C204  1  0.91818095  0.94397837  0.44615785  1  -0.095318  0  0.009371  0.164855  0  3.952638  0
C  C205  1  0.58181786  0.55602288  0.94615901  1  -0.095491  0  0.009334  0.164834  0  3.952678  0
C  C206  1  0.41818148  0.55602155  0.55384259  1  -0.095353  0  0.009369  0.164882  0  3.952609  0
C  C207  1  0.08181603  0.94397728  0.05384190  1  -0.095464  0  0.009367  0.164936  0  3.952584  0
C  C208  1  0.57166068  0.42349178  0.67749611  1  -0.006529  0  -0.083148  -0.188951  0  3.947385  0
C  C209  1  0.92833863  0.07650888  0.17749806  1  -0.006274  0  -0.083098  -0.188998  0  3.947253  0
C  C210  1  0.07165915  0.07650418  0.32250407  1  -0.006314  0  -0.083148  -0.188906  0  3.947309  0
C  C211  1  0.42834155  0.42349348  0.82250298  1  -0.006329  0  -0.083095  -0.188819  0  3.947178  0
C  C212  1  0.42833735  0.57650918  0.32250241  1  -0.006494  0  -0.083069  -0.188919  0  3.947327  0
C  C213  1  0.07166080  0.92349510  0.82250448  1  -0.006312  0  -0.083108  -0.188817  0  3.9473  0
C  C214  1  0.92833958  0.92349436  0.67749579  1  -0.006316  0  -0.083131  -0.188834  0  3.947314  0
C  C215  1  0.57165996  0.57650808  0.17749822  1  -0.006329  0  -0.083108  -0.188983  0  3.947303  0
C  C216  1  0.64619264  0.35412729  0.59711498  1  -0.008009  0  -0.084921  -0.186368  0  3.949899  0
C  C217  1  0.85380391  0.14587233  0.09711730  1  -0.007941  0  -0.084977  -0.18632  0  3.949838  0
C  C218  1  0.14619381  0.14586862  0.40288474  1  -0.008176  0  -0.084938  -0.18638  0  3.949818  0
C  C219  1  0.35380688  0.35412947  0.90288330  1  -0.007988  0  -0.084979  -0.186443  0  3.9498  0
C  C220  1  0.35380609  0.64587246  0.40288533  1  -0.008093  0  -0.084899  -0.186292  0  3.949844  0
C  C221  1  0.14619344  0.85412983  0.90288613  1  -0.008107  0  -0.085004  -0.18643  0  3.949835  0
C  C222  1  0.85380770  0.85412992  0.59711378  1  -0.008072  0  -0.084941  -0.186287  0  3.949754  0
C  C223  1  0.64619532  0.64587149  0.09711746  1  -0.00802  0  -0.084963  -0.186338  0  3.949881  0
C  C224  1  0.99686579  0.60278393  0.55503725  1  0.435747  0  0.041432  0.076788  0  3.975548  0
C  C225  1  0.50313724  0.89721214  0.05503752  1  0.436613  0  0.041525  0.076884  0  3.975601  0
C  C226  1  0.49686463  0.89721353  0.44496274  1  0.436344  0  0.041488  0.076922  0  3.975481  0
C  C227  1  0.00313906  0.60278686  0.94496206  1  0.435967  0  0.041521  0.076832  0  3.975744  0
C  C228  1  0.00313850  0.39721340  0.44496305  1  0.435666  0  0.041514  0.076908  0  3.975593  0
C  C229  1  0.49686496  0.10278399  0.94496234  1  0.435733  0  0.041472  0.076897  0  3.975528  0
C  C230  1  0.50313479  0.10278320  0.55503846  1  0.435742  0  0.041475  0.076938  0  3.975521  0
C  C231  1  0.99686523  0.39721229  0.05503825  1  0.436349  0  0.041504  0.076943  0  3.975512  0
C  C232  1  0.15069800  0.18540468  0.57543429  1  0.456187  0  0.044158  0.09587  0  3.952641  0
C  C233  1  0.34930274  0.31459715  0.07543776  1  0.456215  0  0.044163  0.095725  0  3.952673  0
C  C234  1  0.65069551  0.31459485  0.42456453  1  0.456018  0  0.0442  0.095857  0  3.952617  0
C  C235  1  0.84930376  0.18540587  0.92456731  1  0.456182  0  0.044269  0.095973  0  3.952528  0
C  C236  1  0.84930420  0.81459628  0.42456423  1  0.456184  0  0.044255  0.095866  0  3.952611  0
C  C237  1  0.65069599  0.68540502  0.92456612  1  0.456172  0  0.044212  0.09589  0  3.952612  0
C  C238  1  0.34930392  0.68540369  0.57543399  1  0.456175  0  0.044228  0.095885  0  3.952609  0
C  C239  1  0.15069567  0.81459388  0.07543613  1  0.455957  0  0.044209  0.09584  0  3.952671  0
C  C240  1  0.07327465  0.13986333  0.55972575  1  0.026761  0  -0.090976  -0.195172  0  3.942782  0
C  C241  1  0.42672609  0.36013913  0.05972826  1  0.026862  0  -0.090886  -0.195118  0  3.942681  0
C  C242  1  0.57327281  0.36013625  0.44027264  1  0.026725  0  -0.090999  -0.195247  0  3.942793  0
C  C243  1  0.92672715  0.13986323  0.94027501  1  0.026739  0  -0.091  -0.195208  0  3.942771  0
C  C244  1  0.92672617  0.86013702  0.44027366  1  0.026769  0  -0.090995  -0.195173  0  3.942785  0
C  C245  1  0.57327333  0.63986364  0.94027428  1  0.026744  0  -0.090985  -0.195188  0  3.942849  0
C  C246  1  0.42672592  0.63986230  0.55972588  1  0.026792  0  -0.090978  -0.195155  0  3.942758  0
C  C247  1  0.07327366  0.86013592  0.05972619  1  0.026768  0  -0.090971  -0.195153  0  3.942826  0
C  C248  1  0.49492009  0.37391742  0.66935333  1  0.446474  0  0.047478  0.094473  0  3.968292  0
C  C249  1  0.00508064  0.12608420  0.16935347  1  0.446062  0  0.047546  0.094592  0  3.968232  0
C  C250  1  0.99491848  0.12608127  0.33064636  1  0.445759  0  0.047523  0.09455  0  3.968153  0
C  C251  1  0.50507941  0.37391664  0.83064447  1  0.445632  0  0.04755  0.094517  0  3.968118  0
C  C252  1  0.50507864  0.62608414  0.33064429  1  0.446056  0  0.047548  0.094517  0  3.96816  0
C  C253  1  0.99491879  0.87391797  0.83064639  1  0.446401  0  0.047494  0.094483  0  3.968346  0
C  C254  1  0.00508095  0.87391848  0.66935394  1  0.445771  0  0.047499  0.094517  0  3.96817  0
C  C255  1  0.49492001  0.62608311  0.16935405  1  0.445814  0  0.047489  0.094557  0  3.968263  0
C  C256  1  0.24261621  0.07142108  0.58091753  1  0.413873  0  0.040975  0.089234  0  3.984146  0
C  C257  1  0.25738384  0.42858013  0.08091908  1  0.413945  0  0.041003  0.089273  0  3.984186  0
C  C258  1  0.74261431  0.42857718  0.41908129  1  0.413987  0  0.040933  0.089227  0  3.984323  0
C  C259  1  0.75738566  0.07142235  0.91908286  1  0.413964  0  0.040899  0.089207  0  3.984238  0
C  C260  1  0.75738391  0.92857867  0.41908188  1  0.414007  0  0.041034  0.089346  0  3.984162  0
C  C261  1  0.74261420  0.57142204  0.91908212  1  0.413898  0  0.040937  0.089185  0  3.98432  0
C  C262  1  0.25738512  0.57142137  0.58091857  1  0.413984  0  0.040937  0.089275  0  3.984256  0
C  C263  1  0.24261447  0.92857680  0.08091878  1  0.413893  0  0.040897  0.089153  0  3.984187  0
C  C264  1  0.31816974  0.28314348  0.38189925  1  -0.111923  0  -0.083924  -0.047211  0  4.050431  0
C  C265  1  0.18182470  0.21685525  0.88190200  1  -0.112089  0  -0.083813  -0.04691  0  4.050197  0
C  C266  1  0.81817634  0.21685895  0.61809912  1  -0.112131  0  -0.083808  -0.047057  0  4.050167  0
C  C267  1  0.68182854  0.28314003  0.11809817  1  -0.112081  0  -0.083894  -0.047105  0  4.050319  0
C  C268  1  0.68182482  0.71685627  0.61809838  1  -0.112073  0  -0.083809  -0.046935  0  4.05025  0
C  C269  1  0.81817473  0.78314088  0.11809742  1  -0.112187  0  -0.083838  -0.047051  0  4.05028  0
C  C270  1  0.18182656  0.78314926  0.38190208  1  -0.11194  0  -0.083943  -0.047263  0  4.050459  0
C  C271  1  0.31816881  0.71685912  0.88190214  1  -0.111923  0  -0.083865  -0.047023  0  4.05024  0
C  C272  1  0.29332876  0.31959804  0.43350680  1  -0.006777  0  -0.103379  -0.238562  0  3.909554  0
C  C273  1  0.20666359  0.18039938  0.93350468  1  -0.006701  0  -0.103399  -0.238735  0  3.909696  0
C  C274  1  0.79333609  0.18040260  0.56649381  1  -0.006712  0  -0.103362  -0.23855  0  3.909586  0
C  C275  1  0.70667018  0.31959588  0.06649281  1  -0.006777  0  -0.103355  -0.238686  0  3.909703  0
C  C276  1  0.70666303  0.68040111  0.56649485  1  -0.00674  0  -0.103346  -0.238628  0  3.909668  0
C  C277  1  0.79333375  0.81959615  0.06649518  1  -0.006684  0  -0.103326  -0.238597  0  3.909688  0
C  C278  1  0.20666681  0.81960440  0.43350561  1  -0.006775  0  -0.103422  -0.238692  0  3.909587  0
C  C279  1  0.29333133  0.68040326  0.93350437  1  -0.006684  0  -0.103393  -0.238693  0  3.909656  0
C  C280  1  0.22285382  0.25175796  0.22380550  1  1.541903  0  0.171075  0.590783  0  4.267737  0
C  C281  1  0.27714551  0.24824233  0.72380597  1  1.541894  0  0.171082  0.590739  0  4.267696  0
C  C282  1  0.72285203  0.24824453  0.77619199  1  1.542619  0  0.171062  0.590892  0  4.267455  0
C  C283  1  0.77714657  0.25175530  0.27619196  1  1.542408  0  0.170985  0.590697  0  4.267791  0
C  C284  1  0.77714769  0.74824420  0.77619347  1  1.542617  0  0.171085  0.590774  0  4.267723  0
C  C285  1  0.72285461  0.75175924  0.27619300  1  1.54188  0  0.17109  0.590771  0  4.267576  0
C  C286  1  0.27714670  0.75175944  0.22380698  1  1.541836  0  0.171068  0.590695  0  4.267819  0
C  C287  1  0.22285564  0.74824505  0.72380612  1  1.542563  0  0.17106  0.590669  0  4.267852  0
C  C288  1  0.26871564  0.29303562  0.32659096  1  -0.074514  0  -0.08854  -0.051908  0  4.043926  0
C  C289  1  0.23127743  0.20696867  0.82659059  1  -0.074612  0  -0.088705  -0.052186  0  4.043985  0
C  C290  1  0.76872154  0.20697046  0.67340964  1  -0.074588  0  -0.088715  -0.052165  0  4.043954  0
C  C291  1  0.73128194  0.29303141  0.17340823  1  -0.074506  0  -0.088651  -0.052001  0  4.043801  0
C  C292  1  0.73127754  0.70696896  0.67341024  1  -0.07457  0  -0.088687  -0.052195  0  4.044043  0
C  C293  1  0.76872339  0.79303048  0.17340927  1  -0.074596  0  -0.088634  -0.052053  0  4.043979  0
C  C294  1  0.23127997  0.79303955  0.32659201  1  -0.074549  0  -0.08858  -0.051909  0  4.04358  0
C  C295  1  0.26871679  0.70697438  0.82658985  1  -0.074931  0  -0.088576  -0.051967  0  4.043942  0
C  C296  1  0.16897753  0.02138976  0.56507009  1  -0.026316  0  -0.090192  -0.194954  0  3.921787  0
C  C297  1  0.33102183  0.47861087  0.06507024  1  -0.026335  0  -0.090222  -0.195022  0  3.921786  0
C  C298  1  0.66897696  0.47860915  0.43492829  1  -0.026274  0  -0.090134  -0.194949  0  3.921745  0
C  C299  1  0.83102231  0.02139094  0.93493037  1  -0.026285  0  -0.090128  -0.194914  0  3.921787  0
C  C300  1  0.83102190  0.97861059  0.43492887  1  -0.026273  0  -0.09021  -0.195026  0  3.921833  0
C  C301  1  0.66897690  0.52138948  0.93493007  1  -0.026276  0  -0.090168  -0.194921  0  3.921816  0
C  C302  1  0.33102177  0.52138879  0.56507157  1  -0.026259  0  -0.090216  -0.195019  0  3.921871  0
C  C303  1  0.16897643  0.97860760  0.06507039  1  -0.026254  0  -0.090168  -0.19501  0  3.92186  0
C  C304  1  0.64992518  0.41430359  0.64077220  1  -0.023789  0  0.015875  0.168271  0  3.936186  0
C  C305  1  0.85007483  0.08569775  0.14077371  1  -0.024029  0  0.015855  0.168227  0  3.936204  0
C  C306  1  0.14992363  0.08569171  0.35922752  1  -0.023929  0  0.015873  0.168207  0  3.936205  0
C  C307  1  0.35007707  0.41430707  0.85922689  1  -0.023943  0  0.015877  0.168206  0  3.936081  0
C  C308  1  0.35007356  0.58569797  0.35922721  1  -0.023737  0  0.015874  0.168261  0  3.936199  0
C  C309  1  0.14992390  0.91430562  0.85922839  1  -0.023967  0  0.015898  0.16824  0  3.936179  0
C  C310  1  0.85007580  0.91430502  0.64077189  1  -0.023953  0  0.015856  0.168184  0  3.936275  0
C  C311  1  0.64992653  0.58569509  0.14077386  1  -0.02394  0  0.015908  0.168219  0  3.936198  0
C  C312  1  0.99815628  0.59925547  0.65826178  1  0.453436  0  0.049159  0.094552  0  3.941344  0
C  C313  1  0.50184535  0.90074219  0.15826115  1  0.453484  0  0.049101  0.094426  0  3.941244  0
C  C314  1  0.49815652  0.90074259  0.34173910  1  0.453202  0  0.049095  0.094405  0  3.941331  0
C  C315  1  0.00184580  0.59925621  0.84173843  1  0.453434  0  0.049112  0.094477  0  3.941383  0
C  C316  1  0.00184384  0.40074730  0.34173853  1  0.453962  0  0.049168  0.094565  0  3.941503  0
C  C317  1  0.49815616  0.09925394  0.84173827  1  0.453966  0  0.049153  0.094519  0  3.941447  0
C  C318  1  0.50184360  0.09925414  0.65826210  1  0.453425  0  0.049132  0.094489  0  3.941408  0
C  C319  1  0.99815572  0.40074294  0.15826232  1  0.453185  0  0.049097  0.094446  0  3.941464  0
C  C320  1  0.92448218  0.54733240  0.55273049  1  -0.071766  0  -0.087713  -0.19042  0  3.967201  0
C  C321  1  0.57552016  0.95266368  0.05273023  1  -0.072208  0  -0.08773  -0.190402  0  3.967226  0
C  C322  1  0.42448166  0.95266390  0.44726906  1  -0.072376  0  -0.087676  -0.190369  0  3.967355  0
C  C323  1  0.07552203  0.54733709  0.94726934  1  -0.071626  0  -0.087724  -0.190379  0  3.967437  0
C  C324  1  0.07551864  0.45266373  0.44726803  1  -0.071618  0  -0.08773  -0.190484  0  3.967428  0
C  C325  1  0.42448274  0.04733185  0.94726739  1  -0.07174  0  -0.087686  -0.190393  0  3.967249  0
C  C326  1  0.57551776  0.04733404  0.55273214  1  -0.071748  0  -0.08768  -0.19041  0  3.967264  0
C  C327  1  0.92448157  0.45266447  0.05273276  1  -0.072211  0  -0.087697  -0.190471  0  3.967285  0
C  C328  1  0.92591227  0.54338983  0.65952352  1  -0.061316  0  -0.08539  -0.186074  0  3.94114  0
C  C329  1  0.57408936  0.95660964  0.15952282  1  -0.061244  0  -0.08541  -0.18603  0  3.941171  0
C  C330  1  0.42590969  0.95660708  0.34047737  1  -0.060922  0  -0.085389  -0.185945  0  3.941108  0
C  C331  1  0.07408986  0.54339233  0.84047631  1  -0.061282  0  -0.085412  -0.18608  0  3.94121  0
C  C332  1  0.07408785  0.45661113  0.34047634  1  -0.061071  0  -0.085415  -0.186066  0  3.941165  0
C  C333  1  0.42591285  0.04338830  0.84047615  1  -0.060924  0  -0.085405  -0.186083  0  3.941115  0
C  C334  1  0.57408905  0.04339086  0.65952428  1  -0.061343  0  -0.085456  -0.186128  0  3.941143  0
C  C335  1  0.92591235  0.45660863  0.15952355  1  -0.061293  0  -0.085401  -0.185966  0  3.941081  0
C  C336  1  0.00105777  0.00518540  0.53426706  1  -0.019326  0  -0.156857  -0.191844  0  3.92479  0
C  C337  1  0.49894159  0.49481531  0.03426762  1  0.012121  0  -0.156874  -0.191788  0  3.924742  0
C  C338  1  0.50105719  0.49481423  0.46573267  1  0.01205  0  -0.156843  -0.191816  0  3.924678  0
C  C339  1  0.99894277  0.00518519  0.96573208  1  0.011996  0  -0.15688  -0.191832  0  3.924785  0
C  C340  1  0.99894235  0.99481435  0.46573280  1  0.01203  0  -0.156829  -0.191753  0  3.924725  0
C  C341  1  0.50105714  0.50518565  0.96573358  1  -0.019244  0  -0.156858  -0.191918  0  3.924823  0
C  C342  1  0.49894155  0.50518491  0.53426719  1  -0.019273  0  -0.156855  -0.191823  0  3.924776  0
C  C343  1  0.00105735  0.99481396  0.03426644  1  -0.019184  0  -0.156838  -0.191894  0  3.924781  0
C  C344  1  0.56692801  0.30676411  0.59179351  1  0.464811  0  0.049598  0.101273  0  3.961665  0
C  C345  1  0.93307270  0.19323613  0.09179399  1  0.464859  0  0.049625  0.101215  0  3.961668  0
C  C346  1  0.06692774  0.19323306  0.40820666  1  0.465024  0  0.049597  0.101279  0  3.961819  0
C  C347  1  0.43307156  0.30676562  0.90820571  1  0.464691  0  0.049652  0.101358  0  3.961706  0
C  C348  1  0.43307211  0.69323745  0.40820590  1  0.464837  0  0.04963  0.101259  0  3.961648  0
C  C349  1  0.06692603  0.80676604  0.90820721  1  0.464864  0  0.049638  0.101316  0  3.961708  0
C  C350  1  0.93307585  0.80676609  0.59179230  1  0.464868  0  0.049613  0.101219  0  3.961735  0
C  C351  1  0.56692856  0.69323413  0.09179370  1  0.464796  0  0.049602  0.101231  0  3.961908  0
C  C352  1  0.33245129  0.29617985  0.49237645  1  1.525655  0  0.17469  0.584744  0  4.275296  0
C  C353  1  0.16754592  0.20381623  0.99237609  1  1.525655  0  0.174827  0.584883  0  4.275052  0
C  C354  1  0.83245375  0.20381774  0.50762236  1  1.52578  0  0.174763  0.584773  0  4.275214  0
C  C355  1  0.66755323  0.29617725  0.00762318  1  1.525708  0  0.174753  0.584823  0  4.275077  0
C  C356  1  0.66754745  0.70381688  0.50762162  1  1.525797  0  0.174751  0.58483  0  4.275327  0
C  C357  1  0.83245143  0.79618110  0.00762332  1  1.525665  0  0.174674  0.584664  0  4.275421  0
C  C358  1  0.16754916  0.79618744  0.49237794  1  1.525602  0  0.174907  0.585047  0  4.27477  0
C  C359  1  0.33244828  0.70381586  0.99237712  1  1.525571  0  0.174783  0.584849  0  4.275107  0
C  C360  1  0.73248619  0.46900839  0.64857330  1  -0.027757  0  -0.151245  -0.198831  0  3.947477  0
C  C361  1  0.76751243  0.03099112  0.14857354  1  -0.027909  0  -0.151223  -0.198868  0  3.947453  0
C  C362  1  0.23248608  0.03098927  0.35142641  1  -0.027698  0  -0.151265  -0.198917  0  3.947494  0
C  C363  1  0.26751323  0.46901014  0.85142662  1  -0.027863  0  -0.151236  -0.198835  0  3.947462  0
C  C364  1  0.26751254  0.53099196  0.35142656  1  -0.02791  0  -0.151224  -0.198786  0  3.947463  0
C  C365  1  0.23248700  0.96900924  0.85142721  1  -0.02777  0  -0.151217  -0.198788  0  3.94753  0
C  C366  1  0.76751265  0.96900867  0.64857390  1  -0.027931  0  -0.151211  -0.198828  0  3.947568  0
C  C367  1  0.73248759  0.53099142  0.14857369  1  -0.027916  0  -0.151212  -0.198871  0  3.947612  0
C  C368  1  0.80988387  0.45532300  0.60298039  1  -0.067334  0  -0.154518  -0.194902  0  3.953426  0
C  C369  1  0.69011684  0.04467601  0.10298106  1  -0.067326  0  -0.154505  -0.194875  0  3.953462  0
C  C370  1  0.30988236  0.04467521  0.39701977  1  -0.067247  0  -0.154506  -0.194861  0  3.953528  0
C  C371  1  0.19011695  0.45532530  0.89701910  1  -0.067385  0  -0.154512  -0.194898  0  3.953619  0
C  C372  1  0.19011625  0.54467796  0.39701947  1  -0.067313  0  -0.154524  -0.194994  0  3.953549  0
C  C373  1  0.30988398  0.95532254  0.89701969  1  -0.06745  0  -0.154549  -0.194976  0  3.953493  0
C  C374  1  0.69011777  0.95532273  0.60298143  1  -0.067317  0  -0.15451  -0.194925  0  3.953429  0
C  C375  1  0.80988457  0.54467565  0.10298076  1  -0.067306  0  -0.154527  -0.194894  0  3.953488  0
N  N376  1  0.49235511  0.31634346  0.62699310  1  -1.204048  0  -0.330901  -0.237579  0  3.516574  0
N  N377  1  0.00764007  0.18365764  0.12699361  1  -1.204086  0  -0.331003  -0.237651  0  3.516819  0
N  N378  1  0.99235761  0.18365341  0.37300794  1  -1.204008  0  -0.330968  -0.237643  0  3.516716  0
N  N379  1  0.50764445  0.31634319  0.87300567  1  -1.203791  0  -0.330996  -0.23771  0  3.516544  0
N  N380  1  0.50763946  0.68365930  0.37300542  1  -1.204007  0  -0.331049  -0.237681  0  3.516646  0
N  N381  1  0.99235658  0.81634573  0.87300759  1  -1.204041  0  -0.330969  -0.237668  0  3.5168  0
N  N382  1  0.00764529  0.81634634  0.62699102  1  -1.204046  0  -0.330934  -0.237622  0  3.516674  0
N  N383  1  0.49235776  0.68365535  0.12699240  1  -1.203986  0  -0.330946  -0.237637  0  3.516742  0
N  N384  1  0.03353513  0.62835555  0.60698562  1  -1.235339  0  -0.326911  -0.246075  0  3.506832  0
N  N385  1  0.46646792  0.87164015  0.10698498  1  -1.235437  0  -0.326865  -0.245987  0  3.506795  0
N  N386  1  0.53353606  0.87164223  0.39301351  1  -1.23544  0  -0.326911  -0.246054  0  3.506743  0
N  N387  1  0.96646622  0.62835672  0.89301411  1  -1.235359  0  -0.326938  -0.246092  0  3.50702  0
N  N388  1  0.96646568  0.37164179  0.39301201  1  -1.23613  0  -0.326927  -0.246134  0  3.506881  0
N  N389  1  0.53353637  0.12835477  0.89301309  1  -1.236144  0  -0.326887  -0.24606  0  3.506911  0
N  N390  1  0.46646406  0.12835692  0.60698724  1  -1.235384  0  -0.326891  -0.246107  0  3.506809  0
N  N391  1  0.03353460  0.37164182  0.10698664  1  -1.235205  0  -0.326911  -0.246087  0  3.506849  0
N  N392  1  0.23442036  0.15203289  0.58560925  1  -1.213697  0  -0.331755  -0.239521  0  3.51593  0
N  N393  1  0.26558177  0.34797012  0.08561223  1  -1.213832  0  -0.331851  -0.239505  0  3.516019  0
N  N394  1  0.73441784  0.34796718  0.41439092  1  -1.213804  0  -0.331723  -0.239459  0  3.516035  0
N  N395  1  0.76558282  0.15203356  0.91439329  1  -1.213763  0  -0.331789  -0.239558  0  3.515952  0
N  N396  1  0.76558185  0.84796867  0.41438927  1  -1.213818  0  -0.331879  -0.239604  0  3.51604  0
N  N397  1  0.73441904  0.65203265  0.91439120  1  -1.213655  0  -0.331725  -0.23948  0  3.516037  0
N  N398  1  0.26558159  0.65203076  0.58560805  1  -1.213782  0  -0.331808  -0.239616  0  3.515986  0
N  N399  1  0.23441799  0.84796619  0.08561148  1  -1.213745  0  -0.331729  -0.2394  0  3.51594  0
O  O400  1  0.39766778  0.24444737  0.49526433  1  -1.177208  0  -0.347203  -0.594639  0  2.149868  0
O  O401  1  0.10232873  0.25554750  0.99526347  1  -1.177162  0  -0.34732  -0.594767  0  2.149936  0
O  O402  1  0.89767158  0.25554897  0.50473224  1  -1.177244  0  -0.347234  -0.594652  0  2.149884  0
O  O403  1  0.60233679  0.24444301  0.00473447  1  -1.177194  0  -0.347257  -0.594681  0  2.149703  0
O  O404  1  0.60232887  0.75554816  0.50473508  1  -1.177191  0  -0.347271  -0.594712  0  2.149853  0
O  O405  1  0.89767000  0.74444803  0.00473505  1  -1.17723  0  -0.34723  -0.594658  0  2.149883  0
O  O406  1  0.10233132  0.74445561  0.49526762  1  -1.176979  0  -0.347306  -0.594745  0  2.149683  0
O  O407  1  0.39766820  0.75555131  0.99526271  1  -1.177077  0  -0.347324  -0.594744  0  2.149623  0
O  O408  1  0.23452108  0.19664328  0.18410980  1  -1.155876  0  -0.359802  -0.573499  0  2.109489  0
O  O409  1  0.26547687  0.30335347  0.68410931  1  -1.155808  0  -0.359834  -0.573487  0  2.10952  0
O  O410  1  0.73452062  0.30335498  0.81588723  1  -1.155756  0  -0.359863  -0.573555  0  2.109525  0
O  O411  1  0.76547867  0.19664115  0.31588995  1  -1.155665  0  -0.359804  -0.573484  0  2.10952  0
O  O412  1  0.76547904  0.80335586  0.81589006  1  -1.155851  0  -0.359814  -0.573512  0  2.109492  0
O  O413  1  0.73452465  0.69664990  0.31589010  1  -1.155693  0  -0.359841  -0.573507  0  2.109505  0
O  O414  1  0.26548020  0.69664598  0.18410861  1  -1.155778  0  -0.359842  -0.573451  0  2.109484  0
O  O415  1  0.23452284  0.80335377  0.68410812  1  -1.15584  0  -0.359816  -0.573437  0  2.109626  0
O  O416  1  0.29356212  0.32782873  0.53839900  1  -1.157463  0  -0.341224  -0.561392  0  2.170032  0
O  O417  1  0.20643863  0.17216774  0.03839729  1  -1.157477  0  -0.341254  -0.56145  0  2.169937  0
O  O418  1  0.79356114  0.17216949  0.46160071  1  -1.157514  0  -0.34125  -0.561395  0  2.170002  0
O  O419  1  0.70644159  0.32782752  0.96160153  1  -1.157467  0  -0.341252  -0.561416  0  2.169992  0
O  O420  1  0.70643661  0.67217042  0.46160175  1  -1.15751  0  -0.341222  -0.561431  0  2.170198  0
O  O421  1  0.79356219  0.82783080  0.96160257  1  -1.15744  0  -0.341194  -0.561324  0  2.170062  0
O  O422  1  0.20644106  0.82783690  0.53839781  1  -1.157675  0  -0.341289  -0.561511  0  2.16996  0
O  O423  1  0.29356339  0.67216861  0.03839833  1  -1.157548  0  -0.341217  -0.56143  0  2.170176  0
O  O424  1  0.16512747  0.30943039  0.21852818  1  -1.175514  0  -0.351706  -0.584908  0  2.121268  0
O  O425  1  0.33487325  0.19057052  0.71853095  1  -1.175534  0  -0.351667  -0.584872  0  2.121259  0
O  O426  1  0.66512573  0.19056973  0.78146439  1  -1.176209  0  -0.351665  -0.585009  0  2.121056  0
O  O427  1  0.83487287  0.30942707  0.28146563  1  -1.176217  0  -0.35163  -0.5849  0  2.121303  0
O  O428  1  0.83487474  0.69057117  0.78146944  1  -1.176243  0  -0.351697  -0.584918  0  2.121246  0
O  O429  1  0.66512687  0.80943285  0.28146801  1  -1.175536  0  -0.351683  -0.584923  0  2.121206  0
O  O430  1  0.33487578  0.80942881  0.21853145  1  -1.17552  0  -0.351627  -0.584828  0  2.121335  0
O  O431  1  0.16512864  0.69057026  0.71853110  1  -1.176164  0  -0.351668  -0.5849  0  2.121267  0
