# generated using pymatgen
data_Nd2H42C36S3(N2O3)6
_symmetry_space_group_name_H-M   'P 1'
_cell_length_a   12.14167494
_cell_length_b   16.94984512
_cell_length_c   25.65746322
_cell_angle_alpha   102.24041380
_cell_angle_beta   90.00004929
_cell_angle_gamma   90.00002434
_symmetry_Int_Tables_number   1
_chemical_formula_structural   Nd2H42C36S3(N2O3)6
_chemical_formula_sum   'Nd8 H168 C144 S12 N48 O72'
_cell_volume   5160.25428997
_cell_formula_units_Z   4
loop_
 _symmetry_equiv_pos_site_id
 _symmetry_equiv_pos_as_xyz
  1  'x, y, z'
loop_
 _atom_site_type_symbol
 _atom_site_label
 _atom_site_symmetry_multiplicity
 _atom_site_fract_x
 _atom_site_fract_y
 _atom_site_fract_z
 _atom_site_occupancy
 _atom_site_pbe_bader_charge
 _atom_site_pbe_bader_spin_density
 _atom_site_pbe_cm5_charge
 _atom_site_pbe_ddec_charge
 _atom_site_pbe_ddec_spin_density
 _atom_site_pbe_ddec_sum_bond_order
 _atom_site_pbe_magmom
Nd  Nd0  1  0.52359813  0.51290028  0.58065375  1  2.251778  0  1.488791  2.108604  0  2.13789  0
Nd  Nd1  1  0.52359940  0.98709937  0.91934678  1  2.251858  0  1.488794  2.108639  0  2.137793  0
Nd  Nd2  1  0.47640103  0.48710016  0.41934585  1  2.251764  0  1.488782  2.108564  0  2.138001  0
Nd  Nd3  1  0.47640469  0.01289866  0.08065482  1  2.251724  0  1.488786  2.108597  0  2.137965  0
Nd  Nd4  1  0.99913123  0.04042904  0.58256490  1  2.249382  0  1.491034  2.101448  0  2.158636  0
Nd  Nd5  1  0.99913248  0.45957210  0.91743372  1  2.249367  0  1.491048  2.101486  0  2.158516  0
Nd  Nd6  1  0.00086546  0.95957019  0.41743414  1  2.249361  0  1.491037  2.10142  0  2.158628  0
Nd  Nd7  1  0.00086832  0.54042955  0.08256644  1  2.249367  0  1.491028  2.101447  0  2.15858  0
H  H8  1  0.83452806  0.39013146  0.63440824  1  0.537901  0  0.305905  0.28822  0  1.0123  0
H  H9  1  0.83452819  0.10986901  0.86559217  1  0.537909  0  0.305892  0.288205  0  1.012318  0
H  H10  1  0.16547357  0.60987079  0.36559200  1  0.537882  0  0.305871  0.288139  0  1.012369  0
H  H11  1  0.16547344  0.89013143  0.13440899  1  0.537879  0  0.305873  0.288162  0  1.012371  0
H  H12  1  0.79783287  0.48392307  0.50377910  1  0.482042  0  0.323732  0.293933  0  0.931524  0
H  H13  1  0.79783317  0.01607738  0.99622129  1  0.482045  0  0.32373  0.293944  0  0.931507  0
H  H14  1  0.20216793  0.51607858  0.49622106  1  0.482048  0  0.323764  0.293985  0  0.931445  0
H  H15  1  0.20216680  0.98392246  0.00377900  1  0.482049  0  0.323758  0.293974  0  0.931497  0
H  H16  1  0.38516348  0.66433958  0.66829350  1  0.514527  0  0.320982  0.304849  0  0.954813  0
H  H17  1  0.38516533  0.83566181  0.83170410  1  0.514315  0  0.320989  0.304924  0  0.954703  0
H  H18  1  0.61483650  0.33566267  0.33170596  1  0.514517  0  0.320973  0.304903  0  0.954692  0
H  H19  1  0.61483794  0.16433982  0.16829216  1  0.514495  0  0.32097  0.304842  0  0.954821  0
H  H20  1  0.66829826  0.79019570  0.66498769  1  0.452723  0  0.325057  0.291378  0  0.930505  0
H  H21  1  0.66829592  0.70980281  0.83501392  1  0.452829  0  0.325054  0.291374  0  0.930565  0
H  H22  1  0.33170254  0.20980594  0.33501208  1  0.452755  0  0.325068  0.291324  0  0.930622  0
H  H23  1  0.33169994  0.29019099  0.16498827  1  0.452714  0  0.325068  0.291335  0  0.930528  0
H  H24  1  0.93031141  0.31481030  0.69231862  1  0.544916  0  0.302765  0.290544  0  1.010264  0
H  H25  1  0.93031066  0.18519021  0.80768106  1  0.544911  0  0.302758  0.290546  0  1.010267  0
H  H26  1  0.06968939  0.68519014  0.30768098  1  0.544905  0  0.302752  0.290505  0  1.010297  0
H  H27  1  0.06968767  0.81481083  0.19231941  1  0.54492  0  0.302755  0.290537  0  1.010284  0
H  H28  1  0.20398074  0.17801301  0.64903490  1  0.503816  0  0.307334  0.282472  0  0.997365  0
H  H29  1  0.20398096  0.32198656  0.85096552  1  0.503803  0  0.307319  0.282462  0  0.997373  0
H  H30  1  0.79602006  0.82198622  0.35096493  1  0.503824  0  0.307358  0.282459  0  0.99741  0
H  H31  1  0.79601819  0.67801388  0.14903525  1  0.503843  0  0.307325  0.282377  0  0.997478  0
H  H32  1  0.67442434  0.96841768  0.68343288  1  0.526017  0  0.301068  0.284298  0  1.006646  0
H  H33  1  0.67442597  0.53157841  0.81656644  1  0.526009  0  0.301055  0.284267  0  1.006741  0
H  H34  1  0.32557399  0.03158034  0.31656677  1  0.526038  0  0.301073  0.284295  0  1.00666  0
H  H35  1  0.32557483  0.46842202  0.18343316  1  0.525989  0  0.30106  0.284261  0  1.006735  0
H  H36  1  0.00102716  0.99272164  0.71094937  1  0.497097  0  0.306265  0.282494  0  0.998227  0
H  H37  1  0.00102709  0.50727717  0.78905083  1  0.497062  0  0.306301  0.282541  0  0.998212  0
H  H38  1  0.99897117  0.00727880  0.28905023  1  0.497082  0  0.306274  0.282482  0  0.998247  0
H  H39  1  0.99897454  0.49272387  0.21094924  1  0.497086  0  0.306277  0.282517  0  0.998271  0
H  H40  1  0.26274512  0.35286622  0.41650549  1  0.121896  0  0.114161  0.132902  0  1.038009  0
H  H41  1  0.26274394  0.14713371  0.08349525  1  0.121861  0  0.114168  0.132882  0  1.038025  0
H  H42  1  0.73725321  0.64713422  0.58349256  1  0.121946  0  0.114091  0.132803  0  1.038076  0
H  H43  1  0.73725357  0.85286553  0.91650613  1  0.121955  0  0.114134  0.132921  0  1.038039  0
H  H44  1  0.13421091  0.22136383  0.39833549  1  0.080251  0  0.110135  0.124429  0  0.98421  0
H  H45  1  0.13421148  0.27863724  0.10166496  1  0.080231  0  0.110137  0.124426  0  0.984241  0
H  H46  1  0.86578825  0.77863419  0.60166260  1  0.080328  0  0.110162  0.124504  0  0.984175  0
H  H47  1  0.86578768  0.72136441  0.89833519  1  0.080254  0  0.110137  0.124432  0  0.984254  0
H  H48  1  0.51866812  0.39584970  0.75399347  1  0.107616  0  0.113604  0.12281  0  1.00942  0
H  H49  1  0.51866226  0.10415243  0.74600666  1  0.107698  0  0.1136  0.122826  0  1.009323  0
H  H50  1  0.48133103  0.60415013  0.24600644  1  0.107594  0  0.113616  0.122831  0  1.009392  0
H  H51  1  0.48133195  0.89584982  0.25399320  1  0.107616  0  0.113609  0.122819  0  1.009407  0
H  H52  1  0.39538290  0.38898901  0.83911379  1  0.11674  0  0.113816  0.125156  0  0.997911  0
H  H53  1  0.39537772  0.11101004  0.66088586  1  0.116773  0  0.113804  0.125088  0  0.99806  0
H  H54  1  0.60461707  0.61101022  0.16088525  1  0.116737  0  0.113819  0.125128  0  0.997925  0
H  H55  1  0.60461814  0.88898979  0.33911327  1  0.11676  0  0.113815  0.125146  0  0.998008  0
H  H56  1  0.74184289  0.26128729  0.39099630  1  0.072308  0  0.1112  0.128326  0  0.997261  0
H  H57  1  0.74184510  0.23871346  0.10900475  1  0.072554  0  0.111187  0.128282  0  0.997287  0
H  H58  1  0.25815791  0.73871315  0.60900369  1  0.072588  0  0.111212  0.128337  0  0.99724  0
H  H59  1  0.25815405  0.76128880  0.89099705  1  0.07225  0  0.111208  0.128284  0  0.997311  0
H  H60  1  0.84669908  0.12945066  0.40570169  1  0.145337  0  0.113748  0.133583  0  1.027879  0
H  H61  1  0.84670298  0.37054832  0.09429799  1  0.145378  0  0.113765  0.133607  0  1.027863  0
H  H62  1  0.15329761  0.87054857  0.59429813  1  0.145365  0  0.113756  0.133607  0  1.027858  0
H  H63  1  0.15329452  0.62945333  0.90570217  1  0.145372  0  0.113763  0.133604  0  1.027836  0
H  H64  1  0.00143448  0.41964118  0.49600370  1  0.101138  0  0.099365  0.077592  0  0.99844  0
H  H65  1  0.00143558  0.08035923  0.00399622  1  0.101138  0  0.099382  0.077589  0  0.998379  0
H  H66  1  0.99856714  0.58036046  0.50399567  1  0.101158  0  0.099387  0.077632  0  0.99841  0
H  H67  1  0.99856605  0.91963940  0.99600430  1  0.101144  0  0.099371  0.077609  0  0.998432  0
H  H68  1  0.89032828  0.34913550  0.48465516  1  0.056476  0  0.093849  0.066492  0  1.014172  0
H  H69  1  0.89032945  0.15086411  0.01534462  1  0.056506  0  0.093845  0.066469  0  1.0142  0
H  H70  1  0.10967252  0.65086675  0.51534469  1  0.056935  0  0.093819  0.066431  0  1.014194  0
H  H71  1  0.10967300  0.84913392  0.98465660  1  0.056971  0  0.093842  0.066446  0  1.014216  0
H  H72  1  0.95520325  0.30820276  0.56292392  1  0.061488  0  0.10594  0.086322  0  0.992308  0
H  H73  1  0.95520273  0.19179897  0.93707633  1  0.061459  0  0.105917  0.086308  0  0.992301  0
H  H74  1  0.04479755  0.69180010  0.43707602  1  0.061428  0  0.105962  0.08638  0  0.992322  0
H  H75  1  0.04479807  0.80820268  0.06292500  1  0.061478  0  0.105973  0.086393  0  0.992301  0
H  H76  1  0.03197235  0.39857642  0.58387791  1  0.070008  0  0.093417  0.063578  0  0.988731  0
H  H77  1  0.03197174  0.10142488  0.91612190  1  0.070023  0  0.093398  0.063537  0  0.988725  0
H  H78  1  0.96803010  0.60142462  0.41612139  1  0.070047  0  0.093394  0.063527  0  0.988739  0
H  H79  1  0.96802906  0.89857616  0.08387895  1  0.070017  0  0.093426  0.063554  0  0.988698  0
H  H80  1  0.35716492  0.81865579  0.66462017  1  0.041399  0  0.0927  0.060346  0  1.021629  0
H  H81  1  0.35715844  0.68134619  0.83537751  1  0.041432  0  0.092668  0.060325  0  1.021677  0
H  H82  1  0.64283753  0.18134706  0.33537977  1  0.041407  0  0.092703  0.060328  0  1.021696  0
H  H83  1  0.64283495  0.31865545  0.16461992  1  0.041395  0  0.092728  0.060412  0  1.021573  0
H  H84  1  0.35399490  0.80759416  0.73226660  1  0.070092  0  0.100636  0.074636  0  1.017642  0
H  H85  1  0.35399737  0.69240722  0.76773177  1  0.06955  0  0.100635  0.07462  0  1.017682  0
H  H86  1  0.64600425  0.19240689  0.26773348  1  0.069619  0  0.100638  0.074634  0  1.017602  0
H  H87  1  0.64600343  0.30759381  0.23226558  1  0.070096  0  0.100642  0.074593  0  1.017626  0
H  H88  1  0.54144188  0.84736259  0.74708646  1  0.012674  0  0.097946  0.068661  0  1.012317  0
H  H89  1  0.54144100  0.65263466  0.75291414  1  0.012698  0  0.097939  0.068647  0  1.012292  0
H  H90  1  0.45855892  0.15263665  0.25291532  1  0.012742  0  0.09794  0.068622  0  1.012337  0
H  H91  1  0.45855733  0.34736095  0.24708596  1  0.012659  0  0.097984  0.068759  0  1.012284  0
H  H92  1  0.51545285  0.89778267  0.69311578  1  0.135  0  0.106163  0.097748  0  1.045396  0
H  H93  1  0.51544874  0.60221698  0.80688553  1  0.134969  0  0.106161  0.097748  0  1.045394  0
H  H94  1  0.48454960  0.10221838  0.30688663  1  0.134917  0  0.106165  0.097751  0  1.045421  0
H  H95  1  0.48454464  0.39778105  0.19311491  1  0.13506  0  0.106172  0.097768  0  1.045412  0
H  H96  1  0.24238735  0.32649196  0.65284763  1  0.059733  0  0.093762  0.06853  0  1.007999  0
H  H97  1  0.24238748  0.17350764  0.84715359  1  0.059711  0  0.093768  0.068534  0  1.007912  0
H  H98  1  0.75761428  0.67350727  0.34715180  1  0.059673  0  0.093754  0.068533  0  1.007933  0
H  H99  1  0.75761085  0.82649281  0.15284757  1  0.060081  0  0.093719  0.068459  0  1.008013  0
H  H100  1  0.27013234  0.31256904  0.71858999  1  0.052405  0  0.094995  0.071802  0  1.012157  0
H  H101  1  0.27013154  0.18743117  0.78141093  1  0.052427  0  0.095011  0.071839  0  1.012107  0
H  H102  1  0.72986928  0.68743019  0.28141022  1  0.05243  0  0.095006  0.071829  0  1.012117  0
H  H103  1  0.72986762  0.81256927  0.21859023  1  0.052386  0  0.095027  0.071846  0  1.012172  0
H  H104  1  0.10020855  0.37154243  0.75230740  1  0.084698  0  0.096578  0.064279  0  1.028051  0
H  H105  1  0.10020930  0.12845830  0.74769236  1  0.084689  0  0.096593  0.064294  0  1.028013  0
H  H106  1  0.89979225  0.62845801  0.24769220  1  0.084664  0  0.096617  0.064346  0  1.028028  0
H  H107  1  0.89979068  0.87154214  0.25230802  1  0.084673  0  0.096612  0.064331  0  1.028031  0
H  H108  1  0.09701043  0.41276601  0.69393496  1  0.036292  0  0.096747  0.066147  0  0.998547  0
H  H109  1  0.09701044  0.08723412  0.80606432  1  0.036245  0  0.096756  0.066154  0  0.998556  0
H  H110  1  0.90299119  0.58723382  0.30606377  1  0.036238  0  0.096754  0.06614  0  0.998538  0
H  H111  1  0.90298789  0.91276632  0.19393606  1  0.036248  0  0.096749  0.066137  0  0.998527  0
H  H112  1  0.72083290  0.00735655  0.78587251  1  0.103582  0  0.105558  0.088377  0  1.003049  0
H  H113  1  0.72083545  0.49264144  0.71412556  1  0.10355  0  0.105556  0.08835  0  1.003063  0
H  H114  1  0.27916461  0.99264328  0.21412662  1  0.103585  0  0.105536  0.088338  0  1.003076  0
H  H115  1  0.27916700  0.50736080  0.28587351  1  0.103489  0  0.105531  0.088281  0  1.00309  0
H  H116  1  0.71824536  0.90026322  0.76612525  1  0.057856  0  0.103488  0.078793  0  0.986087  0
H  H117  1  0.71824607  0.59973592  0.73387607  1  0.057657  0  0.103421  0.078673  0  0.986109  0
H  H118  1  0.28175461  0.09973662  0.23387505  1  0.057871  0  0.103432  0.078707  0  0.986009  0
H  H119  1  0.28175638  0.40026694  0.26612464  1  0.057973  0  0.103431  0.078673  0  0.986129  0
H  H120  1  0.91571893  0.89125637  0.75800401  1  0.011875  0  0.094089  0.055445  0  0.97347  0
H  H121  1  0.91571966  0.60874347  0.74199866  1  0.011884  0  0.094095  0.055472  0  0.973539  0
H  H122  1  0.08428022  0.10874407  0.24199676  1  0.011849  0  0.094088  0.055465  0  0.973509  0
H  H123  1  0.08428279  0.39125878  0.25800198  1  0.011951  0  0.094104  0.055496  0  0.973495  0
H  H124  1  0.90921578  0.98517864  0.80550906  1  0.061451  0  0.103997  0.082228  0  0.991604  0
H  H125  1  0.90921801  0.51482239  0.69449066  1  0.061445  0  0.104004  0.082254  0  0.991593  0
H  H126  1  0.09078255  0.01482300  0.19449071  1  0.061436  0  0.104022  0.082273  0  0.991578  0
H  H127  1  0.09078444  0.48517986  0.30550959  1  0.061429  0  0.104022  0.082227  0  0.991583  0
H  H128  1  0.81366517  0.18431193  0.66731568  1  0.516877  0  0.315493  0.295699  0  0.953438  0
H  H129  1  0.81366454  0.31568852  0.83268394  1  0.516878  0  0.315502  0.295693  0  0.953412  0
H  H130  1  0.18633645  0.81568911  0.33268401  1  0.516892  0  0.315496  0.295707  0  0.953382  0
H  H131  1  0.18633544  0.68431192  0.16731644  1  0.516888  0  0.315494  0.295707  0  0.953419  0
H  H132  1  0.58427513  0.35952474  0.66690658  1  0.53837  0  0.308543  0.297662  0  0.994328  0
H  H133  1  0.58427521  0.14047500  0.83309363  1  0.538372  0  0.308495  0.297595  0  0.99434  0
H  H134  1  0.41572567  0.64047630  0.33309389  1  0.538413  0  0.308558  0.297696  0  0.994289  0
H  H135  1  0.41572559  0.85952544  0.16690753  1  0.538365  0  0.30854  0.297629  0  0.994382  0
H  H136  1  0.49280085  0.22275072  0.62612491  1  0.038722  0  0.105007  0.081794  0  0.972177  0
H  H137  1  0.49280109  0.27724839  0.87387517  1  0.038718  0  0.105009  0.081795  0  0.972174  0
H  H138  1  0.50719995  0.77725033  0.37387711  1  0.038668  0  0.105029  0.08183  0  0.972153  0
H  H139  1  0.50719971  0.72275205  0.12612560  1  0.03874  0  0.105018  0.081812  0  0.97214  0
H  H140  1  0.50121162  0.23027901  0.69645358  1  0.018839  0  0.091134  0.055011  0  1.001769  0
H  H141  1  0.50121173  0.26972069  0.80354620  1  0.018241  0  0.091139  0.055018  0  1.001766  0
H  H142  1  0.49879001  0.76972203  0.30354767  1  0.018659  0  0.091124  0.055019  0  1.001786  0
H  H143  1  0.49878907  0.73028035  0.19645504  1  0.018183  0  0.091128  0.054977  0  1.001772  0
H  H144  1  0.62004195  0.11359892  0.67128411  1  0.087753  0  0.102082  0.084185  0  1.005182  0
H  H145  1  0.62004218  0.38640084  0.82871651  1  0.087774  0  0.102081  0.084193  0  1.005175  0
H  H146  1  0.37995967  0.88640212  0.32871753  1  0.087662  0  0.102085  0.084206  0  1.005169  0
H  H147  1  0.37995862  0.61359960  0.17128504  1  0.087759  0  0.102099  0.084213  0  1.005176  0
H  H148  1  0.65327537  0.13772264  0.60914707  1  0.070375  0  0.094619  0.068017  0  1.030919  0
H  H149  1  0.65327652  0.36227654  0.89085348  1  0.070352  0  0.094614  0.068004  0  1.030894  0
H  H150  1  0.34672460  0.86227781  0.39085409  1  0.070345  0  0.094631  0.068055  0  1.030932  0
H  H151  1  0.34672510  0.63772330  0.10914799  1  0.070389  0  0.094606  0.067979  0  1.030978  0
H  H152  1  0.43551894  0.87950041  0.56220670  1  0.46434  0  0.307977  0.27118  0  0.964413  0
H  H153  1  0.43551838  0.62049980  0.93779348  1  0.464214  0  0.307998  0.271233  0  0.964301  0
H  H154  1  0.56448351  0.12049761  0.43779451  1  0.464319  0  0.308005  0.271241  0  0.964306  0
H  H155  1  0.56448407  0.37949882  0.06220431  1  0.464406  0  0.307973  0.27122  0  0.964318  0
H  H156  1  0.73338564  0.98757267  0.58142996  1  0.522319  0  0.315187  0.288281  0  0.984681  0
H  H157  1  0.73338415  0.51242466  0.91856995  1  0.522317  0  0.315202  0.288279  0  0.984727  0
H  H158  1  0.26661434  0.01242837  0.41856856  1  0.522335  0  0.315175  0.288266  0  0.984699  0
H  H159  1  0.26661665  0.48757155  0.08143024  1  0.522364  0  0.315212  0.288335  0  0.984638  0
H  H160  1  0.49695684  0.89237452  0.46525766  1  0.070828  0  0.100556  0.077437  0  0.996065  0
H  H161  1  0.49695636  0.60762242  0.03474117  1  0.070802  0  0.100583  0.077457  0  0.996167  0
H  H162  1  0.50304314  0.10761868  0.53474210  1  0.070714  0  0.100594  0.077455  0  0.996097  0
H  H163  1  0.50304444  0.39237922  0.96525743  1  0.070785  0  0.100543  0.077438  0  0.996042  0
H  H164  1  0.57366372  0.82001294  0.49218773  1  0.043766  0  0.091239  0.058845  0  1.013468  0
H  H165  1  0.57366324  0.67998525  0.00781326  1  0.043838  0  0.091259  0.058928  0  1.013502  0
H  H166  1  0.42634038  0.17998388  0.50781449  1  0.043881  0  0.09126  0.058879  0  1.013558  0
H  H167  1  0.42633839  0.32001338  0.99218453  1  0.043845  0  0.091272  0.058909  0  1.013466  0
H  H168  1  0.72367022  0.90958760  0.48181175  1  0.108095  0  0.108752  0.0937  0  1.007599  0
H  H169  1  0.72366971  0.59041005  0.01818883  1  0.108136  0  0.108743  0.093658  0  1.007558  0
H  H170  1  0.27632893  0.09041103  0.51818760  1  0.10815  0  0.108723  0.093623  0  1.007581  0
H  H171  1  0.27632862  0.40958797  0.98181121  1  0.108112  0  0.108726  0.09364  0  1.007537  0
H  H172  1  0.63512728  0.99448433  0.48972561  1  0.05035  0  0.095753  0.071054  0  1.006725  0
H  H173  1  0.63512588  0.50551327  0.01027298  1  0.050324  0  0.095779  0.071093  0  1.006686  0
H  H174  1  0.36486940  0.00551369  0.51027248  1  0.050416  0  0.095742  0.071012  0  1.00677  0
H  H175  1  0.36487245  0.49448596  0.98972684  1  0.05033  0  0.095756  0.071069  0  1.006672  0
C  C176  1  0.27119625  0.34023468  0.49915560  1  -0.24359  0  -0.025693  -0.136018  0  3.982822  0
C  C177  1  0.27119657  0.15976525  0.00084475  1  -0.243589  0  -0.025699  -0.136023  0  3.982842  0
C  C178  1  0.72880043  0.65976636  0.50084291  1  -0.2436  0  -0.025631  -0.136007  0  3.982642  0
C  C179  1  0.72880258  0.84023157  0.99915552  1  -0.243615  0  -0.025615  -0.135888  0  3.982734  0
C  C180  1  0.23698675  0.31962596  0.44637030  1  0.041979  0  -0.090983  -0.107518  0  3.977281  0
C  C181  1  0.23698553  0.18037395  0.05363004  1  0.042008  0  -0.090963  -0.107452  0  3.977293  0
C  C182  1  0.76301323  0.68037749  0.55362778  1  0.042023  0  -0.090905  -0.107308  0  3.977182  0
C  C183  1  0.76301363  0.81962166  0.94637084  1  0.04193  0  -0.090996  -0.107606  0  3.977507  0
C  C184  1  0.16942108  0.25031028  0.43667869  1  0.022864  0  -0.096291  -0.108119  0  3.9872  0
C  C185  1  0.16942074  0.24969021  0.06332208  1  0.022972  0  -0.096293  -0.108113  0  3.987231  0
C  C186  1  0.83057642  0.74969076  0.56331982  1  0.022891  0  -0.096366  -0.108328  0  3.987375  0
C  C187  1  0.83057841  0.75030903  0.93667852  1  0.022846  0  -0.096317  -0.108221  0  3.987405  0
C  C188  1  0.15124899  0.22044202  0.48223824  1  -0.239047  0  -0.017641  -0.117158  0  3.956388  0
C  C189  1  0.15125024  0.27955726  0.01776275  1  -0.239173  0  -0.017623  -0.117135  0  3.956385  0
C  C190  1  0.84875016  0.77955782  0.51776049  1  -0.239084  0  -0.01759  -0.117095  0  3.956371  0
C  C191  1  0.84874892  0.72043956  0.98223713  1  -0.239025  0  -0.017586  -0.116915  0  3.956309  0
C  C192  1  0.34722040  0.40399002  0.52491474  1  1.558039  0  0.199162  0.611028  0  4.263363  0
C  C193  1  0.34721990  0.09600963  0.97508614  1  1.557559  0  0.199187  0.61103  0  4.263397  0
C  C194  1  0.65277710  0.59601163  0.47508425  1  1.558003  0  0.199134  0.611049  0  4.263425  0
C  C195  1  0.65278255  0.90398780  0.02491538  1  1.558346  0  0.199112  0.611004  0  4.263581  0
C  C196  1  0.08942719  0.14737740  0.48766069  1  1.611429  0  0.223813  0.64234  0  4.226954  0
C  C197  1  0.08942765  0.35262245  0.01233919  1  1.611594  0  0.223789  0.642386  0  4.22696  0
C  C198  1  0.91057278  0.85262425  0.51233908  1  1.611457  0  0.223913  0.642428  0  4.226857  0
C  C199  1  0.91057315  0.64737437  0.98765913  1  1.611438  0  0.223827  0.642176  0  4.2269  0
C  C200  1  0.39391516  0.47529302  0.73278763  1  -0.219442  0  -0.014823  -0.105442  0  3.94327  0
C  C201  1  0.39391259  0.02470604  0.76721163  1  -0.21946  0  -0.014876  -0.105591  0  3.943419  0
C  C202  1  0.60608317  0.52470319  0.26721138  1  -0.219462  0  -0.014867  -0.1055  0  3.943289  0
C  C203  1  0.60608410  0.97529561  0.23278853  1  -0.219487  0  -0.014879  -0.105515  0  3.94327  0
C  C204  1  0.43999613  0.42610867  0.76375410  1  -0.00358  0  -0.08907  -0.107668  0  3.988054  0
C  C205  1  0.43999188  0.07389101  0.73624604  1  -0.003529  0  -0.089117  -0.107688  0  3.988079  0
C  C206  1  0.56000302  0.57389177  0.23624667  1  -0.00362  0  -0.089061  -0.107618  0  3.987962  0
C  C207  1  0.56000480  0.92610762  0.26375331  1  -0.003584  0  -0.089071  -0.107641  0  3.988002  0
C  C208  1  0.37500349  0.42221504  0.80856064  1  0.012357  0  -0.086821  -0.094576  0  3.997038  0
C  C209  1  0.37499669  0.07778461  0.69143869  1  0.012261  0  -0.08679  -0.094537  0  3.997329  0
C  C210  1  0.62499484  0.57778540  0.19144013  1  0.012357  0  -0.086757  -0.094515  0  3.997079  0
C  C211  1  0.62499752  0.92221341  0.30855980  1  0.012423  0  -0.08679  -0.09458  0  3.997081  0
C  C212  1  0.27973988  0.46777653  0.81099998  1  -0.210465  0  -0.022516  -0.124777  0  3.982005  0
C  C213  1  0.27973881  0.03221946  0.68899880  1  -0.211165  0  -0.022503  -0.124721  0  3.981988  0
C  C214  1  0.72025763  0.53222270  0.18900024  1  -0.211031  0  -0.022605  -0.124811  0  3.982048  0
C  C215  1  0.72026034  0.96777675  0.31099982  1  -0.210835  0  -0.022547  -0.124776  0  3.98189  0
C  C216  1  0.43860994  0.49456931  0.68356718  1  1.595488  0  0.191221  0.585077  0  4.275099  0
C  C217  1  0.43860745  0.00543158  0.81643352  1  1.595499  0  0.191238  0.585096  0  4.274987  0
C  C218  1  0.56139004  0.50542992  0.31643342  1  1.595519  0  0.191206  0.585098  0  4.275154  0
C  C219  1  0.56139253  0.99457007  0.18356703  1  1.595502  0  0.191206  0.585101  0  4.27511  0
C  C220  1  0.19095068  0.47278656  0.85045300  1  1.564249  0  0.188978  0.565113  0  4.304775  0
C  C221  1  0.19094872  0.02721120  0.64954638  1  1.564351  0  0.188924  0.565044  0  4.30479  0
C  C222  1  0.80904765  0.52721207  0.14954674  1  1.564274  0  0.188926  0.565016  0  4.304834  0
C  C223  1  0.80904879  0.97278683  0.35045367  1  1.564259  0  0.188948  0.565049  0  4.304883  0
C  C224  1  0.68683162  0.27937716  0.47296879  1  -0.20716  0  -0.022704  -0.133496  0  3.963663  0
C  C225  1  0.68683202  0.22062476  0.02703202  1  -0.207269  0  -0.022663  -0.133509  0  3.963682  0
C  C226  1  0.31317001  0.72062508  0.52703107  1  -0.207281  0  -0.022695  -0.133546  0  3.963764  0
C  C227  1  0.31316878  0.77937568  0.97296876  1  -0.207187  0  -0.022677  -0.13353  0  3.963675  0
C  C228  1  0.74154230  0.23887663  0.42767425  1  -0.018997  0  -0.100598  -0.126243  0  4.021367  0
C  C229  1  0.74154199  0.26112412  0.07232641  1  -0.019195  0  -0.100594  -0.126179  0  4.021346  0
C  C230  1  0.25845932  0.76112502  0.57232552  1  -0.019024  0  -0.1006  -0.126207  0  4.021385  0
C  C231  1  0.25845717  0.73887632  0.92767358  1  -0.018959  0  -0.100622  -0.126211  0  4.021364  0
C  C232  1  0.79758316  0.16937624  0.43572960  1  -0.027925  0  -0.091694  -0.108818  0  3.96817  0
C  C233  1  0.79758616  0.33062453  0.06427069  1  -0.027962  0  -0.091731  -0.108853  0  3.968179  0
C  C234  1  0.20241600  0.83062541  0.56427056  1  -0.028078  0  -0.091728  -0.108863  0  3.968305  0
C  C235  1  0.20241217  0.66937651  0.93572977  1  -0.027977  0  -0.091753  -0.108887  0  3.968143  0
C  C236  1  0.78516152  0.15837079  0.48751321  1  -0.221033  0  -0.018986  -0.127116  0  3.954329  0
C  C237  1  0.78516361  0.34162938  0.01248700  1  -0.221014  0  -0.019  -0.127207  0  3.954395  0
C  C238  1  0.21483599  0.84163086  0.51248695  1  -0.221022  0  -0.019003  -0.127194  0  3.954402  0
C  C239  1  0.21483472  0.65837106  0.98751260  1  -0.22101  0  -0.018974  -0.127143  0  3.954288  0
C  C240  1  0.62083087  0.35476986  0.48063727  1  1.628219  0  0.221788  0.641515  0  4.226263  0
C  C241  1  0.62083203  0.14523083  0.01936333  1  1.628012  0  0.221778  0.641549  0  4.22608  0
C  C242  1  0.37916911  0.64523239  0.51936297  1  1.628165  0  0.221761  0.641492  0  4.226171  0
C  C243  1  0.37917124  0.85476781  0.98063797  1  1.628216  0  0.221812  0.641616  0  4.226105  0
C  C244  1  0.83335092  0.09740191  0.51400432  1  1.549825  0  0.203256  0.608764  0  4.258442  0
C  C245  1  0.83335144  0.40259856  0.98599570  1  1.54982  0  0.203255  0.608796  0  4.258447  0
C  C246  1  0.16664823  0.90259974  0.48599584  1  1.549817  0  0.2033  0.60889  0  4.258446  0
C  C247  1  0.16664853  0.59740068  0.01400373  1  1.549807  0  0.203256  0.60881  0  4.258422  0
C  C248  1  0.92726557  0.39925777  0.51376595  1  0.249458  0  -0.057152  -0.014437  0  3.861408  0
C  C249  1  0.92726509  0.10074333  0.98623381  1  0.249548  0  -0.057123  -0.014349  0  3.861361  0
C  C250  1  0.07273523  0.60074447  0.48623391  1  0.249059  0  -0.057128  -0.014381  0  3.861358  0
C  C251  1  0.07273407  0.89925590  0.01376640  1  0.249107  0  -0.057138  -0.014371  0  3.86134  0
C  C252  1  0.95244088  0.37396909  0.56719252  1  0.298514  0  -0.056354  -0.022826  0  3.900748  0
C  C253  1  0.95244114  0.12603203  0.93280764  1  0.298559  0  -0.056324  -0.022785  0  3.900777  0
C  C254  1  0.04755992  0.62603316  0.43280733  1  0.298569  0  -0.056341  -0.022847  0  3.900816  0
C  C255  1  0.04755966  0.87396841  0.06719352  1  0.298555  0  -0.056387  -0.022858  0  3.900804  0
C  C256  1  0.80222606  0.46145978  0.57891031  1  1.833519  0  0.337014  0.65394  0  4.212212  0
C  C257  1  0.80222460  0.03854127  0.92108977  1  1.833516  0  0.337068  0.654003  0  4.212304  0
C  C258  1  0.19777639  0.53854368  0.42109010  1  1.833507  0  0.337145  0.654082  0  4.212191  0
C  C259  1  0.19777538  0.96145796  0.07891005  1  1.833511  0  0.337116  0.65402  0  4.212407  0
C  C260  1  0.40360993  0.79720022  0.69578703  1  0.28496  0  -0.059031  -0.025009  0  3.918333  0
C  C261  1  0.40360835  0.70280179  0.80421184  1  0.284983  0  -0.059033  -0.024979  0  3.918467  0
C  C262  1  0.59639087  0.20280203  0.30421283  1  0.284934  0  -0.059049  -0.024984  0  3.918417  0
C  C263  1  0.59638668  0.29719804  0.19578534  1  0.285043  0  -0.059079  -0.025054  0  3.918463  0
C  C264  1  0.51604090  0.83968483  0.70512993  1  0.321283  0  -0.064286  -0.037722  0  3.883776  0
C  C265  1  0.51603681  0.66031421  0.79486974  1  0.321318  0  -0.064317  -0.037761  0  3.883678  0
C  C266  1  0.48396073  0.16031440  0.29487067  1  0.321386  0  -0.064293  -0.037723  0  3.883679  0
C  C267  1  0.48395823  0.33968321  0.20513061  1  0.321302  0  -0.064357  -0.037845  0  3.883773  0
C  C268  1  0.54100030  0.70654254  0.65967221  1  1.861109  0  0.336912  0.646848  0  4.217866  0
C  C269  1  0.54100214  0.79345772  0.84032724  1  1.860993  0  0.336853  0.646825  0  4.217986  0
C  C270  1  0.45899967  0.29345790  0.34032778  1  1.860985  0  0.336914  0.646837  0  4.217882  0
C  C271  1  0.45899866  0.20653789  0.15967169  1  1.861199  0  0.336896  0.64689  0  4.217895  0
C  C272  1  0.20668060  0.30709203  0.68756346  1  0.293318  0  -0.060001  -0.023593  0  3.886467  0
C  C273  1  0.20667986  0.19290815  0.81243626  1  0.293328  0  -0.059995  -0.023575  0  3.886334  0
C  C274  1  0.79332102  0.69290780  0.31243644  1  0.293395  0  -0.060028  -0.023666  0  3.886267  0
C  C275  1  0.79331929  0.80709229  0.18756451  1  0.292983  0  -0.059951  -0.023505  0  3.886328  0
C  C276  1  0.10236307  0.35643365  0.70846815  1  0.295452  0  -0.057289  -0.020582  0  3.903247  0
C  C277  1  0.10236308  0.14356648  0.79153191  1  0.295511  0  -0.05731  -0.020615  0  3.903233  0
C  C278  1  0.89763855  0.64356618  0.29153136  1  0.295516  0  -0.05729  -0.0206  0  3.90315  0
C  C279  1  0.89763607  0.85643396  0.20846886  1  0.295489  0  -0.05735  -0.020682  0  3.903251  0
C  C280  1  0.05104965  0.22551556  0.66959446  1  1.871843  0  0.337902  0.653853  0  4.196141  0
C  C281  1  0.05104898  0.27448455  0.83040558  1  1.871846  0  0.337944  0.653899  0  4.196117  0
C  C282  1  0.94895198  0.77448428  0.33040545  1  1.87185  0  0.337916  0.653893  0  4.196136  0
C  C283  1  0.94895099  0.72551468  0.16959463  1  1.87186  0  0.337968  0.653956  0  4.196077  0
C  C284  1  0.75745578  0.95510148  0.75867877  1  0.273396  0  -0.054221  -0.019023  0  3.865218  0
C  C285  1  0.75745729  0.54489646  0.74132084  1  0.273636  0  -0.054174  -0.018859  0  3.865122  0
C  C286  1  0.24254338  0.04489775  0.24132105  1  0.273362  0  -0.054114  -0.018822  0  3.865041  0
C  C287  1  0.24254434  0.45510639  0.25867948  1  0.273362  0  -0.054106  -0.018725  0  3.865212  0
C  C288  1  0.88382385  0.95369358  0.76543919  1  0.311175  0  -0.050912  -0.005541  0  3.887685  0
C  C289  1  0.88382535  0.54630563  0.73456143  1  0.311188  0  -0.05095  -0.005659  0  3.887784  0
C  C290  1  0.11617448  0.04630686  0.23456041  1  0.31117  0  -0.050956  -0.005665  0  3.887728  0
C  C291  1  0.11617628  0.45369662  0.26543920  1  0.311201  0  -0.051021  -0.005669  0  3.887767  0
C  C292  1  0.84114434  0.99339310  0.68678995  1  1.851997  0  0.34121  0.658636  0  4.175733  0
C  C293  1  0.84114514  0.50659945  0.81321050  1  1.852022  0  0.341179  0.658607  0  4.175949  0
C  C294  1  0.15885399  0.00660552  0.31320900  1  1.851955  0  0.341191  0.65859  0  4.175952  0
C  C295  1  0.15885566  0.49340039  0.18678941  1  1.852054  0  0.341214  0.658647  0  4.17584  0
C  C296  1  0.54998080  0.22970787  0.65999637  1  0.337979  0  -0.052607  -0.013516  0  3.911215  0
C  C297  1  0.54998098  0.27029186  0.84000382  1  0.337973  0  -0.052621  -0.013546  0  3.911263  0
C  C298  1  0.45002082  0.77029257  0.34000518  1  0.338188  0  -0.052645  -0.013609  0  3.911311  0
C  C299  1  0.45001982  0.72970858  0.15999734  1  0.337984  0  -0.052599  -0.013494  0  3.911158  0
C  C300  1  0.63954749  0.16341303  0.65175636  1  0.262545  0  -0.059535  -0.027676  0  3.877205  0
C  C301  1  0.63954690  0.33658613  0.84824379  1  0.262965  0  -0.059502  -0.027661  0  3.877127  0
C  C302  1  0.36045413  0.83658801  0.34824528  1  0.263015  0  -0.059536  -0.02772  0  3.877121  0
C  C303  1  0.36045308  0.66341431  0.15175698  1  0.262981  0  -0.059535  -0.027685  0  3.87728  0
C  C304  1  0.72225855  0.28898286  0.67637527  1  1.873422  0  0.327676  0.614969  0  4.236174  0
C  C305  1  0.72225948  0.21101755  0.82362431  1  1.873321  0  0.327692  0.615023  0  4.236164  0
C  C306  1  0.27774225  0.71101878  0.32362489  1  1.873443  0  0.327609  0.614774  0  4.236367  0
C  C307  1  0.27774296  0.78898289  0.17637530  1  1.873441  0  0.327655  0.614866  0  4.236317  0
C  C308  1  0.55014640  0.88420644  0.49830474  1  0.279836  0  -0.060823  -0.032485  0  3.924302  0
C  C309  1  0.55014422  0.61579174  0.00169663  1  0.279679  0  -0.060864  -0.032616  0  3.924383  0
C  C310  1  0.44985276  0.11579038  0.50169631  1  0.279987  0  -0.060823  -0.032508  0  3.92451  0
C  C311  1  0.44985329  0.38420749  0.99830358  1  0.279776  0  -0.06082  -0.03257  0  3.924209  0
C  C312  1  0.65258451  0.93887506  0.50402227  1  0.312287  0  -0.056096  -0.013532  0  3.857449  0
C  C313  1  0.65258402  0.56112404  0.99597668  1  0.312319  0  -0.056076  -0.013484  0  3.857423  0
C  C314  1  0.34741382  0.06112357  0.49597630  1  0.312167  0  -0.056082  -0.013436  0  3.857551  0
C  C315  1  0.34741678  0.43887519  0.00402314  1  0.31235  0  -0.056054  -0.013432  0  3.857312  0
C  C316  1  0.57494373  0.94547967  0.58768518  1  1.809332  0  0.321962  0.617904  0  4.223805  0
C  C317  1  0.57494721  0.55452362  0.91231706  1  1.809866  0  0.322037  0.618113  0  4.223499  0
C  C318  1  0.42505707  0.05452076  0.41231443  1  1.809334  0  0.321987  0.617958  0  4.223858  0
C  C319  1  0.42505359  0.44547380  0.08768251  1  1.810088  0  0.322069  0.618125  0  4.223497  0
S  S320  1  0.21757928  0.27648498  0.53676875  1  0.273125  0  0.120993  0.176736  0  2.953061  0
S  S321  1  0.21757801  0.22351460  0.96323129  1  0.273146  0  0.120972  0.176694  0  2.95305  0
S  S322  1  0.78241822  0.72351847  0.46323088  1  0.273036  0  0.120972  0.176714  0  2.953092  0
S  S323  1  0.78242032  0.77648101  0.03676803  1  0.273111  0  0.120935  0.176628  0  2.953007  0
S  S324  1  0.27109277  0.51656976  0.75873847  1  0.25016  0  0.117787  0.175491  0  2.889737  0
S  S325  1  0.27109124  0.98342736  0.74126044  1  0.250726  0  0.117835  0.175548  0  2.889683  0
S  S326  1  0.72890556  0.48342826  0.24126080  1  0.250781  0  0.117801  0.175473  0  2.889808  0
S  S327  1  0.72890791  0.01657127  0.25873969  1  0.25046  0  0.117818  0.175513  0  2.889788  0
S  S328  1  0.70729011  0.23392188  0.52600493  1  0.292461  0  0.132229  0.207412  0  2.941746  0
S  S329  1  0.70728971  0.26607853  0.97399542  1  0.292502  0  0.132209  0.207428  0  2.941714  0
S  S330  1  0.29270986  0.76607976  0.47399484  1  0.292485  0  0.132205  0.207401  0  2.941751  0
S  S331  1  0.29271027  0.73392010  0.02600393  1  0.292535  0  0.132207  0.207427  0  2.941729  0
N  N332  1  0.86150537  0.40981769  0.60114859  1  -1.248692  0  -0.42869  -0.41749  0  3.498508  0
N  N333  1  0.86150554  0.09018339  0.89885191  1  -1.248695  0  -0.428701  -0.417497  0  3.49862  0
N  N334  1  0.13849708  0.59018576  0.39885182  1  -1.248723  0  -0.428696  -0.417414  0  3.498526  0
N  N335  1  0.13849526  0.90981645  0.10114877  1  -1.248722  0  -0.428694  -0.417454  0  3.498615  0
N  N336  1  0.84824273  0.46539521  0.53040501  1  -1.198693  0  -0.437181  -0.431818  0  3.413507  0
N  N337  1  0.84824383  0.03460586  0.96959510  1  -1.198867  0  -0.437191  -0.431844  0  3.413554  0
N  N338  1  0.15175889  0.53460704  0.46959484  1  -1.198762  0  -0.437182  -0.431851  0  3.413451  0
N  N339  1  0.15175780  0.96539398  0.03040520  1  -1.198841  0  -0.437176  -0.431847  0  3.413493  0
N  N340  1  0.43597363  0.71299459  0.67849486  1  -1.234022  0  -0.434421  -0.423009  0  3.496089  0
N  N341  1  0.43597543  0.78700622  0.82150463  1  -1.233751  0  -0.434414  -0.423091  0  3.496014  0
N  N342  1  0.56402553  0.28700645  0.32150483  1  -1.23397  0  -0.434414  -0.423078  0  3.496026  0
N  N343  1  0.56402537  0.21299361  0.17849489  1  -1.23405  0  -0.434398  -0.422968  0  3.49616  0
N  N344  1  0.58686139  0.78164083  0.67006855  1  -1.206841  0  -0.431636  -0.405864  0  3.45748  0
N  N345  1  0.58685987  0.71835885  0.82993163  1  -1.206927  0  -0.431613  -0.405823  0  3.457471  0
N  N346  1  0.41313941  0.21836082  0.32993239  1  -1.20684  0  -0.431633  -0.40576  0  3.457503  0
N  N347  1  0.41313764  0.28163918  0.17006881  1  -1.206881  0  -0.43168  -0.405912  0  3.457399  0
N  N348  1  0.01359439  0.30116963  0.68751857  1  -1.265719  0  -0.428958  -0.394982  0  3.455562  0
N  N349  1  0.01359447  0.19883046  0.81248145  1  -1.265619  0  -0.428974  -0.395003  0  3.455575  0
N  N350  1  0.98640641  0.69883020  0.31248094  1  -1.265651  0  -0.428962  -0.394936  0  3.455547  0
N  N351  1  0.98640468  0.80116998  0.18751932  1  -1.265689  0  -0.428991  -0.395001  0  3.455508  0
N  N352  1  0.16349130  0.22485970  0.67315442  1  -1.240208  0  -0.439105  -0.43154  0  3.456142  0
N  N353  1  0.16349228  0.27514046  0.82684607  1  -1.240029  0  -0.439153  -0.43161  0  3.456115  0
N  N354  1  0.83650950  0.77514014  0.32684588  1  -1.240027  0  -0.43914  -0.43154  0  3.456126  0
N  N355  1  0.83650770  0.72486058  0.17315440  1  -1.240208  0  -0.439142  -0.431534  0  3.456181  0
N  N356  1  0.74730062  0.96211307  0.70293309  1  -1.233805  0  -0.436589  -0.427194  0  3.448577  0
N  N357  1  0.74730058  0.53788185  0.79706571  1  -1.233656  0  -0.436602  -0.427201  0  3.448449  0
N  N358  1  0.25269771  0.03788435  0.29706570  1  -1.23372  0  -0.436622  -0.427286  0  3.448744  0
N  N359  1  0.25270022  0.46212040  0.20293453  1  -1.233645  0  -0.436648  -0.427251  0  3.448678  0
N  N360  1  0.92143231  0.99546408  0.72435774  1  -1.212896  0  -0.434665  -0.422553  0  3.433417  0
N  N361  1  0.92143386  0.50453213  0.77564131  1  -1.212967  0  -0.43468  -0.422585  0  3.433387  0
N  N362  1  0.07856520  0.00453515  0.27564130  1  -1.212946  0  -0.434646  -0.422451  0  3.433481  0
N  N363  1  0.07856777  0.49546891  0.22435877  1  -1.213026  0  -0.434674  -0.42264  0  3.433473  0
N  N364  1  0.73671781  0.20854318  0.67498777  1  -1.220573  0  -0.434071  -0.409841  0  3.421959  0
N  N365  1  0.73671797  0.29145663  0.82501212  1  -1.22085  0  -0.434053  -0.409772  0  3.421878  0
N  N366  1  0.26328381  0.79145786  0.32501270  1  -1.220827  0  -0.434014  -0.409723  0  3.421893  0
N  N367  1  0.26328200  0.70854441  0.17498834  1  -1.221081  0  -0.434053  -0.409794  0  3.42198  0
N  N368  1  0.61548003  0.30267860  0.66545829  1  -1.273718  0  -0.434256  -0.424233  0  3.503153  0
N  N369  1  0.61548098  0.19732177  0.83454163  1  -1.273697  0  -0.434236  -0.424218  0  3.503202  0
N  N370  1  0.38451995  0.69732245  0.33454257  1  -1.273737  0  -0.434259  -0.424231  0  3.503304  0
N  N371  1  0.38451983  0.80267927  0.16545883  1  -1.273739  0  -0.434279  -0.424217  0  3.503296  0
N  N372  1  0.49662006  0.91233869  0.55009485  1  -1.193433  0  -0.44322  -0.429509  0  3.449056  0
N  N373  1  0.49662198  0.58765973  0.94990239  1  -1.193791  0  -0.443208  -0.429546  0  3.448945  0
N  N374  1  0.50338156  0.08765873  0.44990550  1  -1.193519  0  -0.443299  -0.429598  0  3.448939  0
N  N375  1  0.50337882  0.41233768  0.05009602  1  -1.194107  0  -0.44321  -0.429568  0  3.448876  0
N  N376  1  0.66934914  0.95558252  0.56158490  1  -1.276095  0  -0.43267  -0.411922  0  3.490597  0
N  N377  1  0.66934854  0.54441719  0.93841375  1  -1.276203  0  -0.432634  -0.411908  0  3.490715  0
N  N378  1  0.33065084  0.04441792  0.43841392  1  -1.276135  0  -0.432664  -0.411939  0  3.490673  0
N  N379  1  0.33065227  0.45558023  0.06158621  1  -1.276471  0  -0.432701  -0.412011  0  3.49066  0
O  O380  1  0.38988831  0.45159758  0.49725537  1  -1.21884  0  -0.427542  -0.748987  0  2.405068  0
O  O381  1  0.38988692  0.04840180  0.00274574  1  -1.218446  0  -0.427601  -0.749042  0  2.405048  0
O  O382  1  0.61011002  0.54840407  0.50274362  1  -1.218769  0  -0.427521  -0.748975  0  2.405131  0
O  O383  1  0.61011388  0.95159562  0.99725695  1  -1.219048  0  -0.427484  -0.748948  0  2.405303  0
O  O384  1  0.36966875  0.41083259  0.57390660  1  -1.174906  0  -0.368442  -0.606414  0  2.195556  0
O  O385  1  0.36966815  0.08916706  0.92609429  1  -1.174849  0  -0.368403  -0.606364  0  2.195593  0
O  O386  1  0.63032628  0.58916966  0.42609326  1  -1.174952  0  -0.368487  -0.606486  0  2.1956  0
O  O387  1  0.63033512  0.91083097  0.07390731  1  -1.174923  0  -0.368484  -0.606486  0  2.195588  0
O  O388  1  0.06611497  0.14091325  0.53508379  1  -1.193717  0  -0.396935  -0.67095  0  2.288112  0
O  O389  1  0.06611460  0.35908687  0.96491625  1  -1.193701  0  -0.396929  -0.670962  0  2.288132  0
O  O390  1  0.93388501  0.85908659  0.46491572  1  -1.193755  0  -0.396952  -0.670968  0  2.288074  0
O  O391  1  0.93388703  0.64091115  0.03508223  1  -1.193634  0  -0.396974  -0.670934  0  2.288103  0
O  O392  1  0.06741288  0.09716445  0.44474870  1  -1.191331  0  -0.391648  -0.65275  0  2.283564  0
O  O393  1  0.06741509  0.40283660  0.05525134  1  -1.191482  0  -0.391628  -0.652825  0  2.28362  0
O  O394  1  0.93258875  0.90283539  0.55525121  1  -1.19134  0  -0.391735  -0.652789  0  2.283578  0
O  O395  1  0.93258819  0.59716263  0.94474654  1  -1.191491  0  -0.391605  -0.652644  0  2.283554  0
O  O396  1  0.38926749  0.54572337  0.66196217  1  -1.18305  0  -0.362478  -0.629034  0  2.213079  0
O  O397  1  0.38926777  0.95427501  0.83803774  1  -1.183113  0  -0.362467  -0.629054  0  2.213069  0
O  O398  1  0.61073414  0.45427525  0.33803718  1  -1.183112  0  -0.362474  -0.629061  0  2.213106  0
O  O399  1  0.61073550  0.04572483  0.16196294  1  -1.183063  0  -0.362484  -0.629063  0  2.213122  0
O  O400  1  0.52677814  0.45834947  0.66384927  1  -1.185895  0  -0.370308  -0.619406  0  2.228705  0
O  O401  1  0.52677488  0.04165206  0.83615155  1  -1.185851  0  -0.370306  -0.619367  0  2.228596  0
O  O402  1  0.47322348  0.54165036  0.33615141  1  -1.185884  0  -0.370297  -0.619408  0  2.228741  0
O  O403  1  0.47322427  0.95835079  0.16384878  1  -1.185844  0  -0.37028  -0.619386  0  2.228703  0
O  O404  1  0.20015783  0.43264572  0.88703040  1  -1.181997  0  -0.356609  -0.601  0  2.228305  0
O  O405  1  0.20015830  0.06735445  0.61296972  1  -1.181946  0  -0.35657  -0.600926  0  2.228243  0
O  O406  1  0.79984132  0.56735412  0.11297107  1  -1.182048  0  -0.356552  -0.600905  0  2.228352  0
O  O407  1  0.79984332  0.93264417  0.38703041  1  -1.182018  0  -0.356584  -0.600923  0  2.228426  0
O  O408  1  0.10475912  0.51532393  0.84646516  1  -1.207832  0  -0.373488  -0.649501  0  2.233902  0
O  O409  1  0.10475497  0.98467492  0.65353314  1  -1.207954  0  -0.37347  -0.649495  0  2.233922  0
O  O410  1  0.89523756  0.48467409  0.15353410  1  -1.207821  0  -0.37345  -0.649449  0  2.233904  0
O  O411  1  0.89524089  0.01532310  0.34646612  1  -1.207785  0  -0.373444  -0.649447  0  2.233921  0
O  O412  1  0.59136711  0.38446571  0.52833740  1  -1.195511  0  -0.388774  -0.657505  0  2.298086  0
O  O413  1  0.59136908  0.11553586  0.97166424  1  -1.195444  0  -0.388758  -0.657497  0  2.298127  0
O  O414  1  0.40863040  0.61553654  0.47166285  1  -1.195459  0  -0.38879  -0.657487  0  2.298013  0
O  O415  1  0.40863666  0.88445976  0.02833742  1  -1.195571  0  -0.388799  -0.657567  0  2.298026  0
O  O416  1  0.60014588  0.38299140  0.43950184  1  -1.197038  0  -0.389402  -0.655732  0  2.251442  0
O  O417  1  0.60014711  0.11700808  0.06049936  1  -1.196859  0  -0.389426  -0.655786  0  2.251292  0
O  O418  1  0.39985574  0.61701085  0.56049840  1  -1.197023  0  -0.389375  -0.655715  0  2.251439  0
O  O419  1  0.39985781  0.88299056  0.93950310  1  -1.196984  0  -0.389393  -0.655718  0  2.251302  0
O  O420  1  0.82515935  0.10971586  0.56459106  1  -1.152657  0  -0.370768  -0.618588  0  2.250925  0
O  O421  1  0.82516060  0.39028339  0.93540917  1  -1.152647  0  -0.370776  -0.618582  0  2.250894  0
O  O422  1  0.17483898  0.89028458  0.43540893  1  -1.152645  0  -0.370776  -0.618608  0  2.250854  0
O  O423  1  0.17484020  0.60971584  0.06459065  1  -1.152639  0  -0.370754  -0.618575  0  2.250918  0
O  O424  1  0.88443444  0.03571215  0.48758549  1  -1.215707  0  -0.411904  -0.717177  0  2.406122  0
O  O425  1  0.88443496  0.46428806  0.01241437  1  -1.215712  0  -0.411859  -0.717149  0  2.406118  0
O  O426  1  0.11556471  0.96428829  0.51241450  1  -1.215758  0  -0.411886  -0.717208  0  2.40619  0
O  O427  1  0.11556501  0.53571117  0.98758506  1  -1.215767  0  -0.411891  -0.717187  0  2.406105  0
O  O428  1  0.72066568  0.50174564  0.59978088  1  -1.21793  0  -0.389574  -0.654558  0  2.274163  0
O  O429  1  0.72066610  0.99825591  0.90021961  1  -1.217918  0  -0.389625  -0.654658  0  2.274275  0
O  O430  1  0.27933594  0.49825781  0.40021953  1  -1.217909  0  -0.389732  -0.654742  0  2.274231  0
O  O431  1  0.27933552  0.00174332  0.09978021  1  -1.217907  0  -0.389712  -0.654713  0  2.274338  0
O  O432  1  0.58855795  0.64235643  0.63719022  1  -1.215718  0  -0.37949  -0.657902  0  2.277829  0
O  O433  1  0.58855822  0.85764265  0.86280909  1  -1.215719  0  -0.379424  -0.657867  0  2.277921  0
O  O434  1  0.41144202  0.35764461  0.36280947  1  -1.215719  0  -0.379488  -0.657903  0  2.27781  0
O  O435  1  0.41144340  0.14235477  0.13719048  1  -1.215835  0  -0.37944  -0.657856  0  2.277974  0
O  O436  1  0.99127080  0.16402336  0.65314545  1  -1.223866  0  -0.391974  -0.675399  0  2.259466  0
O  O437  1  0.99127020  0.33597597  0.84685409  1  -1.223876  0  -0.391964  -0.675418  0  2.259551  0
O  O438  1  0.00873000  0.83597587  0.34685398  1  -1.223889  0  -0.391972  -0.675439  0  2.259573  0
O  O439  1  0.00872977  0.66402447  0.15314551  1  -1.223883  0  -0.391962  -0.675428  0  2.259574  0
O  O440  1  0.85166974  0.01734547  0.64376507  1  -1.215639  0  -0.382149  -0.645966  0  2.2872  0
O  O441  1  0.85167172  0.48265017  0.85623390  1  -1.215739  0  -0.382103  -0.6459  0  2.287512  0
O  O442  1  0.14832776  0.98265376  0.35623358  1  -1.215596  0  -0.382129  -0.645928  0  2.287203  0
O  O443  1  0.14832990  0.51734906  0.14376593  1  -1.215762  0  -0.382082  -0.645853  0  2.287489  0
O  O444  1  0.79562736  0.34272508  0.68666781  1  -1.220306  0  -0.31476  -0.559701  0  2.210805  0
O  O445  1  0.79562825  0.15727476  0.81333172  1  -1.220226  0  -0.3148  -0.559771  0  2.210765  0
O  O446  1  0.20437344  0.65727596  0.31333187  1  -1.220287  0  -0.314763  -0.559619  0  2.210751  0
O  O447  1  0.20437173  0.84272568  0.18666788  1  -1.220232  0  -0.314745  -0.559644  0  2.210737  0
O  O448  1  0.55913048  0.96400795  0.63691180  1  -1.184557  0  -0.319248  -0.565452  0  2.216937  0
O  O449  1  0.55912973  0.53599050  0.86308351  1  -1.184391  0  -0.319371  -0.565684  0  2.216512  0
O  O450  1  0.44087115  0.03599249  0.36308819  1  -1.184584  0  -0.319233  -0.565453  0  2.216991  0
O  O451  1  0.44087271  0.46400752  0.13691575  1  -1.184363  0  -0.319333  -0.565622  0  2.216503  0
