# generated using pymatgen
data_Mn7H116C166S20(NO8)6
_symmetry_space_group_name_H-M   'P 1'
_cell_length_a   14.16356332
_cell_length_b   15.08851632
_cell_length_c   21.82543845
_cell_angle_alpha   73.91211266
_cell_angle_beta   71.16370030
_cell_angle_gamma   82.09874523
_symmetry_Int_Tables_number   1
_chemical_formula_structural   Mn7H116C166S20(NO8)6
_chemical_formula_sum   'Mn7 H116 C166 S20 N6 O48'
_cell_volume   4235.66588801
_cell_formula_units_Z   1
loop_
 _symmetry_equiv_pos_site_id
 _symmetry_equiv_pos_as_xyz
  1  'x, y, z'
loop_
 _atom_site_type_symbol
 _atom_site_label
 _atom_site_symmetry_multiplicity
 _atom_site_fract_x
 _atom_site_fract_y
 _atom_site_fract_z
 _atom_site_occupancy
 _atom_site_pbe_bader_charge
 _atom_site_pbe_bader_spin_density
 _atom_site_pbe_cm5_charge
 _atom_site_pbe_ddec_charge
 _atom_site_pbe_ddec_spin_density
 _atom_site_pbe_ddec_sum_bond_order
 _atom_site_pbe_magmom
Mn  Mn0  1  0.49999702  0.00001780  0.49997892  1  1.646789  4.290159  0.695321  1.155666  4.44569  2.425759  4.242
Mn  Mn1  1  0.67591341  0.19403171  0.27077242  1  1.593116  4.42547  0.652234  1.108044  4.568981  2.398638  4.373
Mn  Mn2  1  0.32408398  0.80597203  0.72921505  1  1.592873  4.425406  0.652205  1.108073  4.568829  2.398882  4.373
Mn  Mn3  1  0.50204395  0.04296301  0.32426870  1  1.56009  4.432827  0.637163  1.049528  4.575908  2.364488  4.368
Mn  Mn4  1  0.49800129  0.95702622  0.67570701  1  1.560409  4.432893  0.637135  1.049702  4.57609  2.36406  4.368
Mn  Mn5  1  0.85583236  0.36624156  0.20692580  1  1.545848  4.498585  0.61575  1.036048  4.64485  2.347066  4.434
Mn  Mn6  1  0.14416726  0.63375944  0.79310801  1  1.54563  4.498673  0.615743  1.035807  4.644933  2.347186  4.434
H  H7  1  0.40784462  0.74529049  0.42043113  1  0.107411  8.8e-05  0.106442  0.114925  -6e-05  0.998044  0.0
H  H8  1  0.59223953  0.25469393  0.57957910  1  0.107731  8.8e-05  0.106406  0.114913  -6e-05  0.997895  0.0
H  H9  1  0.36132517  0.78708461  0.53013986  1  0.136627  0.00041  0.107348  0.110744  -0.000416  1.041592  0.0
H  H10  1  0.63875864  0.21290534  0.46987717  1  0.136426  0.00041  0.107324  0.110622  -0.000415  1.042076  0.0
H  H11  1  0.30697162  0.50287308  0.63343521  1  0.129844  0.000256  0.110583  0.120613  -0.000159  0.997931  0.0
H  H12  1  0.69298247  0.49711891  0.36655161  1  0.130402  0.000256  0.110519  0.120607  -0.000159  0.997659  0.0
H  H13  1  0.46950160  0.50729107  0.29319960  1  0.1075  5.7e-05  0.100938  0.102341  -1.1e-05  1.021268  0.0
H  H14  1  0.53051659  0.49272581  0.70680393  1  0.107582  5.7e-05  0.100924  0.102316  -1.1e-05  1.021113  0.0
H  H15  1  0.49893716  0.33956171  0.29257994  1  0.132629  0.000348  0.1059  0.105927  -0.000452  1.072828  0.0
H  H16  1  0.50105850  0.66045930  0.70740550  1  0.132141  0.000348  0.105893  0.105924  -0.000452  1.072874  0.0
H  H17  1  0.41562805  0.26582008  0.50720196  1  0.116676  0.000181  0.112459  0.115508  -0.000135  1.020183  0.0
H  H18  1  0.58438418  0.73417192  0.49278697  1  0.116724  0.000181  0.11245  0.11547  -0.000135  1.020112  0.0
H  H19  1  0.20541616  0.01568534  0.37575654  1  0.116238  0.000116  0.114526  0.125747  -0.000375  0.996745  0.0
H  H20  1  0.79458495  0.98430528  0.62423772  1  0.116321  0.000115  0.114551  0.125763  -0.000376  0.996779  0.0
H  H21  1  0.23136444  0.86466709  0.56914117  1  0.135229  0.000302  0.111668  0.117798  -0.000476  1.019869  0.0
H  H22  1  0.76874373  0.13520193  0.43081013  1  0.1357  0.000301  0.111591  0.117819  -0.000476  1.019656  0.0
H  H23  1  0.07013180  0.79266768  0.59477334  1  0.12573  0.000148  0.1109  0.12257  -8.7e-05  0.988744  0.0
H  H24  1  0.92996583  0.20718961  0.40518515  1  0.12641  0.000148  0.110843  0.122737  -8.8e-05  0.98883  0.0
H  H25  1  0.59675028  0.75475962  0.86889932  1  0.131197  0.000399  0.10673  0.109377  0.00015  1.019359  0.0
H  H26  1  0.40325561  0.24523860  0.13109248  1  0.131355  0.000399  0.10675  0.109404  0.00015  1.019436  0.0
H  H27  1  0.23831371  0.72680387  0.00140427  1  0.126848  6.3e-05  0.098763  0.094911  -4.6e-05  1.053186  0.0
H  H28  1  0.76168372  0.27318674  0.99857563  1  0.127055  6.3e-05  0.09872  0.094836  -4.6e-05  1.05332  0.0
H  H29  1  0.28682531  0.82957062  0.88520617  1  0.102055  0.000692  0.103114  0.104813  0.00022  1.03057  0.0
H  H30  1  0.71318021  0.17042207  0.11477119  1  0.102132  0.000692  0.103146  0.10487  0.00022  1.030554  0.0
H  H31  1  0.46085559  0.36506952  0.21099993  1  0.09916  0.000382  0.110134  0.11326  -0.000114  1.012863  0.0
H  H32  1  0.53912848  0.63495771  0.78900002  1  0.099079  0.000382  0.110124  0.113116  -0.000114  1.012871  0.0
H  H33  1  0.33029265  0.47064261  0.16905363  1  0.08138  0.000155  0.101255  0.098477  2.2e-05  1.032961  0.0
H  H34  1  0.66969347  0.52941295  0.83095696  1  0.082036  0.000155  0.10123  0.09854  2.2e-05  1.032997  0.0
H  H35  1  0.69014495  0.53035603  0.05812118  1  0.115261  0.000164  0.107157  0.106819  -0.000128  1.033545  0.0
H  H36  1  0.30985630  0.46963251  0.94186703  1  0.115072  0.000164  0.107161  0.106813  -0.000128  1.033655  0.0
H  H37  1  0.91566693  0.61531515  0.01662565  1  0.067777  0.001243  0.10331  0.161532  0.000671  0.992359  0.001
H  H38  1  0.08428909  0.38468031  0.98339356  1  0.067604  0.001242  0.103336  0.161555  0.000671  0.9922  0.001
H  H39  1  0.89947302  0.67638425  0.07842373  1  0.114543  0.001003  0.100731  0.159688  0.000592  1.029824  0.001
H  H40  1  0.10050646  0.32360500  0.92159636  1  0.11435  0.001004  0.100732  0.159646  0.000592  1.029722  0.001
H  H41  1  0.81766435  0.58684731  0.09436220  1  0.055127  8.1e-05  0.104731  0.166147  -0.000321  0.991641  0.0
H  H42  1  0.18232083  0.41313297  0.90566576  1  0.05521  8.1e-05  0.104769  0.166157  -0.000322  0.991398  0.0
H  H43  1  0.47524488  0.81631544  0.15949427  1  0.065087  0.000633  0.093726  0.100354  0.000366  1.027438  0.0
H  H44  1  0.52472088  0.18364065  0.84051901  1  0.064832  0.000634  0.093776  0.100339  0.000366  1.027243  0.0
H  H45  1  0.41552129  0.73863739  0.23773899  1  0.109123  0.000665  0.100988  0.124464  0.000379  1.020501  0.0
H  H46  1  0.58442786  0.26134771  0.76228135  1  0.10982  0.000665  0.101024  0.124439  0.000379  1.020183  0.0
H  H47  1  0.53849696  0.71169865  0.19052184  1  0.064833  0.000147  0.111757  0.129783  6.8e-05  0.978206  0.0
H  H48  1  0.46143797  0.28824846  0.80950370  1  0.065343  0.000147  0.111703  0.129664  6.8e-05  0.978143  0.0
H  H49  1  0.09636128  0.66180281  0.01275459  1  0.058127  0.001054  0.10208  0.116504  0.00055  1.00167  0.001
H  H50  1  0.90364171  0.33818022  0.98725310  1  0.057967  0.001054  0.102017  0.116396  0.00055  1.001628  0.001
H  H51  1  0.07312523  0.58874573  0.96847942  1  0.07904  0.00098  0.105682  0.124909  0.000361  1.024411  0.001
H  H52  1  0.92683008  0.41126285  0.03152413  1  0.079504  0.00098  0.105752  0.124871  0.000361  1.024391  0.001
H  H53  1  0.18447971  0.57091780  0.99189391  1  0.066354  0.000186  0.110265  0.129841  -4.2e-05  1.003823  0.0
H  H54  1  0.81550108  0.42906383  0.00808981  1  0.065882  0.000186  0.110293  0.129795  -4.2e-05  1.003755  0.0
H  H55  1  0.08126687  0.39259880  0.12681268  1  0.087381  0.000537  0.109092  0.122283  0.000211  1.033321  0.0
H  H56  1  0.91873397  0.60739597  0.87318817  1  0.087502  0.000537  0.10914  0.122392  0.000211  1.033159  0.0
H  H57  1  0.13436027  0.48057820  0.14433002  1  0.041306  0.001283  0.099423  0.11867  0.000671  1.005833  0.001
H  H58  1  0.86563859  0.51942555  0.85566264  1  0.041741  0.001282  0.09939  0.118602  0.000671  1.005995  0.001
H  H59  1  0.19098127  0.44589471  0.06825305  1  0.079966  0.000185  0.104753  0.129927  0.000149  1.014284  0.0
H  H60  1  0.80901273  0.55410282  0.93173861  1  0.080169  0.000185  0.104799  0.129869  0.000149  1.014409  0.0
H  H61  1  0.65685780  0.84496312  0.46454476  1  0.12734  0.000419  0.11058  0.112035  -0.000287  1.066201  0.0
H  H62  1  0.34310156  0.15506345  0.53549620  1  0.12793  0.000417  0.110581  0.111855  -0.000287  1.066675  0.0
H  H63  1  0.77147027  0.76949072  0.53229824  1  0.096998  0.000178  0.101159  0.103984  -4.3e-05  1.026959  0.0
H  H64  1  0.22851168  0.23053170  0.46774522  1  0.097052  0.000179  0.101159  0.103967  -4.3e-05  1.026985  0.0
H  H65  1  0.88304991  0.03025063  0.33190532  1  0.1467  0.000144  0.11601  0.125772  -0.00038  0.994505  0.0
H  H66  1  0.11698554  0.96967437  0.66808886  1  0.147004  0.000143  0.116115  0.125932  -0.000382  0.994287  0.0
H  H67  1  0.83462068  0.92240336  0.16004581  1  0.067161  2.2e-05  0.101529  0.100173  -6.6e-05  1.027491  0.0
H  H68  1  0.16526037  0.07758588  0.83998149  1  0.068282  2.2e-05  0.101751  0.100307  -6.6e-05  1.027416  0.0
H  H69  1  0.81105020  0.05353266  0.21351275  1  0.155127  0.001032  0.111022  0.120605  0.000185  1.04915  0.0
H  H70  1  0.18882819  0.94646417  0.78651273  1  0.153299  0.001032  0.111117  0.120879  0.000182  1.049071  0.0
H  H71  1  0.01291884  0.21042946  0.03438521  1  0.096081  0.000408  0.108895  0.111215  0.000135  1.026466  0.0
H  H72  1  0.98706924  0.78951146  0.96567627  1  0.09529  0.000409  0.108962  0.111302  0.000134  1.026784  0.0
H  H73  1  0.03045696  0.37437298  0.35627202  1  0.118997  0.000525  0.095699  0.150121  0.000348  1.051169  0.0
H  H74  1  0.96959174  0.62564528  0.64372398  1  0.119453  0.000523  0.095803  0.150289  0.000346  1.051204  0.0
H  H75  1  0.93649007  0.42578377  0.31620782  1  0.076026  0.000231  0.100778  0.157554  3.2e-05  0.998775  0.0
H  H76  1  0.06353914  0.57424831  0.68380379  1  0.054936  0.000233  0.100709  0.157638  3.2e-05  0.998835  0.0
H  H77  1  0.06287845  0.45914286  0.27900406  1  0.038507  0.000639  0.091398  0.131413  0.000322  1.040608  0.0
H  H78  1  0.93714651  0.54088645  0.72099064  1  0.039302  0.000637  0.091408  0.131391  0.000321  1.040357  0.0
H  H79  1  0.13046744  0.23835179  0.17318761  1  0.082652  0.000647  0.102994  0.118861  0.000174  1.002386  0.0
H  H80  1  0.86946092  0.76164574  0.82681772  1  0.08072  0.000646  0.103015  0.118723  0.000174  1.002368  0.0
H  H81  1  0.09302474  0.15427594  0.25112953  1  0.139005  0.000682  0.104862  0.13685  0.000294  1.013507  0.0
H  H82  1  0.90694653  0.84575199  0.74889402  1  0.136499  0.000682  0.104808  0.136632  0.000294  1.01374  0.0
H  H83  1  0.22083501  0.18332713  0.21529316  1  0.051768  0.000137  0.107098  0.123203  1.8e-05  0.998013  0.0
H  H84  1  0.77913790  0.81668834  0.78468066  1  0.051885  0.000137  0.107235  0.12337  1.8e-05  0.997956  0.0
H  H85  1  0.18372510  0.29787816  0.33247142  1  0.086237  0.000701  0.10377  0.130245  0.000445  1.027193  0.0
H  H86  1  0.81634972  0.70215528  0.66748095  1  0.086229  0.000699  0.103712  0.13023  0.000444  1.028012  0.0
H  H87  1  0.22640498  0.37848607  0.25324696  1  0.053126  0.000618  0.094095  0.099891  0.000345  1.028242  0.0
H  H88  1  0.77362415  0.62153907  0.74669269  1  0.053391  0.000618  0.094039  0.100014  0.000345  1.027803  0.0
H  H89  1  0.27172171  0.26060812  0.26407952  1  0.07785  0.000362  0.113084  0.137892  7.8e-05  0.986618  0.0
H  H90  1  0.72831153  0.73942391  0.73585017  1  0.077959  0.000362  0.113108  0.138042  7.8e-05  0.9869  0.0
H  H91  1  0.60893162  0.74692192  0.30847319  1  0.123895  0.000713  0.109563  0.136458  0.000318  0.987773  0.0
H  H92  1  0.39101801  0.25300376  0.69153965  1  0.124044  0.000713  0.109555  0.136362  0.000318  0.987796  0.0
H  H93  1  0.67597914  0.83128009  0.23849627  1  0.040546  0.000601  0.101282  0.113455  0.000129  1.007139  0.0
H  H94  1  0.32400568  0.16862972  0.76151962  1  0.040157  0.000601  0.101064  0.113192  0.000129  1.007034  0.0
H  H95  1  0.65538101  0.72267079  0.22809095  1  0.082764  7.5e-05  0.108138  0.123458  3.1e-05  0.985535  0.0
H  H96  1  0.34456661  0.27725076  0.77192585  1  0.083183  7.5e-05  0.107979  0.123354  3.1e-05  0.985973  0.0
H  H97  1  0.35988696  0.98676913  0.26746355  1  0.088344  0.000706  0.107718  0.168473  0.000518  1.00741  0.0
H  H98  1  0.64015373  0.01324704  0.73251436  1  0.087745  0.000706  0.107662  0.168391  0.00052  1.007472  0.0
H  H99  1  0.32551032  0.86983501  0.28828798  1  0.071464  0.000383  0.098542  0.153115  0.000194  1.011774  0.0
H  H100  1  0.67448835  0.13018326  0.71173217  1  0.071583  0.000384  0.098515  0.153031  0.000194  1.011902  0.0
H  H101  1  0.38043017  0.92745261  0.20351130  1  0.037824  0.000302  0.09595  0.143671  0.000121  1.017768  0.0
H  H102  1  0.61954645  0.07252213  0.79649934  1  0.037804  0.000302  0.095791  0.143502  0.000121  1.017933  0.0
H  H103  1  0.14070917  0.42653783  0.74890169  1  0.14728  -6.4e-05  0.120236  0.155534  -0.000476  1.002968  0.0
H  H104  1  0.85929751  0.57347282  0.25108848  1  0.147216  -6.4e-05  0.120256  0.155504  -0.000476  1.002994  0.0
H  H105  1  0.22501982  0.32993074  0.66125829  1  0.212253  1.2e-05  0.11623  0.159092  6e-06  1.040477  0.0
H  H106  1  0.77492590  0.67010406  0.33871245  1  0.211494  1.2e-05  0.116177  0.159031  6e-06  1.040504  0.0
H  H107  1  0.72622820  0.04150923  0.94779743  1  0.139873  9e-06  0.099311  0.122585  -3e-06  1.06837  0.0
H  H108  1  0.27385716  0.95842548  0.05226240  1  0.138074  9e-06  0.09938  0.122781  -3e-06  1.068238  0.0
H  H109  1  0.80949471  0.94625455  0.86018258  1  0.140682  4.7e-05  0.11701  0.148276  4.3e-05  0.991292  0.0
H  H110  1  0.19057079  0.05371606  0.13984701  1  0.140235  4.7e-05  0.117094  0.148183  4.2e-05  0.991556  0.0
H  H111  1  0.07462074  0.31847137  0.56069438  1  0.148928  0.000153  0.107763  0.131584  0.000142  1.032885  0.0
H  H112  1  0.92536458  0.68164080  0.43925053  1  0.14297  0.000153  0.107926  0.131862  0.000142  1.032475  0.0
H  H113  1  0.03544280  0.44984742  0.62157418  1  0.135959  2e-06  0.115491  0.149387  -1.1e-05  0.993397  0.0
H  H114  1  0.96457482  0.55027304  0.37837708  1  0.135082  2e-06  0.11552  0.149131  -1.1e-05  0.9937  0.0
H  H115  1  0.18211351  0.81687929  0.26891782  1  0.17327  -5e-05  0.102726  0.123994  -0.000107  1.052749  0.0
H  H116  1  0.81782474  0.18319010  0.73112345  1  0.141118  -5e-05  0.102733  0.124101  -0.000107  1.052584  0.0
H  H117  1  0.22556928  0.68276794  0.20889118  1  0.150717  0.000126  0.107188  0.135257  0.00012  1.036288  0.0
H  H118  1  0.77434464  0.31729729  0.79114036  1  0.15069  0.000126  0.107084  0.13501  0.00012  1.035988  0.0
H  H119  1  0.72225911  0.90314558  0.10049802  1  0.150316  4.1e-05  0.117684  0.152551  3.3e-05  1.006688  0.0
H  H120  1  0.27770521  0.09682089  0.89954151  1  0.149627  4.1e-05  0.117642  0.152441  3.3e-05  1.006939  0.0
H  H121  1  0.73204670  0.79388640  0.02636701  1  0.154561  0.000115  0.125349  0.163843  8.7e-05  0.965659  0.0
H  H122  1  0.26788719  0.20610423  0.97366277  1  0.15428  0.000115  0.125372  0.164065  8.7e-05  0.965585  0.0
C  C123  1  0.38473932  0.69319018  0.46750681  1  0.046617  -0.000831  -0.081407  -0.097147  -0.000903  3.950272  -0.001
C  C124  1  0.61530750  0.30680873  0.53249374  1  0.047351  -0.000832  -0.081329  -0.097023  -0.000904  3.949983  -0.001
C  C125  1  0.35734089  0.71633562  0.52840987  1  -0.148436  0.004078  -0.071945  -0.069553  0.002944  3.934191  0.002
C  C126  1  0.64271409  0.28365086  0.47159412  1  -0.149044  0.004081  -0.072175  -0.069895  0.002948  3.934752  0.002
C  C127  1  0.32559251  0.64834353  0.58871629  1  0.010737  0.001269  -0.013499  -0.040077  0.000216  3.96591  0.0
C  C128  1  0.67442284  0.35164502  0.41128914  1  0.011022  0.001271  -0.013546  -0.039991  0.000218  3.966268  0.0
C  C129  1  0.38667460  0.60084572  0.46540890  1  -0.068271  0.002242  -0.013333  -0.025327  0.00173  3.978126  0.001
C  C130  1  0.61334145  0.39915665  0.53459373  1  -0.068463  0.002244  -0.013294  -0.025344  0.001731  3.977908  0.001
C  C131  1  0.32849319  0.55642153  0.58707866  1  -0.037332  0.00455  -0.072687  -0.099759  0.003307  3.944069  0.003
C  C132  1  0.67149244  0.44356564  0.41292223  1  -0.038324  0.004549  -0.072589  -0.099636  0.003306  3.944039  0.003
C  C133  1  0.36066892  0.53168156  0.52611500  1  -0.020235  -0.000441  -0.021582  -0.059606  -0.000492  4.015664  0.0
C  C134  1  0.63933116  0.46831389  0.47387808  1  -0.020184  -0.000441  -0.021493  -0.059614  -0.000493  4.015858  0.0
C  C135  1  0.36873380  0.43287053  0.52650192  1  0.921264  -0.000255  0.150004  0.342725  -0.000312  4.028915  0.0
C  C136  1  0.63125783  0.56711663  0.47348856  1  0.920261  -0.000258  0.150044  0.342881  -0.000315  4.028301  0.0
C  C137  1  0.40608544  0.40989360  0.46094018  1  -0.028933  -0.001908  -0.019545  -0.05394  -0.002092  4.006727  -0.002
C  C138  1  0.59393873  0.59009771  0.53905417  1  -0.027814  -0.001909  -0.019224  -0.053423  -0.002093  4.005681  -0.002
C  C139  1  0.42489815  0.47944381  0.40033744  1  -0.058071  0.006335  -0.014195  -0.027122  0.004965  3.980678  0.004
C  C140  1  0.57513019  0.52055235  0.59966521  1  -0.058955  0.006322  -0.014427  -0.027626  0.004954  3.9812  0.004
C  C141  1  0.41615759  0.57808134  0.39992376  1  0.886309  -0.000693  0.130055  0.303017  -0.00088  4.07472  -0.001
C  C142  1  0.58388627  0.42191689  0.60008304  1  0.886447  -0.000697  0.130238  0.302938  -0.000884  4.074955  -0.001
C  C143  1  0.45584334  0.45329181  0.33961159  1  -0.012505  -0.00174  -0.083461  -0.098675  -0.001934  3.970111  -0.001
C  C144  1  0.54417855  0.54671331  0.66038426  1  -0.012446  -0.001737  -0.083437  -0.098481  -0.001931  3.969898  -0.001
C  C145  1  0.47158132  0.36056247  0.33927531  1  -0.094069  0.007085  -0.075978  -0.076335  0.005199  3.93584  0.004
C  C146  1  0.52841680  0.63945440  0.66071454  1  -0.093501  0.007078  -0.075902  -0.076321  0.005193  3.935639  0.004
C  C147  1  0.45879426  0.29167515  0.39929838  1  -0.019975  -0.001751  -0.014398  -0.046062  -0.003008  3.972769  -0.003
C  C148  1  0.54120225  0.70833135  0.60068233  1  -0.02019  -0.001745  -0.014528  -0.04612  -0.003003  3.972819  -0.003
C  C149  1  0.42522970  0.31712762  0.45983264  1  -0.021748  0.008116  -0.066847  -0.090016  0.006139  3.935767  0.005
C  C150  1  0.57478240  0.68286645  0.54015912  1  -0.021443  0.008107  -0.066887  -0.090183  0.006133  3.935925  0.005
C  C151  1  0.48414174  0.19304856  0.39844155  1  1.547753  0.035937  0.242616  0.619167  0.033488  4.104316  0.031
C  C152  1  0.51583380  0.80696000  0.60153534  1  1.5469  0.035922  0.242827  0.619155  0.033469  4.103829  0.031
C  C153  1  0.33089268  0.97787601  0.45047854  1  1.54017  0.031907  0.23602  0.602549  0.030792  4.153965  0.027
C  C154  1  0.66913662  0.02210562  0.54949004  1  1.540064  0.031929  0.236316  0.603358  0.030795  4.153288  0.027
C  C155  1  0.23031981  0.94145191  0.46958860  1  0.004385  0.004134  -0.011193  -0.037107  0.001883  3.970044  0.001
C  C156  1  0.76971043  0.05852558  0.53039065  1  -0.010994  0.004182  -0.011132  -0.037466  0.001917  3.970369  0.001
C  C157  1  0.17622179  0.96673335  0.42363674  1  0.013939  0.004481  -0.068729  -0.093312  0.003147  3.921515  0.002
C  C158  1  0.82380212  0.03324967  0.57635652  1  0.013234  0.004476  -0.068701  -0.093153  0.003142  3.921469  0.002
C  C159  1  0.19058445  0.88109509  0.53246110  1  0.03358  0.010699  -0.067871  -0.069663  0.008247  3.93249  0.006
C  C160  1  0.80950156  0.11882091  0.46750550  1  0.045843  0.010747  -0.068146  -0.069845  0.008284  3.933258  0.006
C  C161  1  0.10056854  0.84150235  0.54701937  1  -0.083446  0.002409  -0.07404  -0.0789  0.001419  3.921051  0.0
C  C162  1  0.89951946  0.15837912  0.45295299  1  -0.144085  0.002412  -0.073692  -0.078822  0.001428  3.921313  0.0
C  C163  1  0.04710837  0.86443469  0.50028185  1  -0.068516  0.01504  -0.012183  -0.033155  0.011737  3.991485  0.008
C  C164  1  0.95296501  0.13547994  0.49969864  1  -0.006197  0.015136  -0.012228  -0.032869  0.011804  3.991311  0.008
C  C165  1  0.47210147  0.85221720  0.79890320  1  1.520861  0.022322  0.208716  0.56537  0.021995  4.176452  0.016
C  C166  1  0.52790510  0.14778239  0.20108545  1  1.520863  0.022304  0.208704  0.565467  0.021982  4.176914  0.016
C  C167  1  0.51809564  0.74857874  0.89752715  1  -0.001559  0.004102  -0.071477  -0.106241  0.002972  3.952181  0.002
C  C168  1  0.48191002  0.25142362  0.10246207  1  -0.001261  0.004104  -0.071505  -0.106545  0.002975  3.951918  0.002
C  C169  1  0.38941277  0.68127865  0.99904225  1  -0.047342  0.015999  -0.015433  -0.028837  0.012474  3.976029  0.008
C  C170  1  0.61058573  0.31871887  0.00094481  1  -0.056159  0.016009  -0.015397  -0.02873  0.012483  3.976108  0.008
C  C171  1  0.49177289  0.69108320  0.96235405  1  -0.01408  0.007546  -0.019366  -0.052635  0.005894  4.005415  0.004
C  C172  1  0.50823064  0.30893022  0.03763624  1  -0.005461  0.007559  -0.019425  -0.052596  0.005902  4.005923  0.004
C  C173  1  0.35774464  0.61607936  0.06517867  1  0.901365  0.026865  0.136841  0.320216  0.021503  4.048288  0.013
C  C174  1  0.64226013  0.38393820  0.93481561  1  0.901504  0.026902  0.136683  0.320199  0.021532  4.047955  0.013
C  C175  1  0.31629247  0.73346402  0.97146791  1  -0.088939  0.002985  -0.084564  -0.099964  0.00199  3.979221  0.001
C  C176  1  0.68371193  0.26652244  0.02850813  1  -0.089339  0.002991  -0.084302  -0.099751  0.001994  3.978994  0.001
C  C177  1  0.34323494  0.79021191  0.90738020  1  -0.060894  0.011258  -0.078185  -0.077892  0.008495  3.950668  0.006
C  C178  1  0.65676517  0.20977110  0.09259740  1  -0.060724  0.011266  -0.078353  -0.078096  0.008503  3.951069  0.006
C  C179  1  0.44461156  0.79633632  0.86930690  1  -0.011631  0.005423  -0.013126  -0.031618  0.003104  3.985846  0.002
C  C180  1  0.55539798  0.20365084  0.13067985  1  -0.011963  0.00543  -0.013115  -0.03131  0.003108  3.985597  0.002
C  C181  1  0.48190618  0.42484177  0.16899398  1  -0.050288  0.0103  -0.074926  -0.077371  0.007896  3.947652  0.006
C  C182  1  0.51809134  0.57517234  0.83099743  1  -0.050788  0.010323  -0.075127  -0.077325  0.007913  3.947775  0.006
C  C183  1  0.40954216  0.48215379  0.14526741  1  -0.071507  0.003612  -0.081161  -0.090742  0.002598  3.970515  0.001
C  C184  1  0.59045431  0.51787827  0.85472810  1  -0.072331  0.003609  -0.081087  -0.09106  0.002596  3.970904  0.001
C  C185  1  0.43691955  0.55580717  0.08857090  1  0.021324  0.014164  -0.013687  -0.023924  0.010897  3.96484  0.007
C  C186  1  0.56307510  0.44421798  0.91141991  1  0.021495  0.014192  -0.013712  -0.023613  0.01092  3.964393  0.007
C  C187  1  0.53950794  0.57081674  0.05515917  1  -0.078297  0.008795  -0.017269  -0.040615  0.006879  3.976728  0.004
C  C188  1  0.46048742  0.42919598  0.94483433  1  -0.077362  0.008803  -0.017045  -0.040491  0.006885  3.976843  0.004
C  C189  1  0.57140465  0.64182217  0.99126386  1  0.886095  0.017982  0.138711  0.323446  0.014402  4.057951  0.009
C  C190  1  0.42860735  0.35818641  0.00872789  1  0.885477  0.018028  0.13834  0.322923  0.01444  4.058061  0.009
C  C191  1  0.61156626  0.51618009  0.08241936  1  -0.045831  0.002782  -0.072265  -0.103167  0.001878  3.926453  0.001
C  C192  1  0.38843286  0.48381951  0.91757038  1  -0.045393  0.002788  -0.072301  -0.103206  0.001884  3.926489  0.001
C  C193  1  0.58373242  0.44349110  0.13925141  1  0.007734  0.009707  -0.009681  -0.02602  0.006979  3.940768  0.005
C  C194  1  0.41626132  0.55651126  0.86073892  1  0.006468  0.009709  -0.009643  -0.025947  0.00698  3.940496  0.005
C  C195  1  0.66028462  0.38439161  0.16881299  1  1.589899  0.022033  0.229086  0.597649  0.020756  4.163539  0.018
C  C196  1  0.33971355  0.61561144  0.83117537  1  1.590817  0.022052  0.229135  0.597778  0.020775  4.163326  0.018
C  C197  1  0.89466235  0.60813181  0.07069599  1  -0.10816  0.00163  -0.23815  -0.521204  0.001124  3.888474  0.001
C  C198  1  0.10531461  0.39186227  0.92932324  1  -0.107752  0.001629  -0.238316  -0.521296  0.001123  3.888126  0.001
C  C199  1  0.48646845  0.76818429  0.20496890  1  0.224116  0.000629  -0.133417  -0.263196  0.000799  3.896751  0.0
C  C200  1  0.51348864  0.23178008  0.79504413  1  0.223572  0.000629  -0.133446  -0.263162  0.000798  3.896732  0.0
C  C201  1  0.10487524  0.59049251  0.00769193  1  0.268588  0.000635  -0.133007  -0.267137  0.000711  3.876301  0.0
C  C202  1  0.89510631  0.40950087  0.99230586  1  0.268235  0.000636  -0.132985  -0.266738  0.000711  3.876025  0.0
C  C203  1  0.11964170  0.45745083  0.10487001  1  0.273557  0.000414  -0.137152  -0.273537  0.000348  3.876683  0.0
C  C204  1  0.88035403  0.54254255  0.89512391  1  0.27301  0.000414  -0.137167  -0.273306  0.000347  3.876678  0.0
C  C205  1  0.68662937  0.99820068  0.36425853  1  1.542926  0.039316  0.237874  0.603659  0.037368  4.123582  0.031
C  C206  1  0.31337698  0.00177681  0.63573303  1  1.54346  0.039285  0.237922  0.603723  0.037337  4.123329  0.031
C  C207  1  0.76142181  0.94357927  0.39589865  1  -0.001836  0.008596  -0.010739  -0.03992  0.005831  3.993636  0.004
C  C208  1  0.23858669  0.05637405  0.60408931  1  -0.002633  0.008632  -0.010701  -0.039811  0.00586  3.993797  0.004
C  C209  1  0.73231348  0.86692062  0.45004591  1  0.018158  0.016029  -0.074605  -0.075918  0.01233  3.941507  0.009
C  C210  1  0.26766492  0.13307416  0.54997702  1  0.017989  0.01606  -0.074755  -0.076198  0.012355  3.94235  0.009
C  C211  1  0.79598012  0.82516534  0.48751988  1  -0.078305  0.003675  -0.079066  -0.081404  0.002303  3.941788  0.001
C  C212  1  0.20398661  0.17485016  0.51251249  1  -0.078283  0.003697  -0.079275  -0.081557  0.002319  3.941713  0.001
C  C213  1  0.89158224  0.85761010  0.47016914  1  -0.043319  0.021731  -0.014694  -0.037916  0.016966  3.983319  0.012
C  C214  1  0.10841428  0.14238122  0.52984335  1  -0.040786  0.021761  -0.014541  -0.037455  0.016991  3.983579  0.012
C  C215  1  0.92447729  0.92927152  0.41165440  1  -0.015086  0.006751  -0.017038  -0.050255  0.005207  4.003914  0.003
C  C216  1  0.07552826  0.07069354  0.58834200  1  -0.017284  0.006801  -0.017177  -0.050386  0.005247  4.00414  0.003
C  C217  1  0.85892056  0.97215926  0.37498766  1  -0.06972  0.005166  -0.065192  -0.096822  0.003624  3.933926  0.003
C  C218  1  0.14109341  0.02777679  0.62499926  1  -0.069205  0.005147  -0.065169  -0.09683  0.003608  3.933214  0.003
C  C219  1  0.87135617  0.98679686  0.13261079  1  0.040508  -3.5e-05  -0.080811  -0.097537  -0.000405  3.984015  0.0
C  C220  1  0.12857658  0.01317443  0.86742294  1  0.042435  -4.7e-05  -0.08111  -0.097609  -0.000413  3.983941  0.0
C  C221  1  0.85882280  0.05953546  0.16236928  1  -0.147883  0.007598  -0.073945  -0.089811  0.005728  3.955893  0.004
C  C222  1  0.14109270  0.94045102  0.83765962  1  -0.10637  0.007593  -0.073937  -0.090004  0.005729  3.956119  0.004
C  C223  1  0.90869587  0.14127731  0.12625482  1  0.045131  0.002083  -0.012305  -0.033887  0.000625  3.98154  0.0
C  C224  1  0.09123275  0.85870089  0.87378165  1  -0.029454  0.002106  -0.012431  -0.03403  0.000617  3.981545  0.0
C  C225  1  0.97276184  0.14793423  0.06169458  1  -0.000531  0.003878  -0.069577  -0.094822  0.002835  3.924202  0.002
C  C226  1  0.02719790  0.85202050  0.93835549  1  0.033283  0.003851  -0.069579  -0.094731  0.002835  3.925189  0.002
C  C227  1  0.98612913  0.07496895  0.03145504  1  -0.003286  0.003245  -0.018291  -0.042891  0.002471  3.991737  0.001
C  C228  1  0.01383368  0.92497058  0.96860876  1  -0.004922  0.003243  -0.018205  -0.042977  0.002471  3.992458  0.001
C  C229  1  0.93387633  0.99354289  0.06717452  1  -0.115875  0.007975  -0.010871  -0.024491  0.006203  3.960952  0.004
C  C230  1  0.06608868  0.00639802  0.93287664  1  -0.116849  0.00798  -0.010837  -0.024614  0.006205  3.959838  0.004
C  C231  1  0.05489304  0.08493904  0.96310284  1  0.909054  0.009022  0.140144  0.322007  0.007197  4.056803  0.004
C  C232  1  0.94506963  0.91501569  0.03696127  1  0.908285  0.00904  0.14016  0.321341  0.007208  4.056952  0.004
C  C233  1  0.89379470  0.22140297  0.15591400  1  1.5465  0.019771  0.219955  0.581291  0.019918  4.154904  0.016
C  C234  1  0.10615534  0.77857937  0.84411218  1  1.546045  0.019765  0.220285  0.581437  0.019903  4.155279  0.016
C  C235  1  0.03411336  0.32570478  0.27188360  1  1.351859  0.011745  0.248014  0.518729  0.011149  4.030878  0.01
C  C236  1  0.96590747  0.67433143  0.72811339  1  1.352184  0.011726  0.248083  0.518439  0.011131  4.030686  0.01
C  C237  1  0.01486488  0.40104907  0.30805500  1  -0.117673  0.001046  -0.242359  -0.521795  0.000753  3.916135  0.0
C  C238  1  0.98516953  0.59898439  0.69194152  1  -0.098169  0.001043  -0.242548  -0.522147  0.000751  3.915848  0.0
C  C239  1  0.14334220  0.21047034  0.22216432  1  0.200907  0.0003  -0.135663  -0.274401  8.3e-05  3.887256  0.0
C  C240  1  0.85662352  0.78955205  0.77783213  1  0.205188  0.000299  -0.13573  -0.274096  8.3e-05  3.886603  0.0
C  C241  1  0.20606946  0.30669943  0.27815540  1  0.248372  0.000944  -0.132812  -0.266145  0.001071  3.867926  0.0
C  C242  1  0.79397427  0.69334367  0.72178647  1  0.24772  0.000942  -0.132796  -0.266716  0.001069  3.868892  0.0
C  C243  1  0.95335998  0.81950986  0.51535231  1  0.900122  0.028581  0.142093  0.322289  0.022714  4.056021  0.013
C  C244  1  0.04667397  0.18045382  0.48464669  1  0.897479  0.028748  0.141822  0.321403  0.022846  4.055856  0.013
C  C245  1  0.29001369  0.67377302  0.65424143  1  1.574472  0.023088  0.229204  0.599849  0.023109  4.159922  0.02
C  C246  1  0.70997100  0.32620380  0.34577171  1  1.574694  0.023102  0.229092  0.599691  0.023125  4.159641  0.02
C  C247  1  0.08393977  0.93004348  0.43886247  1  -0.078069  0.008083  -0.019385  -0.048851  0.006345  4.00241  0.004
C  C248  1  0.91610095  0.06990638  0.56113639  1  -0.07734  0.008139  -0.019413  -0.048981  0.006389  4.002676  0.004
C  C249  1  0.62296886  0.77669110  0.25454149  1  0.221417  0.000186  -0.132194  -0.265102  -8.3e-05  3.900008  0.0
C  C250  1  0.37699980  0.22324080  0.74546986  1  0.220851  0.000185  -0.131803  -0.264654  -8.3e-05  3.900457  0.0
C  C251  1  0.02612813  0.96268086  0.39044278  1  0.908584  0.013656  0.144848  0.335629  0.010792  4.052268  0.007
C  C252  1  0.97389873  0.03728973  0.60955087  1  0.906875  0.013759  0.14506  0.335942  0.010873  4.052259  0.007
C  C253  1  0.48118739  0.88556021  0.26425878  1  1.358878  0.008336  0.252514  0.52123  0.008182  4.014748  0.008
C  C254  1  0.51882816  0.11442626  0.73572594  1  1.357804  0.008345  0.252431  0.521323  0.008186  4.014853  0.008
C  C255  1  0.38096274  0.92006101  0.25486039  1  -0.061215  0.001732  -0.235461  -0.511377  0.001372  3.902465  0.001
C  C256  1  0.61904968  0.07993997  0.74513869  1  -0.060857  0.001733  -0.235148  -0.510954  0.001372  3.902404  0.001
C  C257  1  0.96045448  0.53802652  0.10400948  1  1.348706  0.017947  0.247901  0.512234  0.017277  4.036018  0.016
C  C258  1  0.03953344  0.46195926  0.89599853  1  1.349078  0.017946  0.247996  0.512239  0.017278  4.036697  0.016
C  C259  1  0.11392983  0.36275544  0.74804061  1  -0.211631  -0.001077  -0.101141  -0.172768  -0.001287  4.014078  -0.001
C  C260  1  0.88604240  0.63727110  0.25194498  1  -0.206406  -0.001069  -0.101136  -0.172842  -0.001279  4.0135  -0.001
C  C261  1  0.15769910  0.31214222  0.70333109  1  -0.196572  -0.001638  -0.102149  -0.170572  -0.001725  4.020369  -0.001
C  C262  1  0.84224916  0.68790019  0.29663904  1  -0.201236  -0.001627  -0.102004  -0.169995  -0.001714  4.020079  -0.001
C  C263  1  0.00494654  0.22261333  0.78542186  1  -0.253965  -0.003707  -0.042349  -0.112469  -0.004019  4.09152  -0.002
C  C264  1  0.99500986  0.77742840  0.21457373  1  -0.253046  -0.003688  -0.042359  -0.112288  -0.003998  4.091774  -0.002
C  C265  1  0.93594240  0.15732201  0.81942564  1  -0.22725  -0.00413  -0.044424  -0.119852  -0.004524  4.078893  -0.003
C  C266  1  0.06402709  0.84271213  0.18057601  1  -0.227283  -0.004104  -0.044366  -0.119779  -0.004495  4.078428  -0.003
C  C267  1  0.78990226  0.06211267  0.90384830  1  -0.198493  -0.001578  -0.108039  -0.169546  -0.001701  4.058948  -0.001
C  C268  1  0.21015316  0.93785104  0.09619250  1  -0.197763  -0.001567  -0.108235  -0.170115  -0.00169  4.058888  -0.001
C  C269  1  0.83339683  0.01270444  0.85834499  1  -0.185884  -0.000529  -0.104864  -0.173907  -0.000641  4.033264  0.0
C  C270  1  0.16664859  0.98727861  0.14167998  1  -0.184874  -0.000524  -0.105021  -0.173607  -0.000635  4.032855  0.0
C  C271  1  0.16615168  0.53373679  0.44666013  1  -0.233014  0.001644  -0.034983  -0.116334  0.001337  4.106121  0.001
C  C272  1  0.83393872  0.46637265  0.55333628  1  -0.23573  0.001648  -0.035263  -0.116789  0.00134  4.106434  0.001
C  C273  1  0.19379952  0.59672390  0.38582617  1  -0.250378  0.002909  -0.035642  -0.099251  0.002282  4.07387  0.002
C  C274  1  0.80629961  0.40340145  0.61418370  1  -0.248965  0.002906  -0.035792  -0.099285  0.002281  4.074551  0.002
C  C275  1  0.09590116  0.38933600  0.53720654  1  -0.225145  0.000496  -0.101279  -0.16322  0.00038  4.031985  0.0
C  C276  1  0.90411366  0.61076857  0.46274331  1  -0.219987  0.000494  -0.101649  -0.163596  0.00038  4.03253  0.0
C  C277  1  0.07537325  0.45777433  0.56881601  1  -0.124377  0.000629  -0.100374  -0.161543  0.000463  4.012635  0.0
C  C278  1  0.92465515  0.54232680  0.43114175  1  -0.122639  0.000631  -0.100298  -0.161126  0.000464  4.01288  0.0
C  C279  1  0.19380384  0.74429869  0.29272083  1  -0.253235  0.000537  -0.105804  -0.170462  0.000351  4.045581  0.0
C  C280  1  0.80621869  0.25578519  0.70728362  1  -0.232042  0.00054  -0.105776  -0.171047  0.000352  4.045573  0.0
C  C281  1  0.21556477  0.67508440  0.26173427  1  -0.153099  0.000426  -0.104068  -0.168339  0.00029  4.029393  0.0
C  C282  1  0.78445564  0.32501054  0.73826575  1  -0.141573  0.000423  -0.103991  -0.167701  0.000289  4.029547  0.0
C  C283  1  0.67229484  0.90896343  0.07058354  1  -0.21243  -0.00011  -0.100981  -0.164023  -0.000122  4.019588  0.0
C  C284  1  0.32765058  0.09103342  0.92945639  1  -0.210486  -0.000108  -0.100908  -0.16378  -0.00012  4.019839  0.0
C  C285  1  0.67787916  0.85196308  0.03169031  1  -0.172401  -8.9e-05  -0.097752  -0.164557  -8.9e-05  4.016144  0.0
C  C286  1  0.32205419  0.14803653  0.96834382  1  -0.17316  -9e-05  -0.097828  -0.164869  -8.9e-05  4.016759  0.0
C  C287  1  0.53648093  0.97335092  0.01185342  1  -0.282692  -0.000418  -0.050954  -0.131316  -0.000447  4.112756  0.0
C  C288  1  0.46347650  0.02667011  0.98819083  1  -0.203893  -0.00041  -0.051057  -0.131331  -0.000448  4.112555  0.0
S  S289  1  0.00434733  0.32421068  0.80967319  1  0.214205  -0.005248  0.069968  0.14687  -0.005968  2.877047  -0.004
S  S290  1  0.99564880  0.67581448  0.19032006  1  0.213576  -0.005216  0.069873  0.146632  -0.005933  2.876782  -0.004
S  S291  1  0.10097784  0.21229763  0.71245878  1  0.194075  -0.005084  0.062183  0.131161  -0.005548  2.841536  -0.003
S  S292  1  0.89894794  0.78775997  0.28750624  1  0.194243  -0.005054  0.062241  0.130861  -0.005517  2.842218  -0.003
S  S293  1  0.93420397  0.05922806  0.79134297  1  0.226469  -0.004965  0.079733  0.159817  -0.005403  2.898587  -0.003
S  S294  1  0.06575567  0.94080952  0.20864770  1  0.225623  -0.004935  0.079786  0.1597  -0.005372  2.898242  -0.003
S  S295  1  0.83854883  0.16727596  0.89186929  1  0.188951  -0.00437  0.065008  0.139869  -0.004694  2.868666  -0.003
S  S296  1  0.16144333  0.83272641  0.10814473  1  0.190041  -0.004342  0.065093  0.140046  -0.004664  2.868398  -0.003
S  S297  1  0.18414429  0.71604776  0.37728641  1  0.21195  0.002883  0.068985  0.139508  0.002169  2.869683  0.001
S  S298  1  0.81593546  0.28406514  0.62271156  1  0.213455  0.002885  0.068908  0.139672  0.00217  2.869027  0.001
S  S299  1  0.23130649  0.56442426  0.30994568  1  0.202306  0.002459  0.071852  0.138391  0.001829  2.869623  0.001
S  S300  1  0.76881355  0.43566171  0.69006326  1  0.200999  0.00246  0.072131  0.138546  0.001829  2.871344  0.001
S  S301  1  0.16420559  0.41598407  0.45322355  1  0.246589  0.002455  0.081749  0.152015  0.001858  2.979737  0.001
S  S302  1  0.83585865  0.58414193  0.54673344  1  0.245918  0.002457  0.082201  0.152346  0.001859  2.979981  0.001
S  S303  1  0.11981279  0.56535559  0.52249330  1  0.224442  0.002454  0.082049  0.161823  0.001854  2.917823  0.001
S  S304  1  0.88026882  0.43472554  0.47749938  1  0.225704  0.002456  0.082021  0.161704  0.001856  2.917035  0.001
S  S305  1  0.59342460  0.87324319  0.98582530  1  0.202773  -0.000395  0.063977  0.130858  -0.00048  2.885594  0.0
S  S306  1  0.40651811  0.12678820  0.01420628  1  0.201841  -0.000394  0.063946  0.130776  -0.000479  2.885741  0.0
S  S307  1  0.58195883  0.99958223  0.07070440  1  0.19593  -0.000329  0.065928  0.134703  -0.0006  2.852314  0.0
S  S308  1  0.41801617  0.00041878  0.92933683  1  0.19547  -0.000328  0.06601  0.1347  -0.000599  2.851449  0.0
N  N309  1  0.05761331  0.52715863  0.07149801  1  -1.166421  0.017139  -0.271529  -0.018934  0.012828  3.644027  0.013
N  N310  1  0.94237524  0.47282991  0.92849879  1  -1.166455  0.017138  -0.271554  -0.019272  0.012828  3.64454  0.013
N  N311  1  0.12564200  0.28317984  0.25792160  1  -1.170252  0.011476  -0.272512  -0.012789  0.008491  3.611948  0.009
N  N312  1  0.87436275  0.71685221  0.74205295  1  -1.170186  0.011457  -0.272647  -0.012573  0.008478  3.610903  0.009
N  N313  1  0.52964250  0.81434525  0.23965688  1  -1.159314  0.012299  -0.270542  -0.019942  0.00916  3.644012  0.009
N  N314  1  0.47033623  0.18561912  0.76034706  1  -1.158637  0.012299  -0.270494  -0.019823  0.00916  3.644364  0.009
O  O315  1  0.34652875  0.37129440  0.57944579  1  -1.113289  -0.001174  -0.263497  -0.406457  -0.001264  2.134703  -0.001
O  O316  1  0.65343340  0.62868722  0.42053997  1  -1.112793  -0.001178  -0.26363  -0.406604  -0.001268  2.134361  -0.001
O  O317  1  0.43529752  0.63961338  0.34662209  1  -1.089937  0.00165  -0.2717  -0.42229  0.001267  2.159862  0.001
O  O318  1  0.56479334  0.36038485  0.65337585  1  -1.090152  0.001642  -0.271731  -0.421991  0.001262  2.159964  0.001
O  O319  1  0.46939208  0.13414080  0.45429302  1  -1.183812  0.072716  -0.289453  -0.543445  0.052491  2.413478  0.036
O  O320  1  0.53055825  0.86586500  0.54568781  1  -1.183685  0.072671  -0.289685  -0.54347  0.052474  2.413334  0.036
O  O321  1  0.51848129  0.17296775  0.34132665  1  -1.207965  0.086059  -0.297746  -0.591054  0.063949  2.458514  0.033
O  O322  1  0.48149816  0.82703736  0.65865468  1  -1.207366  0.086072  -0.297772  -0.591126  0.063955  2.458409  0.033
O  O323  1  0.71891607  0.05988277  0.31070078  1  -1.199947  0.071675  -0.293504  -0.542214  0.049922  2.389557  0.03
O  O324  1  0.28109417  0.94011684  0.68930360  1  -1.200177  0.071657  -0.293477  -0.542211  0.049902  2.389349  0.03
O  O325  1  0.59332915  0.98197623  0.39244301  1  -1.202528  0.110849  -0.289234  -0.580549  0.084903  2.347462  0.058
O  O326  1  0.40666351  0.01800541  0.60755656  1  -1.202759  0.110863  -0.289357  -0.580604  0.084899  2.347401  0.058
O  O327  1  0.37764233  0.95270229  0.49424333  1  -1.181459  0.060819  -0.298514  -0.547492  0.041542  2.374596  0.023
O  O328  1  0.62239033  0.04731181  0.50571923  1  -1.180874  0.060812  -0.29875  -0.547967  0.041561  2.37385  0.023
O  O329  1  0.36371426  0.02966102  0.39209468  1  -1.193025  0.070646  -0.303851  -0.548114  0.047866  2.348236  0.027
O  O330  1  0.63629796  0.97028259  0.60784442  1  -1.192858  0.070656  -0.30396  -0.548475  0.047862  2.348733  0.027
O  O331  1  0.66112051  0.65821376  0.96255503  1  -1.104161  0.024631  -0.280917  -0.424879  0.018772  2.091616  0.02
O  O332  1  0.33887887  0.34178100  0.03743741  1  -1.103815  0.024688  -0.280892  -0.424858  0.018814  2.091234  0.02
O  O333  1  0.26815487  0.61091592  0.09959682  1  -1.09209  0.036492  -0.279416  -0.43702  0.027742  2.134446  0.03
O  O334  1  0.73184993  0.38912652  0.90040460  1  -1.092445  0.036529  -0.279317  -0.43706  0.027773  2.134303  0.03
O  O335  1  0.62812415  0.30989628  0.21209143  1  -1.206128  0.063921  -0.308915  -0.578855  0.045541  2.427071  0.025
O  O336  1  0.37186458  0.69010262  0.78789602  1  -1.205966  0.063885  -0.308847  -0.578804  0.045541  2.427019  0.025
O  O337  1  0.74826958  0.41144986  0.15012346  1  -1.183177  0.062566  -0.297683  -0.554187  0.045287  2.287564  0.031
O  O338  1  0.25172121  0.58855112  0.84987737  1  -1.183499  0.062616  -0.29776  -0.554272  0.045321  2.287665  0.031
O  O339  1  0.92476204  0.49044341  0.16358646  1  -1.21022  0.06394  -0.312171  -0.546993  0.044569  2.347272  0.022
O  O340  1  0.07524580  0.50954583  0.83642315  1  -1.210335  0.063917  -0.31225  -0.546885  0.044557  2.347307  0.022
O  O341  1  0.82616170  0.21874443  0.21265554  1  -1.214804  0.105581  -0.304896  -0.587741  0.080083  2.425825  0.05
O  O342  1  0.17381146  0.78125034  0.78737398  1  -1.214121  0.105567  -0.304875  -0.587675  0.080081  2.426009  0.05
O  O343  1  0.94553277  0.29148843  0.12601512  1  -1.180731  0.057959  -0.29719  -0.540935  0.04193  2.204505  0.033
O  O344  1  0.05441779  0.70849805  0.87400602  1  -1.180838  0.057929  -0.297452  -0.541083  0.041923  2.2046  0.033
O  O345  1  0.96620738  0.30117354  0.25502195  1  -1.187971  0.051793  -0.300838  -0.537588  0.036315  2.321256  0.021
O  O346  1  0.03378570  0.69886475  0.74498912  1  -1.187739  0.051731  -0.30074  -0.537277  0.036269  2.321621  0.021
O  O347  1  0.52003370  0.92033423  0.29675053  1  -1.195004  0.056956  -0.301102  -0.522999  0.038154  2.315229  0.02
O  O348  1  0.48001746  0.07966950  0.70320971  1  -1.194592  0.056997  -0.300983  -0.523137  0.038148  2.315655  0.02
O  O349  1  0.10202562  0.15604931  0.93235295  1  -1.096455  0.012832  -0.270496  -0.426736  0.009752  2.145286  0.011
O  O350  1  0.89791477  0.84390403  0.06771240  1  -1.095571  0.012849  -0.270819  -0.426606  0.009766  2.144587  0.011
O  O351  1  0.56188897  0.86681241  0.76476639  1  -1.171384  0.064439  -0.29944  -0.535229  0.047437  2.133797  0.042
O  O352  1  0.43813156  0.13319064  0.23522143  1  -1.170943  0.06442  -0.299462  -0.535258  0.04742  2.134249  0.042
O  O353  1  0.39951723  0.88613470  0.77331802  1  -1.198671  0.0825  -0.312284  -0.596959  0.061435  2.357886  0.033
O  O354  1  0.60049453  0.11385315  0.22665988  1  -1.198875  0.082527  -0.312264  -0.596996  0.061454  2.357995  0.033
O  O355  1  0.92628967  0.75338507  0.56495975  1  -1.10046  0.041151  -0.263733  -0.426594  0.031322  2.205904  0.034
O  O356  1  0.07376937  0.24658413  0.43502105  1  -1.100123  0.041389  -0.263792  -0.426382  0.031502  2.204578  0.035
O  O357  1  0.24756560  0.61212040  0.70573260  1  -1.204054  0.072008  -0.311272  -0.565166  0.050422  2.308068  0.031
O  O358  1  0.75240031  0.38787229  0.29427316  1  -1.203656  0.072053  -0.31127  -0.565267  0.050443  2.307525  0.031
O  O359  1  0.30396039  0.75567243  0.65406961  1  -1.185064  0.069214  -0.301249  -0.558386  0.049859  2.315622  0.033
O  O360  1  0.69602670  0.24431474  0.34593968  1  -1.185673  0.069257  -0.301118  -0.55813  0.049865  2.315628  0.033
O  O361  1  0.06084663  0.01695278  0.33533510  1  -1.094312  0.021918  -0.26663  -0.420306  0.016848  2.145305  0.018
O  O362  1  0.93918045  0.98303786  0.66469131  1  -1.092856  0.022095  -0.266895  -0.420721  0.016984  2.144394  0.019
