# generated using pymatgen
data_Ni4H29C38(NO3)5
_symmetry_space_group_name_H-M   'P 1'
_cell_length_a   12.92928941
_cell_length_b   18.59311004
_cell_length_c   21.93352907
_cell_angle_alpha   89.99999298
_cell_angle_beta   102.72678183
_cell_angle_gamma   90.00000970
_symmetry_Int_Tables_number   1
_chemical_formula_structural   Ni4H29C38(NO3)5
_chemical_formula_sum   'Ni16 H116 C152 N20 O60'
_cell_volume   5143.18403946
_cell_formula_units_Z   4
loop_
 _symmetry_equiv_pos_site_id
 _symmetry_equiv_pos_as_xyz
  1  'x, y, z'
loop_
 _atom_site_type_symbol
 _atom_site_label
 _atom_site_symmetry_multiplicity
 _atom_site_fract_x
 _atom_site_fract_y
 _atom_site_fract_z
 _atom_site_occupancy
 _atom_site_pbe_bader_charge
 _atom_site_pbe_bader_spin_density
 _atom_site_pbe_cm5_charge
 _atom_site_pbe_ddec_charge
 _atom_site_pbe_ddec_spin_density
 _atom_site_pbe_ddec_sum_bond_order
 _atom_site_pbe_magmom
Ni  Ni0  1  0.79097952  0.72160928  0.11881281  1  1.219607  1.582254  0.640794  0.908828  1.78071  2.431421  1.569
Ni  Ni1  1  0.70902056  0.22160898  0.38118664  1  1.219602  1.582255  0.640794  0.908832  1.780711  2.431398  1.569
Ni  Ni2  1  0.20901872  0.27839017  0.88118627  1  1.219549  1.582252  0.640807  0.908866  1.780708  2.431349  1.569
Ni  Ni3  1  0.29098085  0.77839046  0.61881331  1  1.219598  1.582253  0.640822  0.908895  1.780708  2.431325  1.569
Ni  Ni4  1  0.98745971  0.76831099  0.21356395  1  1.214563  1.576259  0.630809  0.905311  1.77534  2.498308  1.562
Ni  Ni5  1  0.51254038  0.26831176  0.28643686  1  1.214604  1.576257  0.630793  0.905272  1.775334  2.498372  1.562
Ni  Ni6  1  0.01254012  0.23168792  0.78643579  1  1.214585  1.576258  0.630821  0.905305  1.775337  2.498284  1.562
Ni  Ni7  1  0.48745865  0.73168822  0.71356459  1  1.214934  1.576249  0.63081  0.905267  1.775338  2.498369  1.562
Ni  Ni8  1  0.97990712  0.61011906  0.23131242  1  1.200761  1.573646  0.626142  0.893408  1.769447  2.424588  1.56
Ni  Ni9  1  0.52009372  0.11011930  0.26868896  1  1.200755  1.573645  0.626123  0.893398  1.769449  2.424608  1.56
Ni  Ni10  1  0.02009191  0.38988039  0.76868812  1  1.200668  1.573645  0.626141  0.893384  1.769445  2.424687  1.56
Ni  Ni11  1  0.47990768  0.88988069  0.73131235  1  1.200687  1.573642  0.626145  0.893451  1.769444  2.424585  1.56
Ni  Ni12  1  0.12087254  0.63885600  0.13177468  1  1.191349  1.567895  0.651804  0.840102  1.762467  2.495482  1.551
Ni  Ni13  1  0.37912780  0.13885681  0.36822569  1  1.191361  1.567894  0.651811  0.840182  1.762466  2.495414  1.551
Ni  Ni14  1  0.87912728  0.36114290  0.86822551  1  1.191334  1.567896  0.651776  0.840084  1.762469  2.495512  1.551
Ni  Ni15  1  0.62087044  0.86114371  0.63177430  1  1.191344  1.567895  0.651799  0.840143  1.762472  2.495521  1.551
H  H16  1  0.85786967  0.95645863  0.29007678  1  0.110994  0.001245  0.112088  0.121522  0.00063  0.994568  0.001
H  H17  1  0.64213204  0.45645943  0.20992422  1  0.111035  0.001245  0.112082  0.121505  0.00063  0.994641  0.001
H  H18  1  0.14213094  0.04353974  0.70992215  1  0.111041  0.001245  0.112053  0.121476  0.00063  0.994662  0.001
H  H19  1  0.35786778  0.54353948  0.79007871  1  0.111069  0.001245  0.112092  0.121549  0.00063  0.994616  0.001
H  H20  1  0.74808305  0.05887344  0.31714560  1  0.096766  0.002192  0.12199  0.100196  0.00079  0.997074  0.001
H  H21  1  0.75191936  0.55887318  0.18285554  1  0.096899  0.002193  0.122002  0.100189  0.00079  0.997127  0.001
H  H22  1  0.25191836  0.94112493  0.68285389  1  0.097458  0.002193  0.121993  0.10015  0.00079  0.997102  0.001
H  H23  1  0.24807887  0.44112519  0.81714581  1  0.096833  0.002193  0.121987  0.100193  0.00079  0.997085  0.001
H  H24  1  0.49742024  0.00828265  0.17088167  1  0.110381  0.001974  0.120993  0.101313  0.000664  1.008411  0.002
H  H25  1  0.00258166  0.50828181  0.32911891  1  0.110348  0.001974  0.120993  0.101312  0.000664  1.008368  0.002
H  H26  1  0.50257879  0.99171679  0.82911842  1  0.110367  0.001974  0.120958  0.10127  0.000664  1.008546  0.002
H  H27  1  0.99741896  0.49171818  0.67088139  1  0.110364  0.001974  0.120995  0.10134  0.000664  1.008358  0.002
H  H28  1  0.59626636  0.90334379  0.13862913  1  0.080125  0.001084  0.10817  0.116404  0.000568  1.010567  0.0
H  H29  1  0.90373534  0.40334406  0.36137142  1  0.080375  0.001084  0.108157  0.116382  0.000568  1.0106  0.0
H  H30  1  0.40373346  0.09665512  0.86137060  1  0.080304  0.001084  0.108156  0.116351  0.000568  1.010547  0.0
H  H31  1  0.09626607  0.59665646  0.63862990  1  0.080144  0.001084  0.108165  0.116395  0.000568  1.01055  0.0
H  H32  1  0.29893078  0.65034359  0.24348812  1  0.115532  0.00311  0.119324  0.087257  0.001204  0.991852  0.002
H  H33  1  0.20107114  0.15034493  0.25651199  1  0.115507  0.00311  0.119309  0.087233  0.001204  0.991842  0.002
H  H34  1  0.70107062  0.34965693  0.75651228  1  0.115504  0.00311  0.119294  0.087219  0.001204  0.991854  0.002
H  H35  1  0.79892868  0.84965559  0.74348775  1  0.115511  0.00311  0.119316  0.087246  0.001204  0.991854  0.002
H  H36  1  0.46479729  0.71488042  0.07024780  1  0.102175  0.001404  0.111811  0.12469  0.000664  0.998547  0.001
H  H37  1  0.03520387  0.21487957  0.42975084  1  0.102221  0.001404  0.111837  0.124734  0.000664  0.998553  0.001
H  H38  1  0.53520016  0.28511956  0.92974934  1  0.102234  0.001404  0.111852  0.124783  0.000664  0.998489  0.001
H  H39  1  0.96479517  0.78512041  0.57024834  1  0.102201  0.001404  0.111827  0.124739  0.000664  0.998545  0.001
H  H40  1  0.49659748  0.66612472  0.26491682  1  0.149709  0.001277  0.109854  0.118197  0.000593  1.014966  0.001
H  H41  1  0.00340604  0.16612926  0.23508214  1  0.14949  0.001277  0.109828  0.118214  0.000593  1.014948  0.001
H  H42  1  0.50340552  0.33387526  0.73508151  1  0.149589  0.001277  0.109845  0.118207  0.000593  1.014961  0.001
H  H43  1  0.99659379  0.83387072  0.76491715  1  0.149508  0.001277  0.109843  0.118218  0.000593  1.014942  0.001
H  H44  1  0.21049389  0.79595666  0.37973421  1  0.120791  0.001141  0.10785  0.117155  0.000495  1.001983  0.001
H  H45  1  0.28950727  0.29595372  0.12026580  1  0.120837  0.001141  0.107875  0.117179  0.000495  1.001964  0.001
H  H46  1  0.78950593  0.20404333  0.62026599  1  0.120778  0.001141  0.107852  0.117146  0.000495  1.001973  0.001
H  H47  1  0.71049414  0.70404465  0.87973369  1  0.120807  0.001141  0.107859  0.117172  0.000495  1.001977  0.001
H  H48  1  0.31206561  0.81639648  0.48978157  1  0.089944  0.002177  0.114406  0.081259  0.00083  1.024531  0.001
H  H49  1  0.18793556  0.31639624  0.01021889  1  0.089966  0.002177  0.114394  0.081236  0.00083  1.024566  0.001
H  H50  1  0.68793500  0.18360296  0.51021827  1  0.089944  0.002177  0.114395  0.081266  0.00083  1.024538  0.001
H  H51  1  0.81206585  0.68360535  0.98978151  1  0.089991  0.002178  0.114439  0.081301  0.00083  1.024498  0.001
H  H52  1  0.12543541  0.67288309  0.56038480  1  0.128936  0.001668  0.117468  0.089099  0.000544  1.031328  0.001
H  H53  1  0.37456969  0.17288496  0.93961597  1  0.129024  0.001668  0.117473  0.089093  0.000544  1.031377  0.001
H  H54  1  0.87456520  0.32711635  0.43961641  1  0.12896  0.001668  0.117478  0.089084  0.000544  1.031401  0.001
H  H55  1  0.62543093  0.82711556  0.06038433  1  0.12903  0.001668  0.117468  0.089112  0.000544  1.031359  0.001
H  H56  1  0.02311617  0.63928785  0.45200050  1  0.09017  0.00121  0.112005  0.121402  0.000573  0.985989  0.0
H  H57  1  0.47688575  0.13928979  0.04799916  1  0.090013  0.00121  0.112014  0.121444  0.000572  0.98599  0.0
H  H58  1  0.97688206  0.36071159  0.54799994  1  0.090205  0.00121  0.112012  0.121443  0.000573  0.986022  0.0
H  H59  1  0.52311486  0.86071019  0.95200023  1  0.090017  0.00121  0.112004  0.121446  0.000573  0.986016  0.0
H  H60  1  0.17926915  0.41220214  0.31963741  1  0.090704  0.001275  0.112941  0.1221  0.000604  0.99048  0.001
H  H61  1  0.32073125  0.91220350  0.18036157  1  0.090655  0.001276  0.112964  0.122111  0.000604  0.990448  0.001
H  H62  1  0.82072988  0.58779730  0.68036086  1  0.090667  0.001275  0.112958  0.122103  0.000604  0.990465  0.001
H  H63  1  0.67926778  0.08779756  0.81963852  1  0.090637  0.001275  0.112936  0.122107  0.000604  0.990485  0.001
H  H64  1  0.31622898  0.31374686  0.34399125  1  0.099507  0.001854  0.117059  0.089859  0.000627  1.011388  0.001
H  H65  1  0.18377140  0.81374767  0.15600774  1  0.099492  0.001854  0.117047  0.089848  0.000627  1.011372  0.001
H  H66  1  0.68377085  0.68625366  0.65600804  1  0.099484  0.001854  0.117048  0.089837  0.000627  1.011381  0.001
H  H67  1  0.81622763  0.18625339  0.84399235  1  0.099459  0.001854  0.117038  0.08984  0.000627  1.011382  0.001
H  H68  1  0.46593202  0.38478126  0.20694250  1  0.155915  0.001606  0.123097  0.10361  0.000508  1.016822  0.001
H  H69  1  0.03406996  0.88477934  0.29305760  1  0.155974  0.001606  0.123098  0.10359  0.000508  1.016849  0.001
H  H70  1  0.53407177  0.61521980  0.79305867  1  0.155991  0.001606  0.123106  0.103619  0.000507  1.016843  0.001
H  H71  1  0.96592907  0.11522010  0.70694249  1  0.156019  0.001606  0.123113  0.103651  0.000507  1.016819  0.001
H  H72  1  0.33820630  0.48656788  0.17865883  1  0.095701  0.000792  0.106884  0.114226  0.000419  1.026864  0.0
H  H73  1  0.16179490  0.98656597  0.32134162  1  0.095749  0.000792  0.106901  0.11428  0.000419  1.026815  0.0
H  H74  1  0.66179748  0.51343318  0.82134189  1  0.095576  0.000792  0.106882  0.114255  0.000419  1.026822  0.0
H  H75  1  0.83820333  0.01343347  0.67865882  1  0.095601  0.000792  0.106882  0.11424  0.000419  1.026835  0.0
H  H76  1  0.73245133  0.55919152  0.98767601  1  0.117828  0.001002  0.114343  0.127756  0.000486  0.993965  0.0
H  H77  1  0.76754870  0.05919129  0.51232414  1  0.117663  0.001003  0.11434  0.127776  0.000486  0.993965  0.0
H  H78  1  0.26754928  0.44080900  0.01232384  1  0.117743  0.001002  0.114341  0.127757  0.000486  0.993981  0.0
H  H79  1  0.23245112  0.94080816  0.48767560  1  0.117729  0.001002  0.114352  0.127767  0.000486  0.993948  0.0
H  H80  1  0.73175542  0.46789695  0.90307142  1  0.114511  0.001775  0.116759  0.08688  0.000568  1.030302  0.001
H  H81  1  0.76824391  0.96789671  0.59692951  1  0.1145  0.001775  0.116778  0.086887  0.000568  1.030311  0.001
H  H82  1  0.26824441  0.53210357  0.09692878  1  0.114505  0.001775  0.116713  0.086797  0.000568  1.030312  0.001
H  H83  1  0.23175512  0.03210327  0.40307058  1  0.114524  0.001775  0.116803  0.086909  0.000568  1.030308  0.001
H  H84  1  0.99441970  0.36463351  0.00706094  1  0.096696  0.001982  0.117696  0.090639  0.000778  1.00341  0.001
H  H85  1  0.50558041  0.86463264  0.49293986  1  0.096676  0.001982  0.117719  0.090647  0.000778  1.003419  0.001
H  H86  1  0.00557933  0.63536647  0.99293961  1  0.096674  0.001982  0.117704  0.090622  0.000778  1.003444  0.001
H  H87  1  0.49441862  0.13536734  0.50706023  1  0.096716  0.001982  0.117701  0.090644  0.000778  1.003423  0.001
H  H88  1  0.00906417  0.45365675  0.09561113  1  0.10588  0.001093  0.115864  0.132535  0.000428  0.981306  0.001
H  H89  1  0.49093703  0.95365541  0.40438932  1  0.106382  0.001093  0.115874  0.132538  0.000428  0.981299  0.001
H  H90  1  0.99093565  0.54634431  0.90438906  1  0.106364  0.001093  0.115867  0.132506  0.000428  0.981338  0.001
H  H91  1  0.50906280  0.04634511  0.59561088  1  0.106379  0.001093  0.115874  0.132533  0.000428  0.981301  0.001
H  H92  1  0.81704534  0.69525166  0.22924399  1  0.628796  0.000541  0.285122  0.381851  0.001342  0.948843  0.001
H  H93  1  0.68295393  0.19525245  0.27075535  1  0.628794  0.000541  0.285108  0.381847  0.001343  0.948847  0.001
H  H94  1  0.18295369  0.30474833  0.77075473  1  0.628795  0.000541  0.285115  0.381849  0.001343  0.948839  0.001
H  H95  1  0.31704509  0.80474753  0.72924519  1  0.62878  0.000541  0.285099  0.381828  0.001343  0.948869  0.001
H  H96  1  0.14674087  0.68683882  0.24312700  1  0.578619  0.001582  0.299739  0.367178  0.001689  0.932127  0.001
H  H97  1  0.35326027  0.18683857  0.25687347  1  0.578573  0.001582  0.299716  0.367138  0.001689  0.932099  0.001
H  H98  1  0.85325975  0.31316116  0.75687376  1  0.578809  0.001582  0.299735  0.367189  0.001689  0.93215  0.001
H  H99  1  0.64674034  0.81316088  0.74312637  1  0.578636  0.001582  0.299698  0.367094  0.001689  0.932192  0.001
H  H100  1  0.85445169  0.88098069  0.05133521  1  0.071478  8.7e-05  0.10604  0.109688  -4.4e-05  1.00683  0.0
H  H101  1  0.64555080  0.38098145  0.44866636  1  0.071489  8.7e-05  0.10603  0.109631  -4.4e-05  1.006756  0.0
H  H102  1  0.14555051  0.11901876  0.94866484  1  0.071471  8.7e-05  0.106023  0.109644  -4.4e-05  1.006796  0.0
H  H103  1  0.35444982  0.61901799  0.55133439  1  0.071486  8.7e-05  0.106058  0.109705  -4.4e-05  1.006758  0.0
H  H104  1  0.10734390  0.77976781  0.98539804  1  0.089088  0.000279  0.100449  0.101965  0.000131  1.0098  0.0
H  H105  1  0.39265567  0.27976760  0.51460199  1  0.08909  0.000279  0.100449  0.10199  0.000131  1.009789  0.0
H  H106  1  0.89265593  0.22023271  0.01460215  1  0.08908  0.000279  0.100471  0.102007  0.000131  1.009789  0.0
H  H107  1  0.60734494  0.72023185  0.48539877  1  0.089089  0.000279  0.100439  0.101964  0.000131  1.009811  0.0
H  H108  1  0.09598116  0.87240052  0.90327947  1  0.060717  0.000139  0.104242  0.117372  4.8e-05  1.016752  0.0
H  H109  1  0.40401684  0.37240137  0.59672034  1  0.060653  0.000139  0.104247  0.117375  4.8e-05  1.016734  0.0
H  H110  1  0.90401549  0.12759892  0.09672030  1  0.060695  0.000139  0.10425  0.117375  4.8e-05  1.016634  0.0
H  H111  1  0.59598377  0.62759969  0.40327950  1  0.060704  0.00014  0.104258  0.117393  4.8e-05  1.016666  0.0
H  H112  1  0.83961945  0.97465134  0.96741610  1  0.070286  0.000186  0.106856  0.121069  6.6e-05  0.988271  0.0
H  H113  1  0.66038146  0.47465217  0.53258503  1  0.070256  0.000186  0.106828  0.121009  6.6e-05  0.988335  0.0
H  H114  1  0.16037878  0.02534757  0.03258435  1  0.07031  0.000186  0.106825  0.120986  6.6e-05  0.988349  0.0
H  H115  1  0.33961915  0.52534889  0.46741481  1  0.070282  0.000186  0.106849  0.121041  6.6e-05  0.988313  0.0
H  H116  1  0.26597423  0.70535484  0.05737153  1  0.100337  0.002592  0.12055  0.092752  0.000941  0.991961  0.002
H  H117  1  0.23402612  0.20535293  0.44262837  1  0.100338  0.002592  0.120547  0.092745  0.000942  0.991992  0.002
H  H118  1  0.73402242  0.29464514  0.94262642  1  0.100376  0.002591  0.120557  0.092737  0.000941  0.992038  0.002
H  H119  1  0.76597370  0.79464705  0.55737182  1  0.100335  0.002592  0.120541  0.092727  0.000942  0.99199  0.002
H  H120  1  0.11572315  0.99357068  0.88379293  1  0.069164  5.3e-05  0.097883  0.095864  5e-06  0.995948  0.0
H  H121  1  0.38427567  0.49357098  0.61620653  1  0.069126  5.3e-05  0.097902  0.095932  5e-06  0.995961  0.0
H  H122  1  0.88427349  0.00642984  0.11620776  1  0.069114  5.3e-05  0.097889  0.095915  5e-06  0.995944  0.0
H  H123  1  0.61572494  0.50642900  0.38379377  1  0.069118  5.3e-05  0.09791  0.095926  5e-06  0.995937  0.0
H  H124  1  0.02017644  0.04146960  0.82681576  1  0.117637  -6.8e-05  0.105103  0.119097  -0.000134  1.021331  0.0
H  H125  1  0.47982070  0.54146991  0.67318398  1  0.117687  -6.8e-05  0.105089  0.119089  -0.000134  1.021352  0.0
H  H126  1  0.97982021  0.95853092  0.17318448  1  0.117702  -6.8e-05  0.105114  0.119104  -0.000134  1.021362  0.0
H  H127  1  0.52017912  0.45853007  0.32681622  1  0.117686  -6.8e-05  0.105089  0.119079  -0.000134  1.021356  0.0
H  H128  1  0.03371552  0.94604770  0.81971915  1  0.056688  0.000112  0.094729  0.091083  5.8e-05  1.012273  0.0
H  H129  1  0.46628171  0.44604746  0.68028010  1  0.0567  0.000112  0.094725  0.091077  5.8e-05  1.012269  0.0
H  H130  1  0.96628193  0.05395336  0.18028027  1  0.056677  0.000112  0.094723  0.091059  5.8e-05  1.012305  0.0
H  H131  1  0.53371890  0.55395198  0.31971974  1  0.056705  0.000112  0.094717  0.091053  5.8e-05  1.012299  0.0
C  C132  1  0.79393249  0.85801571  0.19465460  1  1.599115  -0.00346  0.218247  0.579505  -0.004207  4.177822  -0.004
C  C133  1  0.70606683  0.35801597  0.30534428  1  1.599107  -0.00346  0.218317  0.579529  -0.004207  4.177643  -0.004
C  C134  1  0.20606259  0.14198266  0.80534042  1  1.599111  -0.00346  0.218397  0.579559  -0.004207  4.177404  -0.004
C  C135  1  0.29393616  0.64198240  0.69465998  1  1.599148  -0.00346  0.218396  0.579573  -0.004206  4.177538  -0.004
C  C136  1  0.73457502  0.92173770  0.21224400  1  -0.046399  0.004186  0.002453  0.015967  0.000833  3.946711  0.005
C  C137  1  0.76542589  0.42173850  0.28775736  1  -0.046402  0.004186  0.002401  0.015957  0.000833  3.946707  0.005
C  C138  1  0.26542480  0.07826067  0.78775574  1  -0.046457  0.004186  0.002401  0.015972  0.000833  3.946635  0.005
C  C139  1  0.23457393  0.57826148  0.71224466  1  -0.046514  0.004185  0.0024  0.016004  0.000832  3.946729  0.005
C  C140  1  0.77803400  0.96643544  0.26275305  1  -0.008545  0.005628  -0.078273  -0.140065  0.003036  3.939326  0.005
C  C141  1  0.72196692  0.46643571  0.23724831  1  -0.008179  0.005628  -0.078258  -0.139997  0.003036  3.939327  0.005
C  C142  1  0.22196583  0.03356401  0.73724487  1  -0.008594  0.005629  -0.078187  -0.140023  0.003036  3.939251  0.005
C  C143  1  0.27803290  0.53356266  0.76275416  1  -0.008573  0.005628  -0.078243  -0.140162  0.003036  3.939426  0.005
C  C144  1  0.71748280  0.02274931  0.27814438  1  0.506137  -0.005417  0.049123  0.091083  -0.006362  3.923747  -0.003
C  C145  1  0.78251960  0.52274851  0.22185722  1  0.505721  -0.005417  0.049163  0.091069  -0.006362  3.92386  -0.003
C  C146  1  0.28251861  0.97724960  0.72185557  1  0.505346  -0.005416  0.049109  0.091167  -0.006361  3.923887  -0.003
C  C147  1  0.21747942  0.47724986  0.77814424  1  0.506003  -0.005416  0.049106  0.091068  -0.006361  3.923835  -0.003
C  C148  1  0.57726855  0.99450712  0.19581204  1  0.464843  -0.005886  0.045623  0.09455  -0.007026  3.937064  -0.004
C  C149  1  0.92273317  0.49450633  0.30418896  1  0.46481  -0.005886  0.045601  0.094529  -0.007026  3.937104  -0.004
C  C150  1  0.42273206  0.00549340  0.80418780  1  0.464858  -0.005887  0.045672  0.094631  -0.007027  3.937158  -0.004
C  C151  1  0.07726745  0.50549312  0.69581225  1  0.46483  -0.005887  0.045641  0.094485  -0.007027  3.937054  -0.004
C  C152  1  0.63236995  0.93706918  0.17815824  1  0.009907  0.005218  -0.083173  -0.150848  0.002815  3.974351  0.004
C  C153  1  0.86763096  0.43706999  0.32184312  1  0.009601  0.005218  -0.083151  -0.150847  0.002815  3.974513  0.004
C  C154  1  0.36762828  0.06293026  0.82184129  1  0.009804  0.005218  -0.083165  -0.150813  0.002814  3.974347  0.004
C  C155  1  0.13236965  0.56293053  0.67815901  1  0.009956  0.005219  -0.083167  -0.150821  0.002815  3.974377  0.004
C  C156  1  0.33796146  0.66692985  0.20649969  1  0.35534  -0.003052  0.043711  0.088179  -0.004206  3.961808  -0.002
C  C157  1  0.16204206  0.16693010  0.29350017  1  0.355344  -0.003052  0.043758  0.088282  -0.004207  3.961707  -0.002
C  C158  1  0.66203995  0.33307175  0.79349980  1  0.355331  -0.003052  0.043766  0.088272  -0.004206  3.961681  -0.002
C  C159  1  0.83795856  0.83307042  0.70649967  1  0.355361  -0.003052  0.043728  0.0882  -0.004207  3.961687  -0.002
C  C160  1  0.49574134  0.68970335  0.16865292  1  -0.068944  0.001813  0.00819  0.035169  -0.000994  3.910213  0.002
C  C161  1  0.00425980  0.18970304  0.33134572  1  -0.068942  0.001814  0.008192  0.03521  -0.000994  3.91025  0.002
C  C162  1  0.50425928  0.31029556  0.83134464  1  -0.068994  0.001814  0.008169  0.035266  -0.000994  3.91033  0.002
C  C163  1  0.99573923  0.81029533  0.66865391  1  -0.068932  0.001814  0.008165  0.035109  -0.000993  3.910321  0.002
C  C164  1  0.42976392  0.70232523  0.10982591  1  0.01419  0.006531  -0.079375  -0.143002  0.003775  3.939222  0.005
C  C165  1  0.07023644  0.20232492  0.39017309  1  0.014186  0.006531  -0.079384  -0.143021  0.003776  3.939233  0.005
C  C166  1  0.57023274  0.29767421  0.89017205  1  0.014324  0.006532  -0.079381  -0.143151  0.003776  3.939212  0.005
C  C167  1  0.92976418  0.79767506  0.60982630  1  0.014208  0.006532  -0.079392  -0.143078  0.003776  3.939283  0.005
C  C168  1  0.61575019  0.69088928  0.17820566  1  1.647806  -0.000537  0.198689  0.555602  -0.001015  4.239925  -0.001
C  C169  1  0.88425146  0.19089009  0.32179399  1  1.64799  -0.000538  0.198671  0.55558  -0.001015  4.239729  -0.001
C  C170  1  0.38424964  0.30911016  0.82179225  1  1.647983  -0.000537  0.198685  0.555571  -0.001015  4.239884  -0.001
C  C171  1  0.11574836  0.80910935  0.67820529  1  1.647808  -0.000538  0.198667  0.55569  -0.001016  4.239764  -0.001
C  C172  1  0.44751847  0.67409918  0.21821323  1  0.008258  0.007959  -0.079285  -0.149522  0.00444  3.958293  0.006
C  C173  1  0.05248346  0.17410211  0.28178552  1  0.008494  0.007959  -0.079314  -0.149648  0.00444  3.958252  0.006
C  C174  1  0.55248215  0.32590134  0.78178479  1  0.008325  0.007959  -0.079295  -0.149596  0.004441  3.958157  0.006
C  C175  1  0.94751716  0.82589787  0.71821386  1  0.008442  0.007958  -0.079273  -0.149525  0.00444  3.958217  0.006
C  C176  1  0.04744108  0.70389136  0.34170173  1  1.606867  -0.001991  0.212858  0.573843  -0.002593  4.190376  -0.003
C  C177  1  0.45256007  0.20389059  0.15829873  1  1.606853  -0.001991  0.212924  0.573988  -0.002593  4.190158  -0.003
C  C178  1  0.95255875  0.29610808  0.65829846  1  1.606857  -0.001991  0.212841  0.573835  -0.002593  4.190248  -0.003
C  C179  1  0.54744134  0.79610939  0.84170076  1  1.606767  -0.001991  0.21291  0.573975  -0.002594  4.19024  -0.003
C  C180  1  0.10828182  0.71614698  0.40759432  1  -0.038446  0.007669  0.006601  0.032864  0.003287  3.948649  0.007
C  C181  1  0.39171932  0.21614675  0.09240752  1  -0.03844  0.007667  0.006575  0.032665  0.003285  3.948707  0.007
C  C182  1  0.89171641  0.28385354  0.59240658  1  -0.038435  0.007669  0.006619  0.032788  0.003287  3.948725  0.007
C  C183  1  0.60828129  0.78385538  0.90759278  1  -0.038468  0.007668  0.006626  0.032804  0.003286  3.94852  0.007
C  C184  1  0.19087959  0.76638656  0.41856586  1  -0.042654  0.006784  -0.083248  -0.151311  0.003813  3.957185  0.005
C  C185  1  0.30912157  0.26638471  0.08143414  1  -0.042331  0.006784  -0.083194  -0.151173  0.003814  3.957456  0.005
C  C186  1  0.80912023  0.23361396  0.58143479  1  -0.042672  0.006784  -0.08319  -0.151166  0.003813  3.957173  0.005
C  C187  1  0.69087984  0.73361527  0.91856626  1  -0.042558  0.006785  -0.083247  -0.1513  0.003814  3.957247  0.005
C  C188  1  0.24653414  0.77835766  0.47937858  1  0.472258  -0.001662  0.04385  0.087749  -0.002548  3.965745  -0.001
C  C189  1  0.25346861  0.27835581  0.02062254  1  0.471998  -0.001662  0.043782  0.087687  -0.002549  3.965922  -0.001
C  C190  1  0.75346568  0.22164232  0.52062161  1  0.472315  -0.001662  0.043818  0.087695  -0.002549  3.965713  -0.001
C  C191  1  0.74653280  0.72164309  0.97937831  1  0.472229  -0.001662  0.043823  0.087757  -0.002548  3.965872  -0.001
C  C192  1  0.14190455  0.69761000  0.51855146  1  0.448084  -0.004413  0.047372  0.090589  -0.005535  3.944109  -0.003
C  C193  1  0.35809976  0.19761078  0.98144783  1  0.44797  -0.004413  0.047389  0.090647  -0.005536  3.94414  -0.003
C  C194  1  0.85809606  0.30238945  0.48144838  1  0.448046  -0.004413  0.047411  0.090714  -0.005535  3.94436  -0.003
C  C195  1  0.64190165  0.80238974  0.01855166  1  0.447994  -0.004413  0.047435  0.090658  -0.005536  3.94409  -0.003
C  C196  1  0.08549768  0.67985988  0.45881030  1  0.01175  0.007241  -0.081781  -0.155459  0.003963  3.959997  0.005
C  C197  1  0.41450584  0.17986127  0.04118957  1  0.011864  0.007242  -0.081837  -0.155541  0.003963  3.959945  0.005
C  C198  1  0.91450214  0.32013849  0.54118944  1  0.011743  0.007241  -0.081894  -0.155639  0.003962  3.960184  0.005
C  C199  1  0.58549557  0.82013979  0.95881038  1  0.011879  0.007241  -0.081843  -0.155567  0.003962  3.960017  0.005
C  C200  1  0.17101629  0.51807846  0.22655143  1  1.590534  -0.001871  0.214196  0.575195  -0.002208  4.183884  -0.002
C  C201  1  0.32898402  0.01807820  0.27344849  1  1.590437  -0.00187  0.214267  0.575328  -0.002208  4.183738  -0.002
C  C202  1  0.82898433  0.48192206  0.77344750  1  1.590546  -0.001871  0.214331  0.575395  -0.002208  4.18361  -0.002
C  C203  1  0.67101500  0.98192232  0.72655251  1  1.590532  -0.001871  0.214344  0.575424  -0.002208  4.183657  -0.002
C  C204  1  0.24759030  0.45677726  0.24623109  1  -0.013544  0.003915  0.000605  0.015533  0.000738  3.940096  0.004
C  C205  1  0.25241011  0.95677699  0.25376834  1  -0.013553  0.003914  0.000589  0.015478  0.000738  3.940057  0.004
C  C206  1  0.75241110  0.54322379  0.75376885  1  -0.013534  0.003914  0.000586  0.015522  0.000737  3.940048  0.004
C  C207  1  0.74758734  0.04322406  0.74623063  1  -0.01369  0.003914  0.000599  0.01554  0.000737  3.940048  0.004
C  C208  1  0.24175760  0.40772414  0.29365704  1  -0.014052  0.006097  -0.076282  -0.137677  0.003287  3.937813  0.005
C  C209  1  0.25824121  0.90772334  0.20634310  1  -0.014457  0.006097  -0.076343  -0.137728  0.003287  3.93789  0.005
C  C210  1  0.75824143  0.59227691  0.70634214  1  -0.014152  0.006097  -0.076344  -0.137753  0.003287  3.937872  0.005
C  C211  1  0.74175702  0.09227664  0.79365780  1  -0.014474  0.006097  -0.076297  -0.137721  0.003287  3.937823  0.005
C  C212  1  0.31756826  0.35312865  0.30731675  1  0.46178  -0.00449  0.047903  0.091716  -0.005305  3.919523  -0.003
C  C213  1  0.18243292  0.85312892  0.19268234  1  0.462169  -0.004489  0.047917  0.091733  -0.005304  3.919587  -0.003
C  C214  1  0.68243315  0.64687079  0.69268274  1  0.46183  -0.004488  0.047929  0.091781  -0.005304  3.919587  -0.003
C  C215  1  0.81756690  0.14687052  0.80731877  1  0.462265  -0.004489  0.047895  0.091692  -0.005304  3.919551  -0.003
C  C216  1  0.40141665  0.39283638  0.23059851  1  0.410442  -0.005819  0.041256  0.082536  -0.007046  3.972271  -0.004
C  C217  1  0.09858534  0.89283556  0.26940114  1  0.409869  -0.005819  0.041175  0.082417  -0.007046  3.972184  -0.004
C  C218  1  0.59858714  0.60716414  0.76940266  1  0.409866  -0.005819  0.041155  0.082349  -0.007047  3.972229  -0.004
C  C219  1  0.90141369  0.10716389  0.73059850  1  0.409872  -0.005819  0.041139  0.082287  -0.007047  3.972208  -0.004
C  C220  1  0.33003957  0.44858929  0.21491456  1  0.019043  0.004445  -0.085811  -0.15001  0.002387  3.977834  0.004
C  C221  1  0.16996322  0.94858793  0.28508700  1  0.018988  0.004445  -0.085724  -0.149902  0.002387  3.977715  0.004
C  C222  1  0.66996501  0.55141177  0.78508717  1  0.019156  0.004445  -0.08567  -0.149879  0.002386  3.977791  0.004
C  C223  1  0.83003502  0.05141205  0.71491389  1  0.019186  0.004445  -0.085695  -0.149893  0.002386  3.9778  0.004
C  C224  1  0.88603585  0.57640657  0.09294528  1  1.570427  0.009004  0.220859  0.570097  0.007282  4.174036  0.007
C  C225  1  0.61396420  0.07640411  0.40705372  1  1.570429  0.009002  0.220875  0.570207  0.00728  4.173978  0.007
C  C226  1  0.11396398  0.42359556  0.90705355  1  1.570401  0.009002  0.220876  0.570224  0.00728  4.173935  0.007
C  C227  1  0.38603642  0.92359641  0.59294657  1  1.570372  0.009002  0.220848  0.570138  0.00728  4.174116  0.007
C  C228  1  0.87364485  0.51488002  0.04715388  1  -0.012771  0.004751  0.001065  0.0092  0.001682  3.946635  0.004
C  C229  1  0.62635597  0.01487863  0.45284615  1  -0.012852  0.00475  0.001069  0.009254  0.001682  3.946582  0.004
C  C230  1  0.12635656  0.48512104  0.95284607  1  -0.012832  0.00475  0.001054  0.009165  0.001682  3.946642  0.004
C  C231  1  0.37364306  0.98512135  0.54715303  1  -0.012773  0.00475  0.000998  0.009094  0.001682  3.946688  0.004
C  C232  1  0.79213118  0.51692640  0.99328054  1  -0.059348  0.006205  -0.078886  -0.144069  0.003306  3.945127  0.004
C  C233  1  0.70786725  0.01692670  0.50672032  1  -0.059125  0.006204  -0.078901  -0.144182  0.003306  3.945108  0.004
C  C234  1  0.20786864  0.48307412  0.00671966  1  -0.059223  0.006204  -0.078885  -0.144083  0.003306  3.945117  0.004
C  C235  1  0.29213178  0.98307328  0.49327932  1  -0.059226  0.006204  -0.078929  -0.14412  0.003306  3.945163  0.004
C  C236  1  0.79116429  0.46646148  0.94662214  1  0.486077  -0.004451  0.043809  0.087899  -0.005543  3.958528  -0.003
C  C237  1  0.70883583  0.96646123  0.55337889  1  0.486068  -0.004451  0.043803  0.088015  -0.005543  3.958414  -0.003
C  C238  1  0.20883632  0.53353904  0.05337815  1  0.486072  -0.004451  0.043882  0.0881  -0.005543  3.958359  -0.003
C  C239  1  0.29116479  0.03353875  0.44662141  1  0.486053  -0.004451  0.043787  0.087949  -0.005543  3.958472  -0.003
C  C240  1  0.93875596  0.40912203  0.00474884  1  0.475728  -0.001458  0.044199  0.082933  -0.002081  3.943851  -0.001
C  C241  1  0.56124415  0.90912117  0.49525196  1  0.475739  -0.001458  0.044198  0.082972  -0.002081  3.943855  -0.001
C  C242  1  0.06124386  0.59087902  0.99525135  1  0.475733  -0.001458  0.044219  0.082977  -0.002081  3.943877  -0.001
C  C243  1  0.43875567  0.09087935  0.50474823  1  0.475683  -0.001458  0.044198  0.082903  -0.002081  3.943828  -0.001
C  C244  1  0.94569646  0.45777016  0.05381072  1  -0.025351  0.006567  -0.075612  -0.134591  0.003679  3.929944  0.005
C  C245  1  0.55430366  0.95776876  0.44618962  1  -0.025775  0.006567  -0.07566  -0.134654  0.003679  3.92994  0.005
C  C246  1  0.05430336  0.54223090  0.94618902  1  -0.025755  0.006567  -0.075623  -0.134569  0.003679  3.929944  0.005
C  C247  1  0.44569616  0.04223176  0.55381057  1  -0.025752  0.006566  -0.075585  -0.134526  0.003679  3.929777  0.005
C  C248  1  0.99558284  0.77021009  0.07478082  1  1.490329  0.015694  0.215996  0.588346  0.012105  4.16436  0.013
C  C249  1  0.50441883  0.27021084  0.42522019  1  1.490448  0.015694  0.216005  0.588385  0.012105  4.164387  0.013
C  C250  1  0.00441777  0.22978935  0.92521947  1  1.490434  0.015694  0.21599  0.588357  0.012105  4.164366  0.013
C  C251  1  0.49558099  0.72979021  0.57478046  1  1.490321  0.015694  0.216039  0.588365  0.012105  4.164249  0.013
C  C252  1  0.98245604  0.82451838  0.02397929  1  -0.04339  0.009228  -0.039212  -0.086089  0.005583  4.016952  0.007
C  C253  1  0.51754565  0.32451806  0.47602127  1  -0.043423  0.009228  -0.03926  -0.08628  0.005583  4.017123  0.007
C  C254  1  0.01754299  0.17548214  0.97602034  1  -0.043386  0.009228  -0.039202  -0.086063  0.005582  4.016811  0.007
C  C255  1  0.48245576  0.67548193  0.52397959  1  -0.043397  0.009228  -0.039141  -0.085989  0.005583  4.016892  0.007
C  C256  1  0.90616637  0.87957426  0.01826617  1  -0.019726  0.003166  -0.082249  -0.058809  0.001749  3.980329  0.002
C  C257  1  0.59383373  0.37957394  0.48173463  1  -0.019694  0.003167  -0.082191  -0.058617  0.001749  3.98022  0.002
C  C258  1  0.09383345  0.12042626  0.98173357  1  -0.019527  0.003167  -0.082244  -0.058769  0.00175  3.980128  0.002
C  C259  1  0.40616688  0.62042658  0.51826567  1  -0.019688  0.003167  -0.08227  -0.058823  0.001749  3.980282  0.002
C  C260  1  0.04890121  0.82269769  0.98140735  1  -0.006398  0.003748  -0.089777  -0.067417  0.002029  4.018453  0.002
C  C261  1  0.45109916  0.32269802  0.51859370  1  -0.006339  0.003748  -0.089769  -0.067431  0.00203  4.01839  0.002
C  C262  1  0.95109861  0.17730229  0.01859376  1  -0.006389  0.003748  -0.089787  -0.067523  0.002029  4.018465  0.002
C  C263  1  0.54890225  0.67730143  0.48140716  1  -0.006378  0.003748  -0.089778  -0.067441  0.002029  4.018401  0.002
C  C264  1  0.96679968  0.92996813  0.93054630  1  0.429715  0.002725  0.087698  0.267055  0.001509  4.060486  0.002
C  C265  1  0.53320123  0.42996894  0.56945438  1  0.429688  0.002725  0.087764  0.267123  0.001509  4.060498  0.002
C  C266  1  0.03319777  0.07003024  0.06945268  1  0.429678  0.002725  0.087757  0.26704  0.001509  4.060615  0.002
C  C267  1  0.46679939  0.57003158  0.43054591  1  0.429918  0.002725  0.087677  0.266957  0.001509  4.060506  0.002
C  C268  1  0.04236828  0.87478903  0.93516300  1  -0.019678  0.000434  -0.118188  -0.240182  0.000185  4.028577  0.0
C  C269  1  0.45763211  0.37479043  0.56483712  1  -0.019615  0.000434  -0.118225  -0.240208  0.000185  4.028519  0.0
C  C270  1  0.95762996  0.12520933  0.06483607  1  -0.019673  0.000434  -0.118252  -0.240193  0.000185  4.028529  0.0
C  C271  1  0.54236771  0.62521063  0.43516307  1  -0.019826  0.000434  -0.118225  -0.240205  0.000185  4.028436  0.0
C  C272  1  0.89757706  0.93130572  0.97188548  1  0.025179  -0.000413  -0.101708  -0.202027  -0.000585  3.985474  0.0
C  C273  1  0.60242385  0.43130708  0.52811566  1  0.025134  -0.000413  -0.101683  -0.201969  -0.000585  3.985511  0.0
C  C274  1  0.10242118  0.06869265  0.02811496  1  0.025014  -0.000413  -0.101661  -0.201904  -0.000585  3.985478  0.0
C  C275  1  0.39757597  0.56869344  0.47188454  1  0.025091  -0.000413  -0.1017  -0.201993  -0.000585  3.985494  0.0
C  C276  1  0.32040065  0.69645047  0.10232901  1  0.438695  -0.002845  0.042201  0.075793  -0.003981  3.961  -0.002
C  C277  1  0.17960129  0.19645017  0.39767065  1  0.438779  -0.002846  0.0422  0.075771  -0.003981  3.961005  -0.002
C  C278  1  0.67959917  0.30355166  0.89767164  1  0.438568  -0.002846  0.042175  0.075822  -0.003982  3.960782  -0.002
C  C279  1  0.82039853  0.80354874  0.60232954  1  0.438716  -0.002845  0.04223  0.075846  -0.003981  3.960953  -0.002
C  C280  1  0.03643352  0.99103533  0.85265656  1  0.321024  -4.8e-05  -0.13948  -0.174437  -8.8e-05  3.906736  0.0
C  C281  1  0.46356292  0.49103617  0.64734304  1  0.32098  -4.8e-05  -0.13948  -0.174481  -8.8e-05  3.906746  0.0
C  C282  1  0.96356233  0.00896466  0.14734358  1  0.320976  -4.8e-05  -0.139485  -0.174476  -8.8e-05  3.906786  0.0
C  C283  1  0.53643690  0.50896381  0.35265670  1  0.320968  -4.8e-05  -0.139476  -0.174446  -8.8e-05  3.906721  0.0
N  N284  1  0.61810029  0.03607736  0.24574474  1  -1.213822  0.065535  -0.328637  -0.223701  0.0376  3.586105  0.059
N  N285  1  0.88190053  0.53607764  0.25425574  1  -1.213837  0.065533  -0.32866  -0.223687  0.037599  3.586125  0.058
N  N286  1  0.38189873  0.96392101  0.75425535  1  -1.2138  0.065535  -0.328662  -0.223802  0.037601  3.586288  0.059
N  N287  1  0.11809850  0.46392180  0.74574481  1  -1.213836  0.065535  -0.328633  -0.223628  0.0376  3.586164  0.059
N  N288  1  0.22129115  0.74606021  0.52904900  1  -1.211  0.062764  -0.322198  -0.221797  0.035841  3.560153  0.055
N  N289  1  0.27871159  0.24606099  0.97095099  1  -1.210978  0.062764  -0.322158  -0.221774  0.035841  3.560048  0.055
N  N290  1  0.77870947  0.25393924  0.47095130  1  -1.211046  0.062764  -0.322161  -0.221791  0.035841  3.560216  0.055
N  N291  1  0.72129062  0.75393900  0.02904814  1  -1.211046  0.062765  -0.322242  -0.221896  0.035842  3.560298  0.055
N  N292  1  0.39610377  0.34541666  0.27637449  1  -1.218276  0.060428  -0.329374  -0.2367  0.03486  3.569406  0.054
N  N293  1  0.10389820  0.84541531  0.22362471  1  -1.217684  0.060427  -0.329354  -0.23666  0.03486  3.569252  0.054
N  N294  1  0.60389763  0.65458493  0.72362592  1  -1.217643  0.060425  -0.329368  -0.236657  0.034859  3.569257  0.054
N  N295  1  0.89610163  0.15458468  0.77637503  1  -1.217641  0.060426  -0.329332  -0.236573  0.03486  3.569171  0.054
N  N296  1  0.86542360  0.41475093  0.95072306  1  -1.210406  0.064423  -0.320233  -0.235068  0.036839  3.563495  0.057
N  N297  1  0.63457571  0.91475067  0.54927787  1  -1.210464  0.064424  -0.320235  -0.235171  0.03684  3.563531  0.057
N  N298  1  0.13457543  0.58524959  0.04927703  1  -1.21043  0.064423  -0.320273  -0.235194  0.036839  3.563508  0.057
N  N299  1  0.36542411  0.08524985  0.45072233  1  -1.210472  0.064422  -0.32024  -0.2351  0.036838  3.563522  0.057
N  N300  1  0.27477945  0.67686955  0.14942410  1  -1.199925  0.09109  -0.326354  -0.234835  0.051314  3.603819  0.08
N  N301  1  0.22522169  0.17686927  0.35057637  1  -1.200078  0.091093  -0.326399  -0.234904  0.051316  3.603821  0.08
N  N302  1  0.72521958  0.32313150  0.85057554  1  -1.199864  0.091096  -0.326393  -0.234896  0.051317  3.603766  0.08
N  N303  1  0.77477734  0.82313125  0.64942326  1  -1.199985  0.091093  -0.326387  -0.234863  0.051316  3.603771  0.08
O  O304  1  0.67118045  0.69465627  0.23280811  1  -1.173397  0.004711  -0.329914  -0.544497  0.001658  2.0771  0.004
O  O305  1  0.82882042  0.19465816  0.26719099  1  -1.173413  0.00471  -0.329896  -0.544514  0.001658  2.076923  0.004
O  O306  1  0.32881938  0.30534533  0.76718844  1  -1.173493  0.004711  -0.329947  -0.544571  0.001659  2.077028  0.004
O  O307  1  0.17117862  0.80534236  0.73280819  1  -1.173371  0.00471  -0.329896  -0.544562  0.001658  2.077018  0.004
O  O308  1  0.64705239  0.68649680  0.12666697  1  -1.118233  0.087866  -0.320715  -0.553512  0.047655  2.352242  0.08
O  O309  1  0.85294926  0.18649814  0.37333223  1  -1.118361  0.087864  -0.320674  -0.553424  0.047653  2.352171  0.08
O  O310  1  0.35294664  0.31350265  0.87333084  1  -1.118298  0.087862  -0.320644  -0.553395  0.047653  2.352205  0.08
O  O311  1  0.14705056  0.81350077  0.62666660  1  -1.118225  0.087863  -0.320698  -0.553497  0.047654  2.352194  0.08
O  O312  1  0.87285737  0.69157826  0.20486702  1  -1.160084  0.235563  -0.558883  -0.851995  0.133714  2.378355  0.212
O  O313  1  0.62714270  0.19157905  0.29513288  1  -1.160086  0.235561  -0.558876  -0.852009  0.133713  2.378396  0.212
O  O314  1  0.12714166  0.30842119  0.79513170  1  -1.160057  0.235563  -0.558889  -0.851989  0.133713  2.378364  0.212
O  O315  1  0.37285791  0.80842094  0.70486833  1  -1.160063  0.235563  -0.558889  -0.851994  0.133713  2.378386  0.212
O  O316  1  0.08531295  0.68277818  0.20862322  1  -1.132718  0.207583  -0.558235  -0.835527  0.118732  2.429468  0.186
O  O317  1  0.41468739  0.18277846  0.29137760  1  -1.132666  0.207582  -0.558216  -0.835522  0.118731  2.429472  0.186
O  O318  1  0.91468687  0.31722127  0.79137743  1  -1.132826  0.207585  -0.558223  -0.83556  0.118734  2.429566  0.186
O  O319  1  0.58531164  0.81722152  0.70862249  1  -1.132725  0.207585  -0.558192  -0.835463  0.118733  2.429526  0.186
O  O320  1  0.74486901  0.81971497  0.14961306  1  -1.147318  0.066937  -0.29827  -0.542352  0.036707  2.397207  0.062
O  O321  1  0.75513267  0.31971522  0.35038705  1  -1.147296  0.066945  -0.298319  -0.542375  0.036711  2.396999  0.062
O  O322  1  0.25513161  0.18028340  0.85038496  1  -1.147111  0.06695  -0.298375  -0.542466  0.036715  2.396755  0.062
O  O323  1  0.24486873  0.68028368  0.64961563  1  -1.147095  0.066951  -0.298417  -0.542539  0.036715  2.396868  0.062
O  O324  1  0.88737910  0.84867516  0.22662847  1  -1.145559  0.067311  -0.301585  -0.538932  0.037127  2.404286  0.063
O  O325  1  0.61262258  0.34867487  0.27337209  1  -1.145569  0.067305  -0.301567  -0.538898  0.037124  2.404325  0.063
O  O326  1  0.11261993  0.15132213  0.77336843  1  -1.145762  0.0673  -0.301626  -0.538871  0.037121  2.404282  0.063
O  O327  1  0.38737882  0.65132242  0.72663150  1  -1.145741  0.067301  -0.301602  -0.538835  0.037122  2.404289  0.063
O  O328  1  0.03191646  0.76060270  0.30870653  1  -1.138611  0.070269  -0.302318  -0.537293  0.038638  2.394067  0.065
O  O329  1  0.46808390  0.26060246  0.19129383  1  -1.138638  0.07027  -0.302343  -0.537334  0.038638  2.394008  0.065
O  O330  1  0.96808178  0.23939836  0.69129300  1  -1.138611  0.070266  -0.302285  -0.537256  0.038636  2.394068  0.065
O  O331  1  0.53191513  0.73939860  0.80870581  1  -1.138638  0.070267  -0.30233  -0.537306  0.038637  2.394165  0.065
O  O332  1  0.02104771  0.63987625  0.32517305  1  -1.135233  0.075143  -0.302717  -0.532781  0.04116  2.317912  0.069
O  O333  1  0.47895342  0.13987602  0.17482833  1  -1.135258  0.075141  -0.302762  -0.532813  0.04116  2.317764  0.069
O  O334  1  0.97895291  0.36012427  0.67482770  1  -1.135227  0.075148  -0.302763  -0.532793  0.041163  2.317737  0.069
O  O335  1  0.52104877  0.86012611  0.82517446  1  -1.135129  0.07515  -0.302774  -0.532869  0.041164  2.317751  0.069
O  O336  1  0.10287141  0.53199867  0.25814525  1  -1.137383  0.056037  -0.295928  -0.529567  0.030701  2.339039  0.051
O  O337  1  0.39712970  0.03199896  0.24185523  1  -1.137298  0.056038  -0.295917  -0.529569  0.030702  2.338958  0.051
O  O338  1  0.89712841  0.46800239  0.74185449  1  -1.137399  0.056035  -0.29592  -0.529566  0.0307  2.339031  0.051
O  O339  1  0.60287092  0.96800264  0.75814507  1  -1.137409  0.056034  -0.295924  -0.529591  0.030699  2.339026  0.051
O  O340  1  0.18564643  0.55094656  0.17811849  1  -1.152033  0.067146  -0.311847  -0.564442  0.03684  2.502839  0.062
O  O341  1  0.31435309  0.05094521  0.32188087  1  -1.152009  0.067144  -0.311924  -0.564585  0.036839  2.502798  0.062
O  O342  1  0.81435577  0.44905289  0.82188111  1  -1.152003  0.067145  -0.311985  -0.564633  0.03684  2.502674  0.062
O  O343  1  0.68564514  0.94905316  0.67811957  1  -1.151992  0.067147  -0.311984  -0.564639  0.036841  2.502672  0.062
O  O344  1  0.81450576  0.62380800  0.08152656  1  -1.118342  0.079026  -0.288209  -0.521719  0.043755  2.424721  0.072
O  O345  1  0.68549588  0.12380662  0.41847311  1  -1.118285  0.079026  -0.288233  -0.521817  0.043756  2.424684  0.072
O  O346  1  0.18549564  0.37619306  0.91847339  1  -1.118293  0.079028  -0.288238  -0.521834  0.043757  2.424661  0.072
O  O347  1  0.31450474  0.87619390  0.58152674  1  -1.118246  0.079025  -0.288179  -0.521735  0.043755  2.42467  0.072
O  O348  1  0.96922297  0.57644207  0.13736381  1  -1.168916  0.068142  -0.305542  -0.566922  0.037872  2.455513  0.056
O  O349  1  0.53077786  0.07644015  0.36263575  1  -1.168949  0.06814  -0.30553  -0.56698  0.037871  2.455574  0.056
O  O350  1  0.03077844  0.42355899  0.86263568  1  -1.168955  0.068137  -0.305548  -0.566989  0.03787  2.455578  0.056
O  O351  1  0.46922196  0.92356091  0.63736490  1  -1.168984  0.068141  -0.305538  -0.566943  0.037871  2.455588  0.056
O  O352  1  0.93827754  0.77642529  0.11562022  1  -1.164109  0.070091  -0.317158  -0.598036  0.039067  2.533603  0.058
O  O353  1  0.56172413  0.27642552  0.38438080  1  -1.164111  0.070091  -0.317138  -0.598021  0.039067  2.533662  0.058
O  O354  1  0.06172308  0.22357523  0.88438054  1  -1.164258  0.070088  -0.317116  -0.598005  0.039066  2.533692  0.058
O  O355  1  0.43827648  0.72357446  0.61562041  1  -1.164453  0.070101  -0.3172  -0.598085  0.039067  2.533626  0.058
O  O356  1  0.06479389  0.72132203  0.07486029  1  -1.158584  0.081877  -0.310691  -0.561767  0.044997  2.444031  0.074
O  O357  1  0.43520726  0.22132284  0.42514018  1  -1.158696  0.08188  -0.31071  -0.561772  0.044997  2.443953  0.074
O  O358  1  0.93520593  0.27867795  0.92514036  1  -1.158572  0.08188  -0.310725  -0.561797  0.044997  2.443911  0.074
O  O359  1  0.56479256  0.77867822  0.57486047  1  -1.158565  0.081878  -0.310719  -0.56178  0.044997  2.443929  0.074
O  O360  1  0.95600793  0.98430062  0.88806285  1  -1.08168  0.001447  -0.186172  -0.166022  0.000729  2.563154  0.001
O  O361  1  0.54399299  0.48430089  0.61193737  1  -1.081675  0.001448  -0.18621  -0.166064  0.00073  2.563138  0.001
O  O362  1  0.04398952  0.01569828  0.11193567  1  -1.081636  0.001448  -0.186196  -0.165986  0.00073  2.563201  0.001
O  O363  1  0.45600763  0.51569963  0.38806247  1  -1.081641  0.001448  -0.186174  -0.16598  0.00073  2.563082  0.001
