# generated using pymatgen
data_CoH32C47N6O5
_symmetry_space_group_name_H-M   'P 1'
_cell_length_a   8.90843850
_cell_length_b   14.89168696
_cell_length_c   32.09221606
_cell_angle_alpha   89.99956116
_cell_angle_beta   90.00031465
_cell_angle_gamma   104.34084771
_symmetry_Int_Tables_number   1
_chemical_formula_structural   CoH32C47N6O5
_chemical_formula_sum   'Co4 H128 C188 N24 O20'
_cell_volume   4124.74382107
_cell_formula_units_Z   4
loop_
 _symmetry_equiv_pos_site_id
 _symmetry_equiv_pos_as_xyz
  1  'x, y, z'
loop_
 _atom_site_type_symbol
 _atom_site_label
 _atom_site_symmetry_multiplicity
 _atom_site_fract_x
 _atom_site_fract_y
 _atom_site_fract_z
 _atom_site_occupancy
 _atom_site_pbe_bader_charge
 _atom_site_pbe_bader_spin_density
 _atom_site_pbe_cm5_charge
 _atom_site_pbe_ddec_charge
 _atom_site_pbe_ddec_spin_density
 _atom_site_pbe_ddec_sum_bond_order
 _atom_site_pbe_magmom
Co  Co0  1  0.37445280  0.19082143  0.12556217  1  1.254191  2.595062  0.66554  0.812591  2.821701  2.506183  2.568
Co  Co1  1  0.12554426  0.80917961  0.62556250  1  1.254143  2.595057  0.665577  0.812575  2.821695  2.5062  2.568
Co  Co2  1  0.62554910  0.80917726  0.87443726  1  1.254186  2.595063  0.665507  0.812435  2.821692  2.506255  2.568
Co  Co3  1  0.87445090  0.19081906  0.37443755  1  1.254126  2.595059  0.665537  0.812534  2.821695  2.50617  2.568
H  H4  1  0.31123749  0.36847359  0.17504297  1  0.261931  0.000477  0.131003  0.112918  -9e-06  1.082528  0.0
H  H5  1  0.18875939  0.63152742  0.67504496  1  0.261886  0.000477  0.130953  0.11291  -1e-05  1.082547  0.0
H  H6  1  0.68876103  0.63152232  0.82495709  1  0.261863  0.000477  0.130994  0.11285  -9e-06  1.082541  0.0
H  H7  1  0.81124335  0.36847335  0.32495946  1  0.261884  0.000477  0.13096  0.112873  -9e-06  1.082552  0.0
H  H8  1  0.99919529  0.12670012  0.13125730  1  0.139512  0.00056  0.119433  0.122495  4.5e-05  1.013406  0.001
H  H9  1  0.50079441  0.87330179  0.63125783  1  0.139538  0.000561  0.119441  0.122469  4.5e-05  1.013328  0.001
H  H10  1  0.00079902  0.87329924  0.86874057  1  0.13956  0.00056  0.119415  0.12247  4.5e-05  1.013391  0.001
H  H11  1  0.49919456  0.12669825  0.36874098  1  0.139622  0.000561  0.119434  0.122468  4.5e-05  1.013229  0.001
H  H12  1  0.82743832  0.25075384  0.15737138  1  0.152899  0.000739  0.125763  0.136512  0.000187  1.010143  0.0
H  H13  1  0.67255791  0.74924909  0.65737074  1  0.153016  0.000739  0.125709  0.136425  0.000187  1.010087  0.0
H  H14  1  0.17255936  0.74924830  0.84262743  1  0.152889  0.000738  0.125803  0.13654  0.000187  1.010196  0.0
H  H15  1  0.32744344  0.25075929  0.34262651  1  0.153001  0.000739  0.125744  0.136472  0.000187  1.010089  0.0
H  H16  1  0.83696371  0.33370042  0.22747328  1  0.107673  -1.5e-05  0.103471  0.102269  -4.4e-05  1.0352  0.0
H  H17  1  0.66303572  0.66630150  0.72747262  1  0.107715  -1.5e-05  0.103473  0.102259  -4.4e-05  1.035199  0.0
H  H18  1  0.16303735  0.66629896  0.77252459  1  0.107785  -1.5e-05  0.103465  0.102211  -4.4e-05  1.035156  0.0
H  H19  1  0.33696956  0.33370274  0.27252619  1  0.107781  -1.5e-05  0.103458  0.102172  -4.4e-05  1.03514  0.0
H  H20  1  0.80023772  0.47194293  0.26561653  1  0.08881  2.5e-05  0.098832  0.096051  4e-06  1.051296  0.0
H  H21  1  0.69976363  0.52805636  0.76561610  1  0.088808  2.5e-05  0.098813  0.096055  4e-06  1.051321  0.0
H  H22  1  0.19975575  0.52805435  0.73438041  1  0.088761  2.5e-05  0.098803  0.096053  4e-06  1.051257  0.0
H  H23  1  0.30024502  0.47194788  0.23438209  1  0.088812  2.5e-05  0.098785  0.096046  4e-06  1.051314  0.0
H  H24  1  0.17145281  0.64684802  0.19565796  1  0.086986  5e-06  0.09841  0.099002  0.0  1.038218  0.0
H  H25  1  0.32855109  0.35315271  0.69565741  1  0.087008  5e-06  0.098403  0.098989  0.0  1.038285  0.0
H  H26  1  0.82855499  0.35315138  0.80434490  1  0.086908  5e-06  0.098414  0.099049  0.0  1.038247  0.0
H  H27  1  0.67145362  0.64685291  0.30434389  1  0.086818  5e-06  0.098436  0.099046  0.0  1.038277  0.0
H  H28  1  0.20714745  0.50922489  0.15693793  1  0.081891  2e-05  0.10777  0.113352  -2.3e-05  1.002054  0.0
H  H29  1  0.29285059  0.49077708  0.65693747  1  0.081622  2e-05  0.107779  0.113344  -2.3e-05  1.001968  0.0
H  H30  1  0.79286034  0.49077451  0.84306461  1  0.082008  2e-05  0.107736  0.113334  -2.3e-05  1.001918  0.0
H  H31  1  0.70715469  0.50922715  0.34306258  1  0.081576  2e-05  0.107759  0.11335  -2.3e-05  1.001961  0.0
H  H32  1  0.04940090  0.58565506  0.31397295  1  0.074668  -1.3e-05  0.103158  0.112546  -2.6e-05  1.038608  0.0
H  H33  1  0.45060543  0.41434326  0.81397363  1  0.074652  -1.3e-05  0.103148  0.112522  -2.6e-05  1.038605  0.0
H  H34  1  0.95059509  0.41434015  0.68602772  1  0.074688  -1.3e-05  0.103162  0.112545  -2.6e-05  1.038672  0.0
H  H35  1  0.54940715  0.58566515  0.18602892  1  0.074632  -1.3e-05  0.103106  0.112445  -2.6e-05  1.038601  0.0
H  H36  1  0.92244783  0.84276398  0.33503809  1  0.048546  -6e-06  0.097052  0.093994  -1.6e-05  1.047267  0.0
H  H37  1  0.57755923  0.15723501  0.83504035  1  0.048441  -6e-06  0.097062  0.094034  -1.6e-05  1.047196  0.0
H  H38  1  0.07755211  0.15723539  0.66496196  1  0.048558  -6e-06  0.097061  0.094034  -1.6e-05  1.047199  0.0
H  H39  1  0.42243930  0.84276644  0.16496095  1  0.048442  -6e-06  0.097052  0.094057  -1.6e-05  1.047176  0.0
H  H40  1  0.87959491  0.72027374  0.21244874  1  0.058593  -4e-06  0.100839  0.107446  -6e-06  1.011678  0.0
H  H41  1  0.62040431  0.27972563  0.71244938  1  0.058632  -4e-06  0.100849  0.107459  -6e-06  1.011645  0.0
H  H42  1  0.12040924  0.27972496  0.78755225  1  0.058506  -4e-06  0.100812  0.107447  -6e-06  1.011653  0.0
H  H43  1  0.37958298  0.72027578  0.28755161  1  0.058513  -4e-06  0.100832  0.107451  -6e-06  1.011652  0.0
H  H44  1  0.88773928  0.85805651  0.19186936  1  0.063325  -4e-06  0.10219  0.101169  -4e-06  1.007938  0.0
H  H45  1  0.61225545  0.14194661  0.69187017  1  0.063343  -4e-06  0.102205  0.101156  -4e-06  1.007998  0.0
H  H46  1  0.11226178  0.14194287  0.80813007  1  0.063356  -4e-06  0.102193  0.101182  -4e-06  1.007933  0.0
H  H47  1  0.38773774  0.85805828  0.30812988  1  0.06337  -4e-06  0.102199  0.10118  -4e-06  1.007898  0.0
H  H48  1  0.77965841  0.98622638  0.16843315  1  0.051327  1.7e-05  0.104825  0.107193  -9e-06  1.010632  0.0
H  H49  1  0.72034247  0.01377917  0.66843209  1  0.051308  1.7e-05  0.104826  0.107219  -9e-06  1.010651  0.0
H  H50  1  0.22035276  0.01377579  0.83156690  1  0.051416  1.7e-05  0.104777  0.107142  -9e-06  1.010687  0.0
H  H51  1  0.27965269  0.98622781  0.33156641  1  0.051434  1.7e-05  0.104816  0.107185  -9e-06  1.010676  0.0
H  H52  1  0.64485186  0.02731763  0.29493770  1  0.121523  -1.6e-05  0.110719  0.128351  -9.2e-05  1.007347  0.0
H  H53  1  0.85515129  0.97268193  0.79493718  1  0.117268  -1.6e-05  0.110685  0.128254  -9.2e-05  1.007385  0.0
H  H54  1  0.35514948  0.97268244  0.70506142  1  0.121724  -1.6e-05  0.110763  0.128439  -9.2e-05  1.007362  0.0
H  H55  1  0.14485174  0.02732507  0.20506069  1  0.117079  -1.6e-05  0.110775  0.128426  -9.2e-05  1.007416  0.0
H  H56  1  0.74910417  0.90007829  0.31792249  1  0.040543  -1.2e-05  0.100267  0.098898  -5.4e-05  1.029628  0.0
H  H57  1  0.75089816  0.09991817  0.81792117  1  0.040581  -1.2e-05  0.100212  0.098889  -5.4e-05  1.029583  0.0
H  H58  1  0.25089155  0.09991900  0.68207663  1  0.040514  -1.2e-05  0.100251  0.098921  -5.4e-05  1.029538  0.0
H  H59  1  0.24910459  0.90008537  0.18207795  1  0.040541  -1.2e-05  0.10022  0.098881  -5.4e-05  1.029608  0.0
H  H60  1  0.54182479  0.02937312  0.15566459  1  0.126942  0.000326  0.134414  0.100364  -0.000272  1.009324  0.0
H  H61  1  0.95817226  0.97062915  0.65566393  1  0.126871  0.000326  0.134374  0.100255  -0.000272  1.009378  0.0
H  H62  1  0.45817880  0.97062696  0.84433546  1  0.127003  0.000326  0.134371  0.100326  -0.000272  1.009379  0.0
H  H63  1  0.04182205  0.02937021  0.34433363  1  0.126985  0.000326  0.134395  0.100333  -0.000272  1.009368  0.0
H  H64  1  0.49675094  0.26957967  0.21830300  1  0.137491  0.000934  0.118262  0.116826  0.000333  1.023994  0.001
H  H65  1  0.00325243  0.73042419  0.71830404  1  0.137527  0.000934  0.118281  0.11682  0.000333  1.02402  0.001
H  H66  1  0.50326220  0.73042459  0.78169488  1  0.13736  0.000934  0.11826  0.116789  0.000333  1.024016  0.001
H  H67  1  0.99674020  0.26957655  0.28169601  1  0.137362  0.000934  0.118258  0.116824  0.000333  1.023994  0.001
H  H68  1  0.66565378  0.17696564  0.26872393  1  0.12279  0.000707  0.122874  0.126399  0.000163  1.0338  0.0
H  H69  1  0.83435520  0.82303848  0.76872422  1  0.122851  0.000707  0.122893  0.126433  0.000163  1.033802  0.0
H  H70  1  0.33436246  0.82304071  0.73127425  1  0.1231  0.000707  0.12291  0.126399  0.000163  1.03379  0.0
H  H71  1  0.16564530  0.17696782  0.23127490  1  0.122812  0.000707  0.122908  0.126471  0.000163  1.033703  0.0
H  H72  1  0.12729205  0.86365289  0.37772349  1  0.034103  2e-06  0.100929  0.097485  1e-06  1.017877  0.0
H  H73  1  0.37270559  0.13634863  0.87772285  1  0.034101  2e-06  0.100927  0.097469  1e-06  1.017889  0.0
H  H74  1  0.87270366  0.13634440  0.62227656  1  0.03462  2e-06  0.100884  0.097419  1e-06  1.01796  0.0
H  H75  1  0.62729547  0.86365628  0.12227502  1  0.034686  2e-06  0.100903  0.097439  1e-06  1.017972  0.0
H  H76  1  0.20416401  0.86371506  0.45182407  1  0.086507  -3e-06  0.112783  0.119082  -2.5e-05  0.984421  0.0
H  H77  1  0.29582789  0.13628260  0.95182238  1  0.086448  -3e-06  0.112759  0.119082  -2.5e-05  0.984518  0.0
H  H78  1  0.79582805  0.13627875  0.54817660  1  0.086388  -3e-06  0.112782  0.119065  -2.5e-05  0.984562  0.0
H  H79  1  0.70417288  0.86371609  0.04817549  1  0.086422  -3e-06  0.112834  0.119128  -2.5e-05  0.984535  0.0
H  H80  1  0.03548343  0.56612917  0.45514303  1  0.066331  2.9e-05  0.106232  0.110601  8e-06  1.011374  0.0
H  H81  1  0.46452088  0.43386847  0.95514210  1  0.066459  2.9e-05  0.106228  0.110546  8e-06  1.011378  0.0
H  H82  1  0.96450329  0.43386532  0.54485733  1  0.066084  2.9e-05  0.106214  0.110545  8e-06  1.011412  0.0
H  H83  1  0.53548467  0.56613092  0.04486044  1  0.066282  2.9e-05  0.106202  0.110557  8e-06  1.011369  0.0
H  H84  1  0.96778905  0.56572357  0.38071480  1  0.070437  1.4e-05  0.106177  0.108697  -1.7e-05  1.010451  0.0
H  H85  1  0.53222340  0.43427546  0.88071352  1  0.070436  1.4e-05  0.106191  0.108688  -1.7e-05  1.010464  0.0
H  H86  1  0.03220386  0.43427232  0.61928587  1  0.070311  1.4e-05  0.106151  0.108691  -1.7e-05  1.010417  0.0
H  H87  1  0.46778580  0.56572740  0.11928903  1  0.070451  1.4e-05  0.106147  0.108691  -1.7e-05  1.010401  0.0
H  H88  1  0.09891170  0.83914963  0.52385334  1  0.155946  0.000261  0.137878  0.111258  -0.000211  0.999041  0.0
H  H89  1  0.40109016  0.16084874  0.02385285  1  0.155874  0.000261  0.137859  0.111274  -0.000211  0.999011  0.0
H  H90  1  0.90107418  0.16084555  0.47614952  1  0.156316  0.000261  0.137803  0.11124  -0.000211  0.998962  0.0
H  H91  1  0.59891595  0.83914926  0.97614689  1  0.156416  0.000261  0.137839  0.111181  -0.000211  0.998959  0.0
H  H92  1  0.28810025  0.64606946  0.58769143  1  0.085424  0.000632  0.116319  0.10841  4.8e-05  1.018696  0.0
H  H93  1  0.21189994  0.35393006  0.08768840  1  0.085373  0.000632  0.116338  0.10839  4.8e-05  1.018686  0.0
H  H94  1  0.71189574  0.35392852  0.41230987  1  0.085299  0.000632  0.116327  0.10838  4.8e-05  1.018738  0.0
H  H95  1  0.78810223  0.64606655  0.91231134  1  0.085265  0.000632  0.116329  0.108355  4.8e-05  1.018725  0.0
H  H96  1  0.24723622  0.59235238  0.50470034  1  0.146935  0.000586  0.117186  0.115513  0.000243  1.047496  0.0
H  H97  1  0.25276650  0.40764627  0.00469625  1  0.14684  0.000587  0.117226  0.115573  0.000243  1.047462  0.0
H  H98  1  0.75276258  0.40764699  0.49530190  1  0.146909  0.000587  0.117226  0.115561  0.000244  1.047415  0.0
H  H99  1  0.74722865  0.59234963  0.99530349  1  0.146788  0.000587  0.117186  0.115513  0.000243  1.047433  0.0
H  H100  1  0.99476942  0.91374686  0.11199764  1  0.05653  0.000514  0.100388  0.103938  0.000288  1.00891  0.0
H  H101  1  0.50523996  0.08625192  0.61199256  1  0.056446  0.000514  0.100327  0.103875  0.000288  1.008948  0.0
H  H102  1  0.00524653  0.08625325  0.88800833  1  0.056411  0.000514  0.100316  0.103822  0.000288  1.009028  0.0
H  H103  1  0.49474704  0.91374326  0.38800811  1  0.056383  0.000514  0.100297  0.103861  0.000288  1.009027  0.0
H  H104  1  0.89233415  0.74976015  0.09048454  1  0.106022  4.1e-05  0.098661  0.111141  2.3e-05  1.059089  0.0
H  H105  1  0.60767298  0.25023963  0.59048091  1  0.105987  4.1e-05  0.098657  0.111115  2.3e-05  1.059086  0.0
H  H106  1  0.10767056  0.25023716  0.90951988  1  0.105988  4.1e-05  0.098683  0.111229  2.3e-05  1.05907  0.0
H  H107  1  0.39232358  0.74975697  0.40951821  1  0.105873  4.1e-05  0.098711  0.111222  2.3e-05  1.059128  0.0
H  H108  1  0.33377408  0.74979382  0.03612139  1  0.04527  3.5e-05  0.101506  0.11362  1.7e-05  1.024784  0.0
H  H109  1  0.16621812  0.25021335  0.53612439  1  0.045208  3.5e-05  0.10154  0.113616  1.7e-05  1.02478  0.0
H  H110  1  0.66621995  0.25020485  0.96387648  1  0.045267  3.5e-05  0.101541  0.113609  1.7e-05  1.024836  0.0
H  H111  1  0.83377450  0.74978462  0.46387161  1  0.045695  3.5e-05  0.101543  0.113618  1.7e-05  1.024907  0.0
H  H112  1  0.43303870  0.91733937  0.05602008  1  0.076258  0.000561  0.099586  0.101574  0.000307  1.012992  0.0
H  H113  1  0.06695798  0.08266406  0.55602227  1  0.076276  0.000561  0.099578  0.10158  0.000307  1.012953  0.0
H  H114  1  0.56696404  0.08265585  0.94397811  1  0.069911  0.000563  0.099585  0.101548  0.000307  1.013037  0.0
H  H115  1  0.93303380  0.91733183  0.44397279  1  0.076036  0.000561  0.099586  0.10159  0.000307  1.012981  0.0
H  H116  1  0.98494549  0.65502768  0.13242641  1  0.07366  0.000131  0.101027  0.113582  5.5e-05  1.0251  0.0
H  H117  1  0.51506248  0.34497218  0.63242635  1  0.073692  0.000131  0.101058  0.113596  5.5e-05  1.025061  0.0
H  H118  1  0.01507326  0.34496829  0.86757551  1  0.073796  0.000131  0.101086  0.113638  5.5e-05  1.025032  0.0
H  H119  1  0.48492930  0.65502924  0.36757214  1  0.073739  0.000131  0.101072  0.113652  5.5e-05  1.025011  0.0
H  H120  1  0.77516375  0.53771564  0.16704420  1  0.080503  4.8e-05  0.099952  0.096947  -6e-06  1.038872  0.0
H  H121  1  0.72484975  0.46228789  0.66704186  1  0.080652  4.8e-05  0.099954  0.097044  -6e-06  1.038877  0.0
H  H122  1  0.22485361  0.46228794  0.83296053  1  0.080657  4.8e-05  0.099904  0.096923  -6e-06  1.039042  0.0
H  H123  1  0.27515214  0.53770526  0.33295663  1  0.080614  4.8e-05  0.099946  0.097004  -6e-06  1.038909  0.0
H  H124  1  0.70260711  0.37383023  0.05583491  1  0.089248  0.000286  0.103785  0.111354  7.3e-05  0.997251  0.0
H  H125  1  0.79738719  0.62617555  0.55583148  1  0.089125  0.000286  0.103804  0.111346  7.3e-05  0.997258  0.0
H  H126  1  0.29738187  0.62617534  0.94416919  1  0.089133  0.000286  0.1038  0.111352  7.3e-05  0.997285  0.0
H  H127  1  0.20262369  0.37381762  0.44416608  1  0.088999  0.000286  0.103773  0.111246  7.3e-05  0.997374  0.0
H  H128  1  0.90398624  0.49516845  0.01903683  1  0.076066  2.6e-05  0.102154  0.114279  1.3e-05  1.026453  0.0
H  H129  1  0.59600391  0.50483439  0.51903539  1  0.075839  2.6e-05  0.102166  0.114273  1.3e-05  1.026414  0.0
H  H130  1  0.09600245  0.50483089  0.98096447  1  0.07586  2.6e-05  0.102149  0.114221  1.3e-05  1.026476  0.0
H  H131  1  0.40399602  0.49516498  0.48096279  1  0.076045  2.6e-05  0.102196  0.114259  1.3e-05  1.026388  0.0
C  C132  1  0.20207844  0.31924712  0.16726476  1  0.861353  -0.00553  0.130551  0.064058  -0.006607  3.895431  -0.003
C  C133  1  0.29791468  0.68075607  0.66726675  1  0.861766  -0.00553  0.130602  0.064049  -0.006608  3.895475  -0.003
C  C134  1  0.79792092  0.68075087  0.83273561  1  0.861371  -0.005529  0.130575  0.06408  -0.006607  3.895462  -0.003
C  C135  1  0.70208526  0.31924884  0.33273674  1  0.861271  -0.005531  0.13058  0.064062  -0.006608  3.895535  -0.003
C  C136  1  0.03607331  0.19505533  0.14496381  1  0.420057  7.3e-05  -0.001597  -0.031247  -0.001075  3.996951  0.001
C  C137  1  0.46391529  0.80494055  0.64496530  1  0.419942  7.4e-05  -0.001667  -0.031289  -0.001074  3.997358  0.001
C  C138  1  0.96392044  0.80494541  0.85503531  1  0.41999  7.2e-05  -0.001622  -0.031254  -0.001076  3.996751  0.001
C  C139  1  0.53607734  0.19506296  0.35503414  1  0.420064  7.4e-05  -0.001622  -0.031156  -0.001074  3.997177  0.001
C  C140  1  0.95068124  0.25497691  0.15797535  1  0.259497  0.003066  -0.000509  -0.107359  0.001434  3.904446  0.002
C  C141  1  0.54930910  0.74502807  0.65797610  1  0.259533  0.003066  -0.000462  -0.107244  0.001434  3.904728  0.002
C  C142  1  0.04932179  0.74502455  0.84202283  1  0.259508  0.003066  -0.000562  -0.107467  0.001434  3.904369  0.002
C  C143  1  0.45069055  0.25497892  0.34202333  1  0.259013  0.003066  -0.000424  -0.107315  0.001434  3.904793  0.002
C  C144  1  0.02664611  0.41343182  0.19078543  1  0.346427  0.000471  0.093039  0.158597  0.000169  4.025853  0.0
C  C145  1  0.47335407  0.58656827  0.69078490  1  0.34634  0.000471  0.093094  0.158734  0.000169  4.025753  0.0
C  C146  1  0.97335944  0.58656757  0.80921463  1  0.3462  0.000471  0.093061  0.158612  0.000169  4.025768  0.0
C  C147  1  0.52665429  0.41343528  0.30921546  1  0.346028  0.000471  0.093077  0.158659  0.000169  4.025907  0.0
C  C148  1  0.90950335  0.40249127  0.22059959  1  -0.115004  0.000425  -0.084221  -0.143454  0.000147  3.965857  0.0
C  C149  1  0.59049542  0.59750936  0.72059999  1  -0.115031  0.000425  -0.084235  -0.143428  0.000147  3.965808  0.0
C  C150  1  0.09049630  0.59750741  0.77939860  1  -0.114949  0.000425  -0.084205  -0.143392  0.000147  3.965783  0.0
C  C151  1  0.40951575  0.40249558  0.27939975  1  -0.114494  0.000425  -0.084159  -0.143206  0.000147  3.965774  0.0
C  C152  1  0.88978878  0.47982396  0.24193202  1  0.010985  -2.4e-05  -0.078272  -0.082942  -7.7e-05  3.936579  0.0
C  C153  1  0.61021336  0.52017568  0.74193180  1  0.01094  -2.4e-05  -0.078258  -0.08303  -7.7e-05  3.936573  0.0
C  C154  1  0.11020721  0.52017402  0.75806647  1  0.010843  -2.4e-05  -0.078321  -0.083019  -7.8e-05  3.936556  0.0
C  C155  1  0.38979921  0.47982442  0.25806608  1  0.011031  -2.4e-05  -0.078322  -0.083066  -7.7e-05  3.936506  0.0
C  C156  1  0.98474317  0.56831044  0.23380162  1  0.025023  0.000381  -0.003206  0.062412  0.000198  3.973973  0.0
C  C157  1  0.51526168  0.43169071  0.73380187  1  0.02506  0.000381  -0.00318  0.062518  0.000198  3.973887  0.0
C  C158  1  0.01525760  0.43168825  0.76619968  1  0.025056  0.000382  -0.003218  0.0625  0.000198  3.973926  0.0
C  C159  1  0.48474388  0.56831699  0.26619974  1  0.025267  0.000381  -0.003149  0.062399  0.000198  3.973873  0.0
C  C160  1  0.09744194  0.57851119  0.20259241  1  -0.115465  -0.000102  -0.084649  -0.110822  -0.000125  3.977823  0.0
C  C161  1  0.40256064  0.42148874  0.70259174  1  -0.115433  -0.000102  -0.084688  -0.110834  -0.000125  3.977805  0.0
C  C162  1  0.90256248  0.42148820  0.79740920  1  -0.115459  -0.000102  -0.08461  -0.110914  -0.000125  3.978042  0.0
C  C163  1  0.59744660  0.57851481  0.29740769  1  -0.115489  -0.000102  -0.08467  -0.110845  -0.000125  3.977973  0.0
C  C164  1  0.11868231  0.50133109  0.18105432  1  -0.004576  0.000443  -0.087909  -0.161974  0.000198  4.002312  0.0
C  C165  1  0.38131549  0.49866914  0.68105459  1  -0.004327  0.000443  -0.087909  -0.162007  0.000198  4.002153  0.0
C  C166  1  0.88132408  0.49866761  0.81894667  1  -0.004469  0.000443  -0.087904  -0.161937  0.000198  4.002192  0.0
C  C167  1  0.61868866  0.50133509  0.31894515  1  -0.004352  0.000443  -0.087954  -0.162081  0.000198  4.002364  0.0
C  C168  1  0.96943574  0.64710969  0.26035308  1  0.01817  3.5e-05  -0.00442  0.083644  8e-06  4.02043  0.0
C  C169  1  0.53056469  0.35289036  0.76035394  1  0.018128  3.5e-05  -0.004451  0.083495  8e-06  4.020495  0.0
C  C170  1  0.03055689  0.35288828  0.73964667  1  0.018207  3.5e-05  -0.004381  0.083634  8e-06  4.020421  0.0
C  C171  1  0.46943890  0.64711525  0.23964673  1  0.018024  3.5e-05  -0.004497  0.083638  8e-06  4.020343  0.0
C  C172  1  0.00733321  0.64413229  0.30260589  1  0.004008  -0.000304  -0.087247  -0.18113  -0.00033  3.912772  0.0
C  C173  1  0.49267719  0.35587105  0.80260621  1  0.003933  -0.000304  -0.087172  -0.180914  -0.00033  3.912721  0.0
C  C174  1  0.99266447  0.35586708  0.69739417  1  0.002963  -0.000304  -0.087237  -0.181124  -0.00033  3.912928  0.0
C  C175  1  0.50733230  0.64413804  0.19739540  1  0.003102  -0.000304  -0.087207  -0.181038  -0.00033  3.912725  0.0
C  C176  1  0.99342430  0.71566964  0.32957381  1  -0.00909  3.8e-05  -0.012244  0.071407  -5e-06  4.039257  0.0
C  C177  1  0.50658240  0.28433151  0.82957332  1  -0.009029  3.8e-05  -0.012211  0.071423  -5e-06  4.039097  0.0
C  C178  1  0.00657029  0.28432764  0.67042687  1  -0.00823  3.8e-05  -0.012255  0.0715  -5e-06  4.039194  0.0
C  C179  1  0.49341894  0.71567687  0.17042642  1  -0.008112  3.8e-05  -0.01221  0.071469  -5e-06  4.039043  0.0
C  C180  1  0.93599858  0.78832879  0.31376045  1  -0.078349  -0.000282  -0.091847  -0.187378  -0.000301  3.949684  0.0
C  C181  1  0.56400987  0.21167190  0.81376094  1  -0.078211  -0.000282  -0.091885  -0.187521  -0.000301  3.949835  0.0
C  C182  1  0.06399882  0.21166988  0.68624022  1  -0.078308  -0.000282  -0.09187  -0.187527  -0.000301  3.949869  0.0
C  C183  1  0.43599316  0.78833510  0.18624005  1  -0.078146  -0.000282  -0.091892  -0.187598  -0.000301  3.949746  0.0
C  C184  1  0.89402003  0.79195934  0.27174150  1  -0.007374  2.6e-05  -0.007987  0.076672  -1.1e-05  4.017665  0.0
C  C185  1  0.60597689  0.20803985  0.77174269  1  -0.007255  2.6e-05  -0.008033  0.076632  -1.1e-05  4.017739  0.0
C  C186  1  0.10597090  0.20803724  0.72825762  1  -0.007079  2.5e-05  -0.007971  0.076614  -1.1e-05  4.017694  0.0
C  C187  1  0.39402079  0.79196506  0.22825768  1  -0.007397  2.5e-05  -0.007963  0.076738  -1.1e-05  4.017701  0.0
C  C188  1  0.91449500  0.72095018  0.24503860  1  -0.081561  -0.000316  -0.085543  -0.175926  -0.00034  3.917039  0.0
C  C189  1  0.58550916  0.27905150  0.74503981  1  -0.081694  -0.000316  -0.085547  -0.175909  -0.00034  3.916971  0.0
C  C190  1  0.08550521  0.27904989  0.75496115  1  -0.081901  -0.000316  -0.085561  -0.175959  -0.00034  3.916871  0.0
C  C191  1  0.41448741  0.72095341  0.25496118  1  -0.081705  -0.000316  -0.085534  -0.175947  -0.00034  3.916861  0.0
C  C192  1  0.82709574  0.86763280  0.25684954  1  -0.066625  -0.000716  -0.008182  0.05696  -0.000765  3.985505  0.0
C  C193  1  0.67289762  0.13236936  0.75684923  1  -0.066764  -0.000716  -0.008116  0.057167  -0.000765  3.985373  0.0
C  C194  1  0.17289633  0.13236378  0.74314926  1  -0.066542  -0.000716  -0.008233  0.057063  -0.000765  3.985368  0.0
C  C195  1  0.32710597  0.86763902  0.24315020  1  -0.066551  -0.000717  -0.008209  0.057072  -0.000765  3.985356  0.0
C  C196  1  0.83167675  0.89330951  0.21460343  1  -0.025467  0.000172  -0.084487  -0.101903  7.7e-05  3.977964  0.0
C  C197  1  0.66831885  0.10669466  0.71460383  1  -0.025224  0.000172  -0.084565  -0.101992  7.7e-05  3.978072  0.0
C  C198  1  0.16832487  0.10669125  0.78539569  1  -0.025905  0.000172  -0.084468  -0.101947  7.7e-05  3.977844  0.0
C  C199  1  0.33167575  0.89331093  0.28539591  1  -0.02548  0.000172  -0.084484  -0.101943  7.7e-05  3.978019  0.0
C  C200  1  0.77030276  0.96555911  0.20112460  1  0.054129  -0.000518  -0.093859  -0.176537  -0.000545  4.0102  0.0
C  C201  1  0.72969660  0.03444665  0.70112379  1  0.053907  -0.000518  -0.093791  -0.176454  -0.000546  4.009929  0.0
C  C202  1  0.22970223  0.03444166  0.79887546  1  0.054652  -0.000518  -0.09376  -0.176419  -0.000546  4.010006  0.0
C  C203  1  0.27030418  0.96556034  0.29887502  1  0.054036  -0.000518  -0.093834  -0.176461  -0.000545  4.01017  0.0
C  C204  1  0.70134814  0.01379571  0.22981201  1  0.233343  0.000736  0.093479  0.164411  0.000354  4.020651  0.001
C  C205  1  0.79865497  0.98620687  0.72981166  1  0.233695  0.000736  0.093434  0.164281  0.000354  4.020698  0.001
C  C206  1  0.29865910  0.98620507  0.77018773  1  0.233216  0.000736  0.093466  0.164447  0.000354  4.020552  0.001
C  C207  1  0.20134834  0.01380082  0.27018777  1  0.233304  0.000736  0.093486  0.164347  0.000354  4.02065  0.001
C  C208  1  0.69764315  0.99073161  0.27203640  1  0.051334  -0.000184  -0.086932  -0.149114  -0.00035  3.969184  0.0
C  C209  1  0.80235575  0.00926966  0.77203548  1  0.055188  -0.000185  -0.086935  -0.148944  -0.00035  3.96919  0.0
C  C210  1  0.30235425  0.00926706  0.72796303  1  0.051055  -0.000184  -0.086984  -0.149304  -0.00035  3.96922  0.0
C  C211  1  0.19764418  0.99073526  0.22796302  1  0.055126  -0.000185  -0.087017  -0.149246  -0.00035  3.969371  0.0
C  C212  1  0.75898632  0.91829016  0.28499859  1  -0.025116  6.7e-05  -0.08639  -0.109624  -9e-05  3.965732  0.0
C  C213  1  0.74101276  0.08171092  0.78499701  1  -0.02503  6.7e-05  -0.086295  -0.109711  -9e-05  3.965718  0.0
C  C214  1  0.24100996  0.08170851  0.71500115  1  -0.025082  6.7e-05  -0.086339  -0.10958  -9e-05  3.965605  0.0
C  C215  1  0.25898971  0.91829470  0.21500211  1  -0.02492  6.7e-05  -0.086302  -0.109585  -9e-05  3.965657  0.0
C  C216  1  0.55214593  0.08283021  0.17911038  1  0.958839  -0.006873  0.142851  0.100014  -0.008077  3.909955  -0.004
C  C217  1  0.94785397  0.91717241  0.67910958  1  0.958705  -0.006873  0.142867  0.100105  -0.008077  3.910005  -0.004
C  C218  1  0.44785765  0.91716987  0.82088936  1  0.958756  -0.006869  0.142844  0.09988  -0.008076  3.910204  -0.004
C  C219  1  0.05214231  0.08282903  0.32088892  1  0.958521  -0.006871  0.142924  0.100126  -0.008078  3.90998  -0.004
C  C220  1  0.52806455  0.20441013  0.21343093  1  0.393413  -0.001  -0.002161  -0.033126  -0.001334  3.991337  -0.001
C  C221  1  0.97193666  0.79559408  0.71343122  1  0.393061  -0.001001  -0.002188  -0.033126  -0.001334  3.991328  -0.001
C  C222  1  0.47194803  0.79559551  0.78656695  1  0.393592  -0.001  -0.002091  -0.03303  -0.001333  3.991563  -0.001
C  C223  1  0.02805232  0.20440596  0.28656853  1  0.394024  -0.001001  -0.00213  -0.033105  -0.001334  3.991657  -0.001
C  C224  1  0.61380739  0.16062195  0.23822743  1  0.272057  0.003606  -0.001106  -0.108568  0.00178  3.910461  0.002
C  C225  1  0.88619808  0.83938329  0.73822774  1  0.272509  0.003606  -0.001168  -0.108691  0.001779  3.910614  0.002
C  C226  1  0.38620997  0.83938440  0.76177076  1  0.271699  0.003606  -0.001146  -0.108598  0.001779  3.910622  0.002
C  C227  1  0.11379596  0.16062368  0.26177138  1  0.271482  0.003606  -0.001155  -0.108611  0.00178  3.910505  0.002
C  C228  1  0.03879683  0.71503449  0.37379844  1  0.023126  -0.00072  -0.00744  0.062245  -0.000774  3.990107  0.0
C  C229  1  0.46121003  0.28496504  0.87379959  1  0.023458  -0.000719  -0.007559  0.062008  -0.000774  3.990215  0.0
C  C230  1  0.96119888  0.28496280  0.62620193  1  0.02335  -0.000719  -0.007477  0.062166  -0.000774  3.990142  0.0
C  C231  1  0.53879440  0.71503988  0.12620140  1  0.023471  -0.000719  -0.007512  0.06212  -0.000774  3.990218  0.0
C  C232  1  0.10534863  0.79828347  0.39469437  1  0.040582  0.000187  -0.086103  -0.11023  5.6e-05  3.981593  0.0
C  C233  1  0.39464644  0.20171641  0.89469385  1  0.040607  0.000187  -0.08605  -0.110089  5.6e-05  3.981604  0.0
C  C234  1  0.89464821  0.20171382  0.60530599  1  0.040089  0.000187  -0.086053  -0.110144  5.6e-05  3.981874  0.0
C  C235  1  0.60534956  0.79828434  0.10530621  1  0.04001  0.000187  -0.08607  -0.110176  5.6e-05  3.981777  0.0
C  C236  1  0.14741987  0.79893014  0.43643537  1  -0.069947  -0.000679  -0.087517  -0.167441  -0.000744  4.014254  0.0
C  C237  1  0.35257520  0.20106775  0.93643603  1  -0.070007  -0.000679  -0.087548  -0.16751  -0.000744  4.014379  0.0
C  C238  1  0.85256938  0.20106505  0.56356531  1  -0.070007  -0.000679  -0.087578  -0.167504  -0.000744  4.014413  0.0
C  C239  1  0.64742754  0.79893302  0.06356340  1  -0.069916  -0.000679  -0.087596  -0.167522  -0.000745  4.014221  0.0
C  C240  1  0.12119993  0.71532657  0.45841528  1  0.307119  0.000755  0.093598  0.156059  0.000392  4.036747  0.001
C  C241  1  0.37880049  0.28467240  0.95841350  1  0.307424  0.000755  0.093674  0.156133  0.000392  4.03684  0.001
C  C242  1  0.87878960  0.28466931  0.54158727  1  0.307384  0.000755  0.0937  0.156194  0.000392  4.036801  0.001
C  C243  1  0.62120590  0.71532630  0.04158686  1  0.307383  0.000755  0.093817  0.156303  0.000392  4.03676  0.001
C  C244  1  0.05632512  0.63143932  0.43814785  1  -0.002546  -0.000307  -0.087876  -0.1594  -0.000375  3.987216  0.0
C  C245  1  0.44367783  0.36855857  0.93814712  1  -0.002614  -0.000307  -0.08791  -0.159339  -0.000375  3.987184  0.0
C  C246  1  0.94366384  0.36855518  0.56185283  1  -0.002157  -0.000306  -0.087889  -0.159329  -0.000375  3.987342  0.0
C  C247  1  0.55632688  0.63144151  0.06185512  1  -0.002314  -0.000306  -0.087865  -0.159284  -0.000375  3.98719  0.0
C  C248  1  0.01712990  0.63163521  0.39619683  1  -0.084885  0.000258  -0.080186  -0.099774  0.000106  3.954908  0.0
C  C249  1  0.48287306  0.36836468  0.89619617  1  -0.085269  0.000258  -0.080133  -0.099659  0.000106  3.955027  0.0
C  C250  1  0.98286722  0.36836277  0.60380384  1  -0.084938  0.000258  -0.080112  -0.099714  0.000106  3.954771  0.0
C  C251  1  0.51712632  0.63163885  0.10380545  1  -0.085442  0.000258  -0.080118  -0.099748  0.000106  3.954857  0.0
C  C252  1  0.14809110  0.78085579  0.53021546  1  0.966578  -0.003622  0.142619  0.09692  -0.004546  3.893405  -0.002
C  C253  1  0.35190606  0.21914179  0.03021437  1  0.966558  -0.003623  0.142673  0.096902  -0.004548  3.893387  -0.002
C  C254  1  0.85189140  0.21913661  0.46978646  1  0.965595  -0.00362  0.142732  0.096972  -0.004544  3.893302  -0.002
C  C255  1  0.64810061  0.78085760  0.96978506  1  0.965623  -0.003622  0.142707  0.097124  -0.004547  3.893159  -0.002
C  C256  1  0.24233529  0.67853235  0.56206768  1  0.411539  -0.001044  -0.001679  -0.021724  -0.001734  4.008556  -0.001
C  C257  1  0.25766315  0.32146407  0.06206390  1  0.411901  -0.001045  -0.001655  -0.021533  -0.001734  4.008871  -0.001
C  C258  1  0.75766408  0.32146563  0.43793394  1  0.411712  -0.001043  -0.001725  -0.021732  -0.001733  4.008862  -0.001
C  C259  1  0.74233875  0.67853185  0.93793616  1  0.411954  -0.001045  -0.00163  -0.021527  -0.001733  4.008764  -0.001
C  C260  1  0.22110271  0.64983381  0.52142608  1  0.279857  0.002199  -0.006045  -0.110837  0.001182  3.924183  0.001
C  C261  1  0.27889630  0.35016321  0.02142473  1  0.279496  0.0022  -0.006132  -0.111085  0.001182  3.924558  0.001
C  C262  1  0.77889272  0.35016278  0.47857491  1  0.279689  0.002199  -0.006076  -0.1109  0.001182  3.924293  0.001
C  C263  1  0.72110278  0.64983408  0.97857564  1  0.279847  0.002199  -0.006089  -0.110991  0.001182  3.924488  0.001
C  C264  1  0.27926180  0.02211846  0.10147400  1  1.508028  -0.005358  0.186066  0.535305  -0.007235  4.247167  -0.006
C  C265  1  0.22073998  0.97788155  0.60147357  1  1.50805  -0.005359  0.185981  0.535222  -0.007236  4.247057  -0.006
C  C266  1  0.72075527  0.97787888  0.89852636  1  1.508426  -0.005358  0.186037  0.535309  -0.007235  4.24731  -0.006
C  C267  1  0.77924140  0.02211638  0.39852493  1  1.508459  -0.005361  0.186042  0.53522  -0.007238  4.247193  -0.006
C  C268  1  0.22131713  0.92532713  0.08622536  1  0.005794  0.002632  -0.033161  -0.060503  0.001361  4.01881  0.002
C  C269  1  0.27868023  0.07467378  0.58622448  1  0.005889  0.002632  -0.033189  -0.060647  0.001361  4.018921  0.002
C  C270  1  0.77869038  0.07467157  0.91377439  1  0.005449  0.002632  -0.033198  -0.060775  0.001361  4.018793  0.002
C  C271  1  0.72130733  0.92532279  0.41377184  1  0.005886  0.002632  -0.033207  -0.060559  0.001361  4.018702  0.002
C  C272  1  0.06845252  0.87728130  0.09532410  1  -0.082963  -0.000731  -0.089549  -0.07554  -0.00105  4.002674  0.0
C  C273  1  0.43155002  0.12271535  0.59532142  1  -0.082833  -0.000731  -0.089489  -0.075441  -0.00105  4.002482  0.0
C  C274  1  0.93156005  0.12271881  0.90467876  1  -0.082385  -0.000731  -0.089508  -0.075269  -0.00105  4.002561  0.0
C  C275  1  0.56843586  0.87727706  0.40467770  1  -0.082412  -0.000731  -0.089443  -0.075454  -0.00105  4.002662  0.0
C  C276  1  0.01138295  0.78551697  0.08346184  1  0.008043  0.0009  -0.111413  -0.220259  0.000296  4.02524  0.001
C  C277  1  0.48861915  0.21448193  0.58346080  1  0.00813  0.0009  -0.111375  -0.220225  0.000296  4.025134  0.001
C  C278  1  0.98862457  0.21448174  0.91654102  1  0.007311  0.0009  -0.111369  -0.220433  0.000296  4.02527  0.001
C  C279  1  0.51137009  0.78551326  0.41653770  1  0.007409  0.000899  -0.111449  -0.220381  0.000296  4.025327  0.001
C  C280  1  0.10965253  0.73944634  0.06302901  1  0.349688  -0.002306  0.086698  0.270811  -0.002603  4.015972  -0.002
C  C281  1  0.39034845  0.26055354  0.56302889  1  0.349611  -0.002306  0.086721  0.270816  -0.002603  4.016154  -0.002
C  C282  1  0.89034852  0.26055026  0.93697167  1  0.34985  -0.002305  0.086683  0.270853  -0.002603  4.015906  -0.002
C  C283  1  0.60964417  0.73944443  0.43696898  1  0.349635  -0.002306  0.086712  0.27083  -0.002603  4.016109  -0.002
C  C284  1  0.26059423  0.78698677  0.05246480  1  0.020523  0.000843  -0.103738  -0.195969  0.000289  3.988463  0.001
C  C285  1  0.23940268  0.21301740  0.55246680  1  0.020079  0.000843  -0.103749  -0.195949  0.000289  3.988565  0.001
C  C286  1  0.73940485  0.21301052  0.94753495  1  0.020007  0.000843  -0.103722  -0.195909  0.000289  3.988346  0.001
C  C287  1  0.76059051  0.78697918  0.44752921  1  0.019908  0.000843  -0.103783  -0.196001  0.000289  3.988727  0.001
C  C288  1  0.31517204  0.87968261  0.06374591  1  0.020132  -0.000888  -0.086725  -0.077517  -0.001209  4.000021  0.0
C  C289  1  0.18482587  0.12032071  0.56374722  1  0.020487  -0.000889  -0.086714  -0.077456  -0.001209  4.000114  0.0
C  C290  1  0.68483182  0.12031262  0.93625289  1  0.027059  -0.000891  -0.086746  -0.077458  -0.001209  3.999896  0.0
C  C291  1  0.81516423  0.87967656  0.43624847  1  0.020439  -0.000889  -0.086733  -0.077518  -0.001209  3.999997  0.0
C  C292  1  0.95166846  0.58453827  0.07290928  1  0.332534  -0.000471  0.080285  0.255879  -0.00057  4.042159  0.0
C  C293  1  0.54833057  0.41546451  0.57290808  1  0.332764  -0.000471  0.080308  0.255947  -0.00057  4.042073  0.0
C  C294  1  0.04833484  0.41546111  0.92709420  1  0.332734  -0.000471  0.080247  0.255781  -0.00057  4.042144  0.0
C  C295  1  0.45166458  0.58453139  0.42709166  1  0.332716  -0.000472  0.080176  0.255837  -0.000571  4.042355  0.0
C  C296  1  0.91964892  0.59556031  0.11497925  1  0.012887  0.000556  -0.110768  -0.213962  0.000254  4.025958  0.0
C  C297  1  0.58035011  0.40444047  0.61497845  1  0.012483  0.000556  -0.110745  -0.213789  0.000254  4.025855  0.0
C  C298  1  0.08035887  0.40443631  0.88502330  1  0.012394  0.000556  -0.11068  -0.213697  0.000254  4.025843  0.0
C  C299  1  0.41965179  0.59555822  0.38502223  1  0.012843  0.000556  -0.110722  -0.213921  0.000254  4.025927  0.0
C  C300  1  0.80344575  0.52948436  0.13448432  1  -0.024865  0.000364  -0.086679  -0.074087  -0.000171  4.02349  0.0
C  C301  1  0.69655466  0.47051891  0.63448315  1  -0.038198  0.000373  -0.086759  -0.074528  -0.000171  4.023705  0.0
C  C302  1  0.19655502  0.47051709  0.86551885  1  -0.038116  0.000373  -0.08673  -0.074397  -0.000171  4.023897  0.0
C  C303  1  0.30344948  0.52947978  0.36551503  1  -0.024956  0.000363  -0.086639  -0.074218  -0.000172  4.023657  0.0
C  C304  1  0.72289295  0.45012551  0.11336837  1  0.043539  0.005429  -0.030608  -0.060447  0.002673  4.001849  0.004
C  C305  1  0.77710690  0.54987738  0.61336518  1  0.057078  0.005421  -0.030653  -0.060278  0.002673  4.001726  0.004
C  C306  1  0.27710670  0.54987594  0.88663480  1  0.05716  0.00542  -0.030624  -0.060244  0.002673  4.001647  0.004
C  C307  1  0.22290707  0.45011789  0.38663082  1  0.043686  0.005431  -0.030631  -0.060358  0.002674  4.00188  0.004
C  C308  1  0.76237060  0.43706766  0.07192193  1  -0.113679  -0.000202  -0.086818  -0.07367  -0.00049  3.994752  0.0
C  C309  1  0.73762364  0.56293720  0.57191925  1  -0.111972  -0.000202  -0.086789  -0.073671  -0.00049  3.994499  0.0
C  C310  1  0.23762203  0.56293585  0.92808156  1  -0.113261  -0.000202  -0.086799  -0.073689  -0.00049  3.99457  0.0
C  C311  1  0.26238359  0.43705527  0.42807706  1  -0.112458  -0.000202  -0.086738  -0.073523  -0.00049  3.994647  0.0
C  C312  1  0.87463115  0.50440805  0.05145712  1  -0.011932  0.000123  -0.111334  -0.220694  2.9e-05  4.02545  0.0
C  C313  1  0.62536028  0.49559364  0.55145513  1  -0.013127  0.000123  -0.111364  -0.220725  2.9e-05  4.025281  0.0
C  C314  1  0.12536232  0.49559200  0.94854512  1  -0.01187  0.000122  -0.111363  -0.220679  2.9e-05  4.02552  0.0
C  C315  1  0.37463430  0.50439810  0.44854181  1  -0.012503  0.000123  -0.111413  -0.220706  2.9e-05  4.025429  0.0
C  C316  1  0.59421967  0.38245636  0.13525065  1  1.566983  -0.00077  0.195103  0.565633  -0.001497  4.24859  0.001
C  C317  1  0.90577627  0.61754966  0.63524897  1  1.566787  -0.000773  0.19506  0.565357  -0.001498  4.249009  0.001
C  C318  1  0.40577493  0.61754923  0.86475346  1  1.566716  -0.000773  0.194933  0.565272  -0.001497  4.249075  0.001
C  C319  1  0.09423152  0.38244143  0.36475077  1  1.566368  -0.000773  0.195049  0.565311  -0.001498  4.248487  0.001
N  N320  1  0.19201934  0.23579530  0.15102202  1  -1.232014  0.066972  -0.353799  -0.293612  0.035827  3.623057  0.052
N  N321  1  0.30797301  0.76420950  0.65102373  1  -1.232159  0.06697  -0.353778  -0.293469  0.035827  3.623055  0.052
N  N322  1  0.80797525  0.76420198  0.84897648  1  -1.231932  0.066969  -0.353747  -0.293414  0.035826  3.622912  0.052
N  N323  1  0.69202243  0.23579540  0.34897789  1  -1.231938  0.06697  -0.353802  -0.293581  0.035826  3.623131  0.052
N  N324  1  0.05741060  0.33373106  0.17181619  1  -1.276883  0.001456  -0.229621  0.010272  -7e-06  3.814759  0.001
N  N325  1  0.44258595  0.66627207  0.67181658  1  -1.277079  0.001456  -0.229633  0.010109  -7e-06  3.815056  0.001
N  N326  1  0.94259017  0.66626762  0.82818355  1  -1.276848  0.001456  -0.229619  0.010296  -6e-06  3.814679  0.001
N  N327  1  0.55741876  0.33373355  0.32818472  1  -1.276494  0.001455  -0.229662  0.010178  -7e-06  3.815008  0.001
N  N328  1  0.48944373  0.15466465  0.17683956  1  -1.179169  0.050707  -0.349216  -0.293049  0.027382  3.621836  0.042
N  N329  1  0.01055571  0.84533980  0.67683927  1  -1.179137  0.050706  -0.349215  -0.293006  0.027381  3.621783  0.042
N  N330  1  0.51056604  0.84533960  0.82315894  1  -1.178958  0.050703  -0.349246  -0.292965  0.027382  3.622069  0.042
N  N331  1  0.98943327  0.15466024  0.32315985  1  -1.179007  0.050704  -0.349309  -0.293136  0.027382  3.622013  0.042
N  N332  1  0.62969407  0.08356821  0.21597763  1  -1.240025  0.000723  -0.225419  0.00744  -0.000163  3.802766  0.001
N  N333  1  0.87031083  0.91643666  0.71597734  1  -1.240014  0.000724  -0.225346  0.007486  -0.000163  3.802815  0.001
N  N334  1  0.37031936  0.91643674  0.78402149  1  -1.240176  0.000723  -0.225442  0.007481  -0.000163  3.802837  0.001
N  N335  1  0.12968546  0.08356755  0.28402085  1  -1.239409  0.000723  -0.22544  0.007339  -0.000163  3.802821  0.001
N  N336  1  0.19569094  0.75976550  0.56721672  1  -1.190917  0.045788  -0.337819  -0.279063  0.023287  3.566626  0.042
N  N337  1  0.30431094  0.24023363  0.06721580  1  -1.190882  0.045786  -0.337819  -0.279028  0.023285  3.566749  0.042
N  N338  1  0.80429635  0.24023038  0.43278489  1  -1.190349  0.045788  -0.337772  -0.278908  0.023285  3.566701  0.042
N  N339  1  0.69569348  0.75976299  0.93278457  1  -1.190718  0.04579  -0.337825  -0.279074  0.023286  3.566726  0.042
N  N340  1  0.16159866  0.71578007  0.50113875  1  -1.266323  0.001615  -0.229727  0.006288  0.000446  3.804405  0.001
N  N341  1  0.33840121  0.28421724  0.00113773  1  -1.26636  0.001614  -0.22977  0.006247  0.000446  3.804321  0.001
N  N342  1  0.83838834  0.28421234  0.49886317  1  -1.266379  0.001615  -0.229778  0.006103  0.000446  3.804118  0.001
N  N343  1  0.66159760  0.71577936  0.99886264  1  -1.266388  0.001615  -0.229862  0.006067  0.000446  3.804384  0.001
O  O344  1  0.40909229  0.07323417  0.08867652  1  -1.160135  0.080528  -0.329021  -0.555741  0.041519  2.166331  0.067
O  O345  1  0.09090932  0.92676604  0.58867544  1  -1.160117  0.080533  -0.32899  -0.555725  0.041523  2.16617  0.067
O  O346  1  0.59092590  0.92676042  0.91132354  1  -1.159839  0.080536  -0.328943  -0.555708  0.041523  2.166317  0.067
O  O347  1  0.90907375  0.07323606  0.41132212  1  -1.159735  0.080546  -0.328947  -0.555658  0.041528  2.166243  0.067
O  O348  1  0.19810521  0.05324035  0.12789899  1  -1.157434  0.067028  -0.314079  -0.551235  0.033865  2.251475  0.059
O  O349  1  0.30189664  0.94675859  0.62789879  1  -1.157424  0.067029  -0.314024  -0.551122  0.033865  2.251462  0.059
O  O350  1  0.80191074  0.94676253  0.87209951  1  -1.157671  0.067018  -0.314104  -0.551149  0.033861  2.251571  0.059
O  O351  1  0.69808502  0.05323727  0.37209940  1  -1.157746  0.067022  -0.314119  -0.551156  0.033862  2.251603  0.059
O  O352  1  0.06381594  0.64761773  0.05070839  1  -1.100919  -0.000538  -0.155105  -0.215932  -0.000476  2.553081  0.0
O  O353  1  0.43618010  0.35238439  0.55070895  1  -1.101302  -0.000538  -0.15518  -0.21599  -0.000476  2.553087  0.0
O  O354  1  0.93618483  0.35237818  0.94929197  1  -1.10134  -0.000538  -0.15512  -0.215905  -0.000476  2.553039  0.0
O  O355  1  0.56380943  0.64761703  0.44929048  1  -1.101717  -0.000538  -0.15512  -0.215894  -0.000476  2.553036  0.0
O  O356  1  0.53564971  0.40923049  0.16727358  1  -1.189743  0.001156  -0.337585  -0.573198  -0.000475  2.153497  0.001
O  O357  1  0.96435255  0.59077300  0.66727116  1  -1.189488  0.001155  -0.337507  -0.573055  -0.000477  2.153572  0.001
O  O358  1  0.46434882  0.59077649  0.83273052  1  -1.189395  0.001155  -0.337404  -0.573006  -0.000477  2.153566  0.001
O  O359  1  0.03566254  0.40921396  0.33272640  1  -1.189404  0.001155  -0.337537  -0.573113  -0.000477  2.153304  0.001
O  O360  1  0.55348875  0.30162991  0.11840431  1  -1.161459  0.091767  -0.331857  -0.56589  0.048134  2.395024  0.075
O  O361  1  0.94650892  0.69837567  0.61840085  1  -1.161574  0.091768  -0.331861  -0.565753  0.048135  2.395132  0.075
O  O362  1  0.44650809  0.69837569  0.88160136  1  -1.161648  0.091766  -0.33186  -0.565746  0.048133  2.395134  0.075
O  O363  1  0.05348876  0.30161816  0.38160076  1  -1.161114  0.091763  -0.331852  -0.565688  0.048133  2.394851  0.075
