# generated using pymatgen
data_CdH34C36(N2O3)2
_symmetry_space_group_name_H-M   'P 1'
_cell_length_a   11.54209420
_cell_length_b   13.07139256
_cell_length_c   42.05589770
_cell_angle_alpha   95.82591715
_cell_angle_beta   90.00512993
_cell_angle_gamma   116.23557930
_symmetry_Int_Tables_number   1
_chemical_formula_structural   CdH34C36(N2O3)2
_chemical_formula_sum   'Cd6 H204 C216 N24 O36'
_cell_volume   5654.79839151
_cell_formula_units_Z   6
loop_
 _symmetry_equiv_pos_site_id
 _symmetry_equiv_pos_as_xyz
  1  'x, y, z'
loop_
 _atom_site_type_symbol
 _atom_site_label
 _atom_site_symmetry_multiplicity
 _atom_site_fract_x
 _atom_site_fract_y
 _atom_site_fract_z
 _atom_site_occupancy
 _atom_site_pbe_bader_charge
 _atom_site_pbe_bader_spin_density
 _atom_site_pbe_cm5_charge
 _atom_site_pbe_ddec_charge
 _atom_site_pbe_ddec_spin_density
 _atom_site_pbe_ddec_sum_bond_order
 _atom_site_pbe_magmom
Cd  Cd0  1  0.42923650  0.40421247  0.35009138  1  1.220944  0  0.786201  0.86426  0  2.221574  0
Cd  Cd1  1  0.02532574  0.59536946  0.15009224  1  1.217372  0  0.785795  0.863982  0  2.22167  0
Cd  Cd2  1  0.57076662  0.59578959  0.64991123  1  1.220964  0  0.786138  0.864139  0  2.221615  0
Cd  Cd3  1  0.97467698  0.40462832  0.84990595  1  1.217367  0  0.785797  0.864013  0  2.22174  0
Cd  Cd4  1  0.82549045  0.00020279  0.25000925  1  1.227235  0  0.762888  0.833595  0  2.216367  0
Cd  Cd5  1  0.17450921  0.99979927  0.74999122  1  1.227243  0  0.762927  0.833656  0  2.216384  0
H  H6  1  0.05108611  0.11608523  0.15004125  1  0.0652  0  0.092813  0.080331  0  1.071108  0
H  H7  1  0.93538365  0.88362255  0.34991857  1  0.054165  0  0.092604  0.080441  0  1.070958  0
H  H8  1  0.94891269  0.88391683  0.84995922  1  0.06528  0  0.092798  0.080347  0  1.071028  0
H  H9  1  0.06461648  0.11637351  0.65007980  1  0.05413  0  0.092624  0.080456  0  1.070986  0
H  H10  1  0.10310221  0.07620311  0.09471205  1  0.051347  0  0.098702  0.109444  0  1.054542  0
H  H11  1  0.02678580  0.92340653  0.40531636  1  0.084529  0  0.098946  0.109614  0  1.054614  0
H  H12  1  0.89689701  0.92380153  0.90528778  1  0.051382  0  0.098736  0.10949  0  1.054508  0
H  H13  1  0.97321519  0.07658781  0.59468267  1  0.084584  0  0.098975  0.109619  0  1.054653  0
H  H14  1  0.89985010  0.71215234  0.10241560  1  0.163139  0  0.106114  0.132269  0  1.022415  0
H  H15  1  0.18732266  0.28748672  0.39774559  1  0.126715  0  0.105838  0.131688  0  1.0234  0
H  H16  1  0.10015172  0.28785057  0.89758584  1  0.16307  0  0.106145  0.132259  0  1.022442  0
H  H17  1  0.81267009  0.71251019  0.60225543  1  0.126695  0  0.10579  0.131555  0  1.023473  0
H  H18  1  0.84208335  0.75494467  0.15760591  1  0.073207  0  0.100263  0.100936  0  1.022104  0
H  H19  1  0.08709355  0.24481336  0.34251151  1  0.077095  0  0.100203  0.1009  0  1.022403  0
H  H20  1  0.15791934  0.24505825  0.84239625  1  0.073238  0  0.100241  0.100945  0  1.022114  0
H  H21  1  0.91290354  0.75518182  0.65749016  1  0.077046  0  0.100248  0.100925  0  1.022361  0
H  H22  1  0.17164780  0.01276034  0.05089731  1  0.083955  0  0.098691  0.064163  0  1.038399  0
H  H23  1  0.15826032  0.98697408  0.44926635  1  0.062382  0  0.098496  0.064178  0  1.038654  0
H  H24  1  0.82834710  0.98724086  0.94910241  1  0.083891  0  0.098723  0.064197  0  1.03839  0
H  H25  1  0.84173677  0.01302111  0.55073461  1  0.062411  0  0.098498  0.064144  0  1.038668  0
H  H26  1  0.01268467  0.99589072  0.04610135  1  0.032074  0  0.101133  0.064025  0  1.035513  0
H  H27  1  0.01626446  0.00402435  0.45403376  1  0.061931  0  0.10143  0.064342  0  1.036503  0
H  H28  1  0.98730808  0.00410791  0.95389734  1  0.032168  0  0.101077  0.063983  0  1.03555  0
H  H29  1  0.98373392  0.99597341  0.54596728  1  0.061915  0  0.101389  0.064308  0  1.036563  0
H  H30  1  0.30616116  0.99449112  0.03320486  1  0.047433  0  0.092096  0.129921  0  1.029317  0
H  H31  1  0.31110328  0.00546038  0.46690354  1  -0.002966  0  0.091907  0.129646  0  1.02922  0
H  H32  1  0.69383074  0.00550235  0.96679580  1  0.047475  0  0.092044  0.129863  0  1.029355  0
H  H33  1  0.68889335  0.99454083  0.53309643  1  -0.002937  0  0.091876  0.129607  0  1.02928  0
H  H34  1  0.35706804  0.05719199  0.99726512  1  0.048381  0  0.094742  0.131973  0  0.991919  0
H  H35  1  0.29904648  0.94272026  0.50284579  1  0.044686  0  0.094602  0.132114  0  0.99241  0
H  H36  1  0.64293294  0.94280578  0.00273592  1  0.048363  0  0.094736  0.131942  0  0.991958  0
H  H37  1  0.70095447  0.05728438  0.49715404  1  0.044612  0  0.094622  0.132131  0  0.992469  0
H  H38  1  0.36094117  0.92616686  0.00294935  1  0.041162  0  0.093972  0.128153  0  1.000812  0
H  H39  1  0.43429483  0.07358108  0.49715734  1  0.045205  0  0.093862  0.128345  0  1.000663  0
H  H40  1  0.63905808  0.07382919  0.99705140  1  0.041081  0  0.093998  0.128161  0  1.000775  0
H  H41  1  0.56570611  0.92642528  0.50284279  1  0.045095  0  0.093887  0.128407  0  1.000652  0
H  H42  1  0.35487954  0.92384644  0.95471905  1  0.062469  0  0.100865  0.065263  0  1.033718  0
H  H43  1  0.43120334  0.07666791  0.54536193  1  0.042318  0  0.100672  0.0653  0  1.034297  0
H  H44  1  0.64512273  0.07615218  0.04528202  1  0.06251  0  0.10087  0.065233  0  1.033803  0
H  H45  1  0.56880884  0.92334531  0.45463866  1  0.041904  0  0.100658  0.065268  0  1.03427  0
H  H46  1  0.26009857  0.80466627  0.92641795  1  0.089221  0  0.1041  0.077439  0  0.97969  0
H  H47  1  0.45558447  0.19580969  0.57368355  1  0.034207  0  0.104371  0.078384  0  0.979538  0
H  H48  1  0.73990283  0.19533579  0.07358181  1  0.08919  0  0.104096  0.077449  0  0.979649  0
H  H49  1  0.54441431  0.80419751  0.42631827  1  0.03423  0  0.104372  0.078356  0  0.97955  0
H  H50  1  0.06433758  0.80955391  0.89671597  1  0.071762  0  0.095892  0.138734  0  1.020949  0
H  H51  1  0.25472015  0.19051227  0.60335678  1  0.073404  0  0.095914  0.138617  0  1.020157  0
H  H52  1  0.93566515  0.19044043  0.10328330  1  0.072105  0  0.095852  0.138625  0  1.020977  0
H  H53  1  0.74528124  0.80949150  0.39664492  1  0.073428  0  0.09593  0.138661  0  1.020121  0
H  H54  1  0.91058869  0.69808412  0.90237534  1  0.056705  0  0.084477  0.116125  0  1.048821  0
H  H55  1  0.21263396  0.30204037  0.59771513  1  0.037837  0  0.084321  0.116086  0  1.048352  0
H  H56  1  0.08941577  0.30191194  0.09762422  1  0.056627  0  0.084471  0.116094  0  1.048795  0
H  H57  1  0.78736916  0.69796513  0.40228615  1  0.038061  0  0.084335  0.116135  0  1.048323  0
H  H58  1  0.05120715  0.67881350  0.90817486  1  0.043699  0  0.095581  0.139315  0  0.988271  0
H  H59  1  0.37253799  0.32130841  0.59195728  1  0.060802  0  0.095641  0.139912  0  0.98816  0
H  H60  1  0.94879471  0.32118083  0.09182536  1  0.0438  0  0.095595  0.139311  0  0.988139  0
H  H61  1  0.62746426  0.67869708  0.40804378  1  0.060834  0  0.095675  0.139978  0  0.98818  0
H  H62  1  0.78021983  0.62630656  0.93307416  1  0.065771  0  0.102979  0.071567  0  0.994082  0
H  H63  1  0.15410318  0.37377857  0.56702302  1  0.052213  0  0.102869  0.071615  0  0.993976  0
H  H64  1  0.21977941  0.37369465  0.06692438  1  0.065796  0  0.102998  0.071596  0  0.994105  0
H  H65  1  0.84589518  0.62622435  0.43297700  1  0.052181  0  0.102858  0.071595  0  0.994054  0
H  H66  1  0.71928616  0.65148803  0.97027286  1  0.055704  0  0.104363  0.073066  0  0.992596  0
H  H67  1  0.06839814  0.34882784  0.52975997  1  0.041781  0  0.104827  0.073892  0  0.99255  0
H  H68  1  0.28071310  0.34850803  0.02972623  1  0.055796  0  0.104381  0.073113  0  0.992622  0
H  H69  1  0.93159849  0.65117336  0.47024070  1  0.041874  0  0.104835  0.074008  0  0.992489  0
H  H70  1  0.73397747  0.79580779  0.99990882  1  0.034216  0  0.089169  0.12323  0  1.023068  0
H  H71  1  0.93828567  0.20438368  0.50018088  1  0.022815  0  0.089457  0.123663  0  1.023539  0
H  H72  1  0.26602132  0.20419600  0.00008908  1  0.034395  0  0.089156  0.123197  0  1.023035  0
H  H73  1  0.06171140  0.79561666  0.49982024  1  0.023034  0  0.089499  0.123696  0  1.023469  0
H  H74  1  0.83626995  0.88462619  0.03266358  1  0.074525  0  0.094312  0.133584  0  1.025053  0
H  H75  1  0.95154920  0.11553694  0.46742332  1  0.042157  0  0.094714  0.133462  0  1.024766  0
H  H76  1  0.16373014  0.11537674  0.96733501  1  0.074536  0  0.094306  0.133579  0  1.025065  0
H  H77  1  0.04844916  0.88446425  0.53257854  1  0.042067  0  0.094703  0.133413  0  1.024784  0
H  H78  1  0.78876556  0.73615700  0.02939074  1  0.060686  0  0.097654  0.140087  0  0.981528  0
H  H79  1  0.05267085  0.26399606  0.47067969  1  0.055578  0  0.097666  0.140362  0  0.981233  0
H  H80  1  0.21123107  0.26384593  0.97060690  1  0.05901  0  0.097593  0.140018  0  0.981564  0
H  H81  1  0.94732709  0.73600429  0.52932120  1  0.05549  0  0.097657  0.140344  0  0.981167  0
H  H82  1  0.26426697  0.06370910  0.86966628  1  0.098327  0  0.099482  0.115987  0  1.036778  0
H  H83  1  0.20066608  0.93652618  0.63044903  1  0.099159  0  0.099503  0.11657  0  1.03672  0
H  H84  1  0.73572839  0.93628781  0.13033449  1  0.09825  0  0.09951  0.116029  0  1.036813  0
H  H85  1  0.79933538  0.06346388  0.36954844  1  0.09926  0  0.099485  0.11652  0  1.036829  0
H  H86  1  0.45557049  0.17737820  0.83899131  1  0.076225  0  0.099269  0.104084  0  1.019539  0
H  H87  1  0.27822597  0.82265049  0.66102271  1  0.07953  0  0.099442  0.104526  0  1.020383  0
H  H88  1  0.54442139  0.82261871  0.16100733  1  0.07637  0  0.099226  0.104016  0  1.019655  0
H  H89  1  0.72178195  0.17734557  0.33897471  1  0.079402  0  0.099439  0.104509  0  1.020337  0
H  H90  1  0.69913447  0.10384623  0.90065685  1  0.079247  0  0.101103  0.109441  0  1.004034  0
H  H91  1  0.59524523  0.89622994  0.59933761  1  0.079816  0  0.101116  0.109251  0  1.003341  0
H  H92  1  0.30086907  0.89616184  0.09934285  1  0.079122  0  0.101165  0.109457  0  1.004065  0
H  H93  1  0.40477257  0.10378586  0.40066543  1  0.079918  0  0.10115  0.109325  0  1.003193  0
H  H94  1  0.50792548  0.97866085  0.92877359  1  0.031086  0  0.094926  0.09919  0  1.056915  0
H  H95  1  0.52928771  0.02143264  0.57125423  1  0.032195  0  0.094865  0.099065  0  1.056623  0
H  H96  1  0.49207849  0.02134636  0.07122751  1  0.031067  0  0.094894  0.099116  0  1.056996  0
H  H97  1  0.47072405  0.97857629  0.42874598  1  0.031796  0  0.094868  0.099037  0  1.056676  0
H  H98  1  0.63892427  0.86872293  0.90533683  1  0.052188  0  0.104355  0.116829  0  1.014017  0
H  H99  1  0.77000015  0.13134389  0.59455409  1  0.089616  0  0.104401  0.116956  0  1.013221  0
H  H100  1  0.36107498  0.13127655  0.09466260  1  0.05203  0  0.104362  0.116852  0  1.013987  0
H  H101  1  0.23000081  0.86865902  0.40544759  1  0.089549  0  0.104387  0.116976  0  1.013184  0
H  H102  1  0.42215419  0.78219894  0.87642462  1  0.110205  0  0.103765  0.106015  0  1.01002  0
H  H103  1  0.63980182  0.21787105  0.62344035  1  0.090328  0  0.103917  0.106397  0  1.009091  0
H  H104  1  0.57784852  0.21780055  0.12357339  1  0.110131  0  0.103767  0.106022  0  1.010008  0
H  H105  1  0.36018316  0.78211899  0.37655997  1  0.090403  0  0.103912  0.106465  0  1.009  0
H  H106  1  0.33454999  0.45865803  0.91056024  1  0.097706  0  0.106283  0.111886  0  0.997315  0
H  H107  1  0.87640918  0.54146015  0.58934205  1  0.079355  0  0.106047  0.110974  0  0.997674  0
H  H108  1  0.66545270  0.54134490  0.08943787  1  0.097588  0  0.106288  0.111927  0  0.997302  0
H  H109  1  0.12356277  0.45853847  0.41065640  1  0.079744  0  0.105974  0.110927  0  0.997742  0
H  H110  1  0.55197415  0.54079434  0.93809815  1  0.061367  0  0.102197  0.112642  0  1.021495  0
H  H111  1  0.01159950  0.45931269  0.56183641  1  0.089217  0  0.102143  0.11237  0  1.021015  0
H  H112  1  0.44802726  0.45920429  0.06190101  1  0.061335  0  0.102207  0.112673  0  1.021545  0
H  H113  1  0.98838888  0.54069451  0.43816541  1  0.089493  0  0.102179  0.112376  0  1.021086  0
H  H114  1  0.74079487  0.45335368  0.36432184  1  0.137106  0  0.142489  0.111354  0  0.986478  0
H  H115  1  0.28778114  0.54646912  0.13572917  1  0.13808  0  0.142538  0.111173  0  0.986252  0
H  H116  1  0.25919832  0.54664237  0.63567796  1  0.136898  0  0.142455  0.111293  0  0.986409  0
H  H117  1  0.71222117  0.45352265  0.86426883  1  0.136713  0  0.142507  0.111128  0  0.986305  0
H  H118  1  0.87043098  0.75037470  0.31561170  1  0.159226  0  0.125123  0.133889  0  1.031164  0
H  H119  1  0.12043222  0.24929490  0.18436930  1  0.156785  0  0.124948  0.133391  0  1.030585  0
H  H120  1  0.12956696  0.24962392  0.68439079  1  0.159149  0  0.125076  0.133854  0  1.031141  0
H  H121  1  0.87957048  0.75070630  0.81563185  1  0.156991  0  0.124928  0.133359  0  1.03063  0
H  H122  1  0.60480778  0.66388568  0.32372052  1  0.157047  0  0.120325  0.118167  0  1.023493  0
H  H123  1  0.94121456  0.33560012  0.17636619  1  0.153659  0  0.120244  0.11786  0  1.024637  0
H  H124  1  0.39519532  0.33612324  0.67628183  1  0.157113  0  0.120282  0.118132  0  1.023541  0
H  H125  1  0.05879030  0.66440194  0.82363428  1  0.153568  0  0.12023  0.117849  0  1.024643  0
H  H126  1  0.03497554  0.70383664  0.35819745  1  0.086092  0  0.108085  0.09162  0  1.027861  0
H  H127  1  0.33141232  0.29604721  0.14174979  1  0.083231  0  0.108117  0.092023  0  1.028534  0
H  H128  1  0.96502284  0.29616112  0.64180311  1  0.086063  0  0.108095  0.091631  0  1.027792  0
H  H129  1  0.66859172  0.70394627  0.85824945  1  0.083313  0  0.108113  0.091919  0  1.028505  0
H  H130  1  0.97242100  0.55701626  0.36115879  1  0.076862  0  0.110813  0.088039  0  1.027789  0
H  H131  1  0.41571632  0.44284473  0.13875961  1  0.082083  0  0.110833  0.088161  0  1.027596  0
H  H132  1  0.02757866  0.44298580  0.63884239  1  0.076765  0  0.110817  0.088051  0  1.027764  0
H  H133  1  0.58428467  0.55714961  0.86123990  1  0.081988  0  0.110806  0.08812  0  1.027582  0
H  H134  1  0.12920330  0.82826838  0.33838597  1  0.026996  0  0.090329  0.12768  0  1.037533  0
H  H135  1  0.30069118  0.17162399  0.16161724  1  0.028526  0  0.090355  0.127289  0  1.038231  0
H  H136  1  0.87079681  0.17172938  0.66161555  1  0.02695  0  0.09034  0.127716  0  1.037554  0
H  H137  1  0.69930852  0.82837121  0.83838135  1  0.02863  0  0.090345  0.127281  0  1.038205  0
H  H138  1  0.25527870  0.87950061  0.31229252  1  0.050039  0  0.094624  0.133757  0  1.000507  0
H  H139  1  0.37565036  0.12052163  0.18769822  1  0.017324  0  0.094684  0.133594  0  1.001186  0
H  H140  1  0.74472055  0.12049716  0.68770876  1  0.050017  0  0.094612  0.13372  0  1.000559  0
H  H141  1  0.62434933  0.87947529  0.81230113  1  0.017348  0  0.09469  0.133601  0  1.001237  0
H  H142  1  0.09737859  0.85586938  0.30011367  1  0.08138  0  0.094054  0.137344  0  1.014104  0
H  H143  1  0.24154699  0.14423224  0.19991293  1  0.09644  0  0.093906  0.136785  0  1.013963  0
H  H144  1  0.90262282  0.14413096  0.69988817  1  0.081287  0  0.094055  0.137364  0  1.01417  0
H  H145  1  0.75845443  0.85576468  0.80008619  1  0.096409  0  0.093933  0.13684  0  1.013938  0
H  H146  1  0.82304667  0.37299342  0.31672435  1  0.071412  0  0.093203  0.137022  0  1.02083  0
H  H147  1  0.44983051  0.62679595  0.18331427  1  0.056137  0  0.093366  0.137204  0  1.020666  0
H  H148  1  0.17695301  0.62700521  0.68327601  1  0.071427  0  0.093253  0.137099  0  1.020734  0
H  H149  1  0.55017179  0.37319753  0.81668450  1  0.056643  0  0.09333  0.137211  0  1.020667  0
H  H150  1  0.93024701  0.31044887  0.30943841  1  0.067227  0  0.094563  0.140388  0  1.038321  0
H  H151  1  0.61972680  0.68964620  0.19054835  1  0.070404  0  0.094397  0.140806  0  1.038323  0
H  H152  1  0.06975179  0.68955147  0.69056224  1  0.067287  0  0.094538  0.140355  0  1.038329  0
H  H153  1  0.38027549  0.31034900  0.80945070  1  0.070387  0  0.094401  0.140816  0  1.038305  0
H  H154  1  0.95435004  0.40564824  0.34402055  1  0.044703  0  0.091913  0.128926  0  1.008871  0
H  H155  1  0.54843684  0.59444755  0.15595877  1  0.043139  0  0.091823  0.129081  0  1.008082  0
H  H156  1  0.04564920  0.59435125  0.65597959  1  0.044716  0  0.091891  0.128904  0  1.00895  0
H  H157  1  0.45156674  0.40554850  0.84404103  1  0.043058  0  0.091798  0.129097  0  1.008078  0
H  H158  1  0.34357267  0.61008988  0.23867288  1  0.088597  0  0.093421  0.134353  0  1.002642  0
H  H159  1  0.73341069  0.39024932  0.26138562  1  0.040974  0  0.093628  0.134846  0  1.003154  0
H  H160  1  0.65642830  0.38991132  0.76132708  1  0.088603  0  0.093428  0.134368  0  1.002635  0
H  H161  1  0.26659853  0.60974932  0.73861212  1  0.04118  0  0.093673  0.134876  0  1.003164  0
H  H162  1  0.22458459  0.47117912  0.22543844  1  0.036503  0  0.086328  0.115363  0  1.065996  0
H  H163  1  0.75341505  0.52914463  0.27460315  1  0.044182  0  0.086315  0.115188  0  1.066282  0
H  H164  1  0.77541811  0.52882208  0.77456271  1  0.036455  0  0.086362  0.115405  0  1.06602  0
H  H165  1  0.24659286  0.47085487  0.72539509  1  0.04392  0  0.086348  0.115239  0  1.066217  0
H  H166  1  0.22144505  0.59223553  0.21046235  1  0.084674  0  0.093854  0.142096  0  1.031919  0
H  H167  1  0.62905948  0.40805695  0.28957338  1  0.094513  0  0.09416  0.142782  0  1.031436  0
H  H168  1  0.77855290  0.40776138  0.78953747  1  0.084633  0  0.093864  0.142159  0  1.031975  0
H  H169  1  0.37095363  0.59194255  0.71042534  1  0.094902  0  0.094139  0.142742  0  1.031501  0
H  H170  1  0.26175510  0.85828358  0.26221818  1  0.042685  0  0.110666  0.094299  0  0.984943  0
H  H171  1  0.40344105  0.14189693  0.23779988  1  0.04334  0  0.110567  0.093699  0  0.98524  0
H  H172  1  0.73824675  0.14171419  0.73778144  1  0.042702  0  0.11065  0.09429  0  0.98488  0
H  H173  1  0.59655950  0.85809999  0.76220066  1  0.043358  0  0.110559  0.093709  0  0.985237  0
H  H174  1  0.27173078  0.76312309  0.23038427  1  0.093872  0  0.118244  0.115209  0  1.017676  0
H  H175  1  0.50866853  0.23714325  0.26962887  1  0.09214  0  0.118506  0.115529  0  1.017347  0
H  H176  1  0.72826802  0.23687725  0.76961709  1  0.093829  0  0.118195  0.115109  0  1.017758  0
H  H177  1  0.49133331  0.76285624  0.73037175  1  0.092194  0  0.118503  0.115564  0  1.017353  0
H  H178  1  0.50648532  0.87361787  0.22411318  1  0.163962  0  0.140627  0.116112  0  0.98641  0
H  H179  1  0.63299473  0.12703695  0.27596467  1  0.162721  0  0.140389  0.116117  0  0.986324  0
H  H180  1  0.49351477  0.12638505  0.77588708  1  0.163985  0  0.140592  0.116039  0  0.986413  0
H  H181  1  0.36701186  0.87296683  0.72403633  1  0.163153  0  0.140436  0.116151  0  0.986263  0
H  H182  1  0.65966818  0.85576612  0.31345132  1  0.109066  0  0.120569  0.12011  0  1.000535  0
H  H183  1  0.80361159  0.14407426  0.18656981  1  0.113588  0  0.120382  0.119668  0  1.000791  0
H  H184  1  0.34033408  0.14423594  0.68654748  1  0.109171  0  0.120552  0.120033  0  1.000548  0
H  H185  1  0.19639239  0.85592951  0.81343190  1  0.112231  0  0.120417  0.119738  0  1.000793  0
H  H186  1  0.39196244  0.76064047  0.31505188  1  0.156992  0  0.123702  0.132735  0  1.028966  0
H  H187  1  0.63127319  0.23929157  0.18494167  1  0.152635  0  0.123475  0.132801  0  1.029331  0
H  H188  1  0.60804201  0.23935730  0.68494750  1  0.156836  0  0.123664  0.132611  0  1.029006  0
H  H189  1  0.36872347  0.76070448  0.81505861  1  0.152665  0  0.123466  0.132826  0  1.029267  0
H  H190  1  0.95783147  0.29006482  0.26513484  1  0.090655  0  0.113093  0.103224  0  1.011947  0
H  H191  1  0.66786675  0.71011827  0.23486657  1  0.091216  0  0.112953  0.103479  0  1.01193  0
H  H192  1  0.04216473  0.70993553  0.73486486  1  0.090701  0  0.113114  0.103271  0  1.011881  0
H  H193  1  0.33213770  0.28987950  0.76513233  1  0.091127  0  0.112954  0.103494  0  1.011799  0
H  H194  1  0.05381271  0.35117759  0.23327814  1  0.038778  0  0.109185  0.091505  0  1.019235  0
H  H195  1  0.70265789  0.64896798  0.26672802  1  0.039642  0  0.109273  0.091503  0  1.019639  0
H  H196  1  0.94618479  0.64882361  0.76672302  1  0.038725  0  0.109159  0.09146  0  1.019273  0
H  H197  1  0.29734960  0.35102894  0.73327062  1  0.039584  0  0.109238  0.091431  0  1.019633  0
H  H198  1  0.25329420  0.47997480  0.30720981  1  0.195019  0  0.132567  0.106193  0  1.038086  0
H  H199  1  0.77329356  0.52013395  0.19288141  1  0.179883  0  0.132773  0.106465  0  1.038025  0
H  H200  1  0.74669465  0.52002296  0.69279194  1  0.19529  0  0.132533  0.106092  0  1.038119  0
H  H201  1  0.22671261  0.47986727  0.80711570  1  0.179837  0  0.132776  0.106452  0  1.038149  0
H  H202  1  0.30427052  0.18088901  0.28735784  1  0.108762  0  0.119735  0.113875  0  1.003  0
H  H203  1  0.12370148  0.81930477  0.21269250  1  0.123397  0  0.119894  0.114369  0  1.00266  0
H  H204  1  0.69572524  0.81911219  0.71264379  1  0.10867  0  0.119795  0.114012  0  1.003039  0
H  H205  1  0.87630253  0.18069387  0.78730691  1  0.123473  0  0.119897  0.114315  0  1.002627  0
H  H206  1  0.10777637  0.16748511  0.24560234  1  0.162516  0  0.119111  0.13016  0  1.060269  0
H  H207  1  0.94052560  0.83279292  0.25440394  1  0.157739  0  0.11887  0.129563  0  1.061465  0
H  H208  1  0.89222288  0.83251438  0.75439686  1  0.162639  0  0.119138  0.130215  0  1.060238  0
H  H209  1  0.05948015  0.16720399  0.74559613  1  0.157653  0  0.118883  0.129576  0  1.061436  0
C  C210  1  0.91064476  0.96545374  0.19059176  1  1.514492  0  0.185769  0.554989  0  4.239013  0
C  C211  1  0.94557681  0.03428812  0.30941552  1  1.516081  0  0.18718  0.555915  0  4.2382  0
C  C212  1  0.08935834  0.03455519  0.80940893  1  1.514322  0  0.185792  0.555203  0  4.238771  0
C  C213  1  0.05442633  0.96571223  0.69058465  1  1.516012  0  0.187237  0.555953  0  4.238166  0
C  C214  1  0.94473675  0.93884061  0.15776609  1  -0.045777  0  -0.037009  -0.073113  0  4.024342  0
C  C215  1  0.00613525  0.06089614  0.34226817  1  -0.035391  0  -0.036837  -0.073327  0  4.023371  0
C  C216  1  0.05526766  0.06116574  0.84223428  1  -0.045582  0  -0.036985  -0.073118  0  4.024517  0
C  C217  1  0.99386963  0.93910249  0.65773147  1  -0.035507  0  -0.036892  -0.073506  0  4.02347  0
C  C218  1  0.01886218  0.02767951  0.13970639  1  0.014079  0  -0.091014  -0.068398  0  4.019606  0
C  C219  1  0.99142238  0.97202355  0.36030230  1  -0.041067  0  -0.090844  -0.06874  0  4.019283  0
C  C220  1  0.98114396  0.97232685  0.86029421  1  0.014153  0  -0.091075  -0.068465  0  4.019498  0
C  C221  1  0.00857731  0.02797165  0.63969675  1  -0.040796  0  -0.090933  -0.06885  0  4.019414  0
C  C222  1  0.04802846  0.00530274  0.10845369  1  -0.020748  0  -0.116968  -0.234619  0  4.006819  0
C  C223  1  0.04270346  0.99434096  0.39158840  1  -0.053506  0  -0.117611  -0.234164  0  4.007302  0
C  C224  1  0.95197336  0.99470190  0.89154638  1  -0.021129  0  -0.117024  -0.234711  0  4.006789  0
C  C225  1  0.95729796  0.00565596  0.60841047  1  -0.053633  0  -0.117533  -0.234005  0  4.007218  0
C  C226  1  0.00447077  0.89092372  0.09513095  1  0.423853  0  0.088376  0.274653  0  4.050241  0
C  C227  1  0.11338481  0.10871716  0.40495632  1  0.461244  0  0.088071  0.2734  0  4.051682  0
C  C228  1  0.99552413  0.10907920  0.90486906  1  0.424385  0  0.088418  0.274629  0  4.050038  0
C  C229  1  0.88661098  0.89127717  0.59504461  1  0.461102  0  0.08798  0.273268  0  4.05185  0
C  C230  1  0.93169955  0.80049351  0.11304253  1  -0.101292  0  -0.10356  -0.202897  0  3.973264  0
C  C231  1  0.13097373  0.19917582  0.38706963  1  -0.041551  0  -0.102734  -0.201512  0  3.973155  0
C  C232  1  0.06829490  0.19951026  0.88695870  1  -0.101287  0  -0.103509  -0.202611  0  3.973134  0
C  C233  1  0.86902292  0.80082195  0.61293165  1  -0.04187  0  -0.102695  -0.201369  0  3.973317  0
C  C234  1  0.90079850  0.82470376  0.14384561  1  0.001106  0  -0.084593  -0.072013  0  3.995494  0
C  C235  1  0.07606468  0.17501091  0.35624437  1  -0.010056  0  -0.085621  -0.073063  0  3.996901  0
C  C236  1  0.09920117  0.17529830  0.85615604  1  0.000803  0  -0.08457  -0.072198  0  3.995822  0
C  C237  1  0.92393847  0.82498601  0.64375570  1  -0.00976  0  -0.085634  -0.072992  0  3.996831  0
C  C238  1  0.07246580  0.94936654  0.04364755  1  0.41323  0  -0.067471  -0.013087  0  3.922386  0
C  C239  1  0.12264065  0.05043827  0.45648249  1  0.409409  0  -0.067646  -0.013223  0  3.922915  0
C  C240  1  0.92752954  0.05063380  0.95635167  1  0.41325  0  -0.067439  -0.013127  0  3.922333  0
C  C241  1  0.87735991  0.94955692  0.54351824  1  0.409111  0  -0.067632  -0.013221  0  3.923092  0
C  C242  1  0.05956179  0.89330269  0.01008932  1  0.008235  0  -0.01998  -0.040758  0  3.920787  0
C  C243  1  0.16603003  0.10672119  0.49001238  1  -0.047896  0  -0.020477  -0.040968  0  3.921948  0
C  C244  1  0.94043745  0.10669851  0.98991088  1  0.008265  0  -0.019961  -0.040694  0  3.920754  0
C  C245  1  0.83397222  0.89328259  0.50998814  1  -0.047907  0  -0.020438  -0.040922  0  3.921862  0
C  C246  1  0.16872006  0.90808609  0.99247499  1  0.02713  0  -0.000742  0.095194  0  3.929712  0
C  C247  1  0.26042925  0.09203330  0.50763431  1  0.048125  0  -0.00064  0.095509  0  3.92928  0
C  C248  1  0.83127746  0.09191168  0.00752510  1  0.02714  0  -0.000799  0.095165  0  3.929679  0
C  C249  1  0.73957256  0.90797477  0.49236659  1  0.048033  0  -0.000575  0.095666  0  3.928945  0
C  C250  1  0.15011978  0.85925380  0.96029060  1  -0.059046  0  -0.024285  -0.055465  0  3.934869  0
C  C251  1  0.29090878  0.14097148  0.53980532  1  0.007415  0  -0.023487  -0.054286  0  3.935296  0
C  C252  1  0.84987818  0.14074139  0.03970989  1  -0.044527  0  -0.024263  -0.055499  0  3.934865  0
C  C253  1  0.70909563  0.85903487  0.46019480  1  0.007638  0  -0.023515  -0.054406  0  3.935373  0
C  C254  1  0.02503682  0.79041934  0.94627625  1  0.013251  0  -0.00126  0.101545  0  3.939353  0
C  C255  1  0.23475606  0.20979396  0.55380403  1  -0.060598  0  -0.001168  0.101024  0  3.940214  0
C  C256  1  0.97496373  0.20957758  0.05372358  1  0.013219  0  -0.00124  0.101535  0  3.939104  0
C  C257  1  0.76524447  0.79020810  0.44619667  1  -0.060759  0  -0.001213  0.101033  0  3.940421  0
C  C258  1  0.91719941  0.77091526  0.96486198  1  -0.044842  0  -0.026862  -0.061461  0  3.946505  0
C  C259  1  0.14649714  0.22926367  0.53519694  1  -0.043434  0  -0.026441  -0.05921  0  3.946017  0
C  C260  1  0.08279984  0.22908251  0.03513693  1  -0.044857  0  -0.026833  -0.06136  0  3.94636  0
C  C261  1  0.85349517  0.77073410  0.46480458  1  -0.043343  0  -0.026454  -0.059218  0  3.946038  0
C  C262  1  0.93360542  0.82508541  0.99637790  1  0.004923  0  0.001256  0.10241  0  3.921572  0
C  C263  1  0.10855577  0.17507045  0.50369143  1  0.058407  0  0.000911  0.101739  0  3.922826  0
C  C264  1  0.06639296  0.17491409  0.00362081  1  0.005113  0  0.001289  0.102464  0  3.92152  0
C  C265  1  0.89144216  0.82493161  0.49630880  1  0.058406  0  0.000918  0.101771  0  3.922829  0
C  C266  1  0.30468283  0.97508364  0.00726618  1  -0.099442  0  -0.237765  -0.406943  0  3.967509  0
C  C267  1  0.32903412  0.02483952  0.49284414  1  -0.050864  0  -0.237471  -0.407274  0  3.967973  0
C  C268  1  0.69531513  0.02491327  0.99273484  1  -0.099421  0  -0.237721  -0.406857  0  3.967507  0
C  C269  1  0.67096509  0.97516683  0.50715647  1  -0.050751  0  -0.237502  -0.407349  0  3.968102  0
C  C270  1  0.26455499  0.88326184  0.93995917  1  0.349848  0  -0.062973  0.001595  0  3.892405  0
C  C271  1  0.38147743  0.11715803  0.56013495  1  0.411135  0  -0.063734  -0.001512  0  3.895299  0
C  C272  1  0.73544728  0.11673850  0.06004171  1  0.335378  0  -0.063039  0.001539  0  3.892481  0
C  C273  1  0.61852914  0.88284919  0.43986497  1  0.411871  0  -0.063642  -0.001374  0  3.895199  0
C  C274  1  0.01107522  0.74124151  0.91171693  1  -0.10063  0  -0.245184  -0.417972  0  3.961225  0
C  C275  1  0.26991031  0.25888824  0.58837546  1  -0.075657  0  -0.245655  -0.419006  0  3.960329  0
C  C276  1  0.98892707  0.25875368  0.08828237  1  -0.100937  0  -0.245136  -0.417808  0  3.960983  0
C  C277  1  0.73008849  0.74111382  0.41162549  1  -0.075959  0  -0.245677  -0.41914  0  3.960396  0
C  C278  1  0.78257607  0.69384551  0.95131444  1  0.379865  0  -0.062543  -0.000263  0  3.912744  0
C  C279  1  0.08906915  0.30633438  0.54872055  1  0.376162  0  -0.063485  -0.00278  0  3.91442  0
C  C280  1  0.21742013  0.30615484  0.04868407  1  0.3798  0  -0.062649  -0.000466  0  3.912983  0
C  C281  1  0.91092751  0.69366340  0.45127859  1  0.376106  0  -0.063453  -0.002863  0  3.914346  0
C  C282  1  0.81708579  0.80958195  0.01540116  1  -0.107318  0  -0.240469  -0.415284  0  3.964964  0
C  C283  1  0.00755849  0.19058040  0.48468244  1  -0.058514  0  -0.241033  -0.415966  0  3.9657  0
C  C284  1  0.18291301  0.19042012  0.98459693  1  -0.106072  0  -0.24042  -0.41523  0  3.964956  0
C  C285  1  0.99244161  0.80942080  0.51531895  1  -0.058561  0  -0.241067  -0.415956  0  3.965476  0
C  C286  1  0.37371678  0.01570183  0.90137541  1  0.473417  0  0.080897  0.261534  0  4.064092  0
C  C287  1  0.35818059  0.98462131  0.59871263  1  0.431311  0  0.081233  0.261685  0  4.064083  0
C  C288  1  0.62628201  0.98430023  0.09862601  1  0.473421  0  0.080871  0.261478  0  4.064094  0
C  C289  1  0.64182472  0.01537818  0.40128562  1  0.477533  0  0.081085  0.26137  0  4.064256  0
C  C290  1  0.35962197  0.07100201  0.87574798  1  -0.055918  0  -0.110389  -0.203968  0  3.990157  0
C  C291  1  0.28872220  0.92925553  0.62433696  1  -0.028529  0  -0.110336  -0.204821  0  3.991446  0
C  C292  1  0.64037770  0.92899833  0.12425267  1  -0.055637  0  -0.110444  -0.204106  0  3.99029  0
C  C293  1  0.71127407  0.07073110  0.37565921  1  -0.075047  0  -0.110357  -0.204839  0  3.9916  0
C  C294  1  0.46669918  0.13496089  0.85898282  1  0.003207  0  -0.091268  -0.083575  0  4.011467  0
C  C295  1  0.33178591  0.86517554  0.64104610  1  -0.013644  0  -0.091201  -0.084363  0  4.012748  0
C  C296  1  0.53329659  0.86503860  0.14101637  1  0.002493  0  -0.091275  -0.083466  0  4.011563  0
C  C297  1  0.66822199  0.13482567  0.35895315  1  -0.013994  0  -0.091194  -0.084321  0  4.012497  0
C  C298  1  0.59018755  0.14849165  0.86807423  1  -0.028954  0  -0.04045  -0.070484  0  4.024106  0
C  C299  1  0.44165719  0.85157878  0.63193067  1  -0.011775  0  -0.040297  -0.070044  0  4.023534  0
C  C300  1  0.40980950  0.85151384  0.13192610  1  -0.029466  0  -0.040328  -0.07031  0  4.023937  0
C  C301  1  0.55836625  0.14843444  0.36807181  1  -0.011646  0  -0.040307  -0.069948  0  4.023184  0
C  C302  1  0.60278115  0.09196431  0.89345980  1  -0.010471  0  -0.089846  -0.069747  0  4.003122  0
C  C303  1  0.51080378  0.90812223  0.60654851  1  -0.016361  0  -0.090614  -0.069681  0  4.001027  0
C  C304  1  0.39721850  0.90804119  0.10653983  1  -0.010027  0  -0.089948  -0.069798  0  4.00322  0
C  C305  1  0.48921015  0.09188584  0.39345120  1  -0.015849  0  -0.09066  -0.069802  0  4.001081  0
C  C306  1  0.49545221  0.02353002  0.90962991  1  -0.092357  0  -0.121511  -0.241614  0  4.047645  0
C  C307  1  0.47198618  0.97665918  0.59042151  1  -0.083728  0  -0.12109  -0.240843  0  4.046582  0
C  C308  1  0.50454874  0.97647634  0.09037069  1  -0.092415  0  -0.121489  -0.241581  0  4.047728  0
C  C309  1  0.52802342  0.02334890  0.40957819  1  -0.083221  0  -0.121045  -0.240666  0  4.046751  0
C  C310  1  0.70791541  0.22754182  0.85249338  1  1.538614  0  0.183917  0.558798  0  4.270699  0
C  C311  1  0.48029291  0.77247547  0.64747795  1  1.545055  0  0.183517  0.558592  0  4.271366  0
C  C312  1  0.29207387  0.77245681  0.14750460  1  1.539258  0  0.183818  0.558413  0  4.270997  0
C  C313  1  0.51973224  0.22754290  0.35252565  1  1.545032  0  0.183556  0.558443  0  4.270993  0
C  C314  1  0.61000428  0.71052563  0.92326174  1  0.395764  0  0.078918  0.251559  0  4.084355  0
C  C315  1  0.89959397  0.28956486  0.57665659  1  0.435695  0  0.078262  0.25159  0  4.081906  0
C  C316  1  0.38999452  0.28947643  0.07673873  1  0.39584  0  0.078947  0.25165  0  4.084389  0
C  C317  1  0.10039139  0.71043977  0.42334348  1  0.435779  0  0.078247  0.251724  0  4.08183  0
C  C318  1  0.57160582  0.77878885  0.90633471  1  -0.045531  0  -0.109459  -0.217674  0  4.01205  0
C  C319  1  0.79276456  0.22129237  0.59355708  1  -0.018277  0  -0.109091  -0.21723  0  4.010775  0
C  C320  1  0.42839344  0.22120893  0.09366372  1  -0.04551  0  -0.109569  -0.217812  0  4.012075  0
C  C321  1  0.20722472  0.77870626  0.40644232  1  -0.017557  0  -0.109073  -0.217323  0  4.010746  0
C  C322  1  0.45114657  0.73026196  0.89018463  1  -0.031867  0  -0.084515  -0.075866  0  4.002456  0
C  C323  1  0.72087522  0.26982351  0.60969785  1  -0.088879  0  -0.08488  -0.077152  0  4.001893  0
C  C324  1  0.54885700  0.26973925  0.10981320  1  -0.03174  0  -0.084412  -0.075773  0  4.00233  0
C  C325  1  0.27910672  0.73016911  0.39030065  1  -0.089268  0  -0.084951  -0.077323  0  4.00174  0
C  C326  1  0.36493937  0.61425996  0.89132493  1  -0.034375  0  -0.031775  -0.058422  0  3.994959  0
C  C327  1  0.75094482  0.38588345  0.60856965  1  -0.033883  0  -0.032186  -0.059449  0  3.993409  0
C  C328  1  0.63505943  0.38574210  0.10867411  1  -0.034261  0  -0.031874  -0.05858  0  3.994939  0
C  C329  1  0.24903367  0.61410745  0.39142880  1  -0.03471  0  -0.032108  -0.059374  0  3.993055  0
C  C330  1  0.40226280  0.54826869  0.90927340  1  0.025506  0  -0.085231  -0.06845  0  3.995924  0
C  C331  1  0.85436647  0.45184231  0.59062850  1  0.037313  0  -0.08562  -0.067173  0  3.993276  0
C  C332  1  0.59773686  0.45173337  0.09072469  1  0.02573  0  -0.085145  -0.068413  0  3.995905  0
C  C333  1  0.14561632  0.54815545  0.40937183  1  0.038108  0  -0.085597  -0.067085  0  3.993066  0
C  C334  1  0.52440871  0.59479004  0.92490439  1  -0.069369  0  -0.118361  -0.243014  0  4.043322  0
C  C335  1  0.92989843  0.40529437  0.57499905  1  -0.130426  0  -0.11801  -0.242737  0  4.040501  0
C  C336  1  0.47558965  0.40521288  0.07509539  1  -0.069642  0  -0.11837  -0.24302  0  4.043416  0
C  C337  1  0.07008952  0.59471026  0.42500221  1  -0.131417  0  -0.11796  -0.242749  0  4.04043  0
C  C338  1  0.23635663  0.56167260  0.87315030  1  1.549216  0  0.186629  0.553339  0  4.269811  0
C  C339  1  0.67513541  0.43859145  0.62674066  1  1.561813  0  0.18647  0.553037  0  4.270166  0
C  C340  1  0.76364262  0.43832517  0.12684884  1  1.548671  0  0.186663  0.553428  0  4.26963  0
C  C341  1  0.32484483  0.56139430  0.37325833  1  1.56203  0  0.186211  0.552792  0  4.270166  0
C  C342  1  0.73832186  0.52250957  0.35258129  1  0.977254  0  0.145483  0.085053  0  3.944159  0
C  C343  1  0.21610660  0.47727548  0.14746239  1  0.983672  0  0.145192  0.085274  0  3.945663  0
C  C344  1  0.26167351  0.47748391  0.64741819  1  0.977552  0  0.145494  0.085071  0  3.944159  0
C  C345  1  0.78389440  0.52271887  0.85253617  1  0.985  0  0.145227  0.085363  0  3.945664  0
C  C346  1  0.80458993  0.67727460  0.32712424  1  0.278302  0  0.003168  -0.112526  0  3.896518  0
C  C347  1  0.12765423  0.32238349  0.17287091  1  0.277989  0  0.003193  -0.111592  0  3.894979  0
C  C348  1  0.19540672  0.32272316  0.67287681  1  0.278319  0  0.003195  -0.112542  0  3.896477  0
C  C349  1  0.87235323  0.67761857  0.82713003  1  0.278201  0  0.003305  -0.111479  0  3.89492  0
C  C350  1  0.67350607  0.63367291  0.33083894  1  0.372735  0  0.006787  -0.018508  0  3.984922  0
C  C351  1  0.04013345  0.36590287  0.16922087  1  0.380339  0  0.006696  -0.018907  0  3.985196  0
C  C352  1  0.32649272  0.36632914  0.66916319  1  0.373115  0  0.006829  -0.018449  0  3.984764  0
C  C353  1  0.95987227  0.63409919  0.83077983  1  0.380456  0  0.006626  -0.018966  0  3.98532  0
C  C354  1  0.97670097  0.61940854  0.34511394  1  0.260129  0  -0.052702  -0.099493  0  3.906429  0
C  C355  1  0.35760734  0.38047677  0.15481933  1  0.257792  0  -0.053343  -0.101758  0  3.909277  0
C  C356  1  0.02329612  0.38058837  0.65488636  1  0.259917  0  -0.052678  -0.099453  0  3.906382  0
C  C357  1  0.64239324  0.61951499  0.84518009  1  0.258001  0  -0.053396  -0.101725  0  3.909267  0
C  C358  1  0.03646825  0.60351953  0.31426891  1  0.011855  0  -0.022038  -0.042072  0  3.90974  0
C  C359  1  0.43318865  0.39650647  0.18568148  1  0.005568  0  -0.022804  -0.041748  0  3.911277  0
C  C360  1  0.96352710  0.39647738  0.68573091  1  0.012184  0  -0.022044  -0.042087  0  3.909904  0
C  C361  1  0.56681494  0.60348958  0.81431761  1  0.005026  0  -0.022817  -0.041748  0  3.911276  0
C  C362  1  0.01085759  0.49097186  0.30123499  1  -0.040056  0  -0.004111  0.093751  0  3.927061  0
C  C363  1  0.51995533  0.50910410  0.19874127  1  -0.022025  0  -0.003325  0.094347  0  3.927142  0
C  C364  1  0.98913560  0.50902420  0.69876457  1  -0.040022  0  -0.004019  0.093928  0  3.927118  0
C  C365  1  0.48005086  0.49089196  0.80125734  1  -0.02177  0  -0.00328  0.094412  0  3.927041  0
C  C366  1  0.07101509  0.47555251  0.27318945  1  -0.026634  0  -0.019919  -0.045739  0  3.937303  0
C  C367  1  0.59543580  0.52463185  0.22681899  1  -0.032659  0  -0.019812  -0.046057  0  3.93545  0
C  C368  1  0.92898156  0.52444698  0.72681022  1  -0.02665  0  -0.019935  -0.04577  0  3.937357  0
C  C369  1  0.40456953  0.47536421  0.77317938  1  -0.032616  0  -0.019845  -0.046099  0  3.935383  0
C  C370  1  0.16024846  0.57117498  0.25915744  1  0.027758  0  -0.001818  0.098844  0  3.934522  0
C  C371  1  0.58903087  0.42904985  0.24086114  1  0.014001  0  -0.001795  0.099773  0  3.933343  0
C  C372  1  0.83974776  0.42882194  0.74084215  1  0.027799  0  -0.001772  0.098903  0  3.934394  0
C  C373  1  0.41097402  0.57094707  0.75913750  1  0.014055  0  -0.00182  0.099636  0  3.933464  0
C  C374  1  0.18189241  0.68191755  0.27206068  1  -0.03037  0  -0.020685  -0.041979  0  3.953375  0
C  C375  1  0.50001874  0.31825707  0.22794217  1  -0.022303  0  -0.021845  -0.042516  0  3.953383  0
C  C376  1  0.81810511  0.31808022  0.72793989  1  -0.030387  0  -0.020711  -0.041937  0  3.953277  0
C  C377  1  0.49998355  0.68173984  0.77205742  1  -0.022349  0  -0.021792  -0.042314  0  3.953421  0
C  C378  1  0.12157245  0.69994751  0.29971343  1  -0.034829  0  -0.00638  0.083824  0  3.950497  0
C  C379  1  0.42176443  0.30013238  0.20025739  1  -0.030392  0  -0.005306  0.08412  0  3.950106  0
C  C380  1  0.87842592  0.30005198  0.70028743  1  -0.034848  0  -0.006425  0.083684  0  3.950453  0
C  C381  1  0.57823786  0.69986454  0.79974148  1  -0.030189  0  -0.005378  0.083896  0  3.950193  0
C  C382  1  0.15208720  0.82117996  0.31327182  1  -0.096403  0  -0.242082  -0.418084  0  3.956283  0
C  C383  1  0.33090025  0.17886897  0.18672036  1  -0.074774  0  -0.24179  -0.416509  0  3.956007  0
C  C384  1  0.84791421  0.17881695  0.68672920  1  -0.096248  0  -0.24209  -0.418074  0  3.956353  0
C  C385  1  0.66909944  0.82112966  0.81327762  1  -0.074817  0  -0.241808  -0.416504  0  3.956047  0
C  C386  1  0.92529944  0.38994613  0.31839457  1  -0.105949  0  -0.244299  -0.427238  0  3.946044  0
C  C387  1  0.53524962  0.61006603  0.18159609  1  -0.093216  0  -0.244431  -0.428245  0  3.945769  0
C  C388  1  0.07470110  0.61005250  0.68160578  1  -0.105953  0  -0.24432  -0.427324  0  3.946113  0
C  C389  1  0.46475094  0.38992917  0.81840345  1  -0.093713  0  -0.244397  -0.428321  0  3.945651  0
C  C390  1  0.24005484  0.55938133  0.23197500  1  -0.127849  0  -0.248436  -0.421686  0  3.941023  0
C  C391  1  0.68060398  0.44091935  0.26806446  1  -0.100812  0  -0.249035  -0.423297  0  3.94366  0
C  C392  1  0.75994483  0.44061902  0.76802588  1  -0.127789  0  -0.248541  -0.421856  0  3.941082  0
C  C393  1  0.31940395  0.55907671  0.73193368  1  -0.101212  0  -0.249073  -0.423277  0  3.943661  0
C  C394  1  0.27811610  0.78210051  0.25654236  1  0.310679  0  -0.051955  -0.117103  0  3.914249  0
C  C395  1  0.49606080  0.21813125  0.24347221  1  0.30133  0  -0.051947  -0.116271  0  3.911997  0
C  C396  1  0.72188142  0.21789554  0.74345815  1  0.310892  0  -0.051886  -0.117051  0  3.914225  0
C  C397  1  0.50393802  0.78186565  0.75652833  1  0.301482  0  -0.05188  -0.116209  0  3.911907  0
C  C398  1  0.51523936  0.85877967  0.24876232  1  0.953672  0  0.137456  0.079073  0  3.928658  0
C  C399  1  0.65655254  0.14162865  0.25130023  1  0.946532  0  0.138243  0.080271  0  3.926896  0
C  C400  1  0.48475857  0.14122067  0.75123738  1  0.95392  0  0.137526  0.079162  0  3.928513  0
C  C401  1  0.34345187  0.85837598  0.74870127  1  0.946209  0  0.13829  0.080436  0  3.92692  0
C  C402  1  0.58824218  0.84578291  0.29514695  1  0.385478  0  -0.004029  -0.032438  0  4.009522  0
C  C403  1  0.74233708  0.15424939  0.20489344  1  0.400182  0  -0.00319  -0.030062  0  4.009734  0
C  C404  1  0.41176571  0.15422001  0.70485307  1  0.38543  0  -0.004005  -0.032433  0  4.009619  0
C  C405  1  0.25766344  0.84575267  0.79510774  1  0.40158  0  -0.003252  -0.030199  0  4.009799  0
C  C406  1  0.45608994  0.80154278  0.29652751  1  0.310893  0  0.001542  -0.104622  0  3.89882  0
C  C407  1  0.65448071  0.19848086  0.20349283  1  0.297573  0  0.000834  -0.106312  0  3.900989  0
C  C408  1  0.54391191  0.19845327  0.70347158  1  0.310911  0  0.001525  -0.104449  0  3.898733  0
C  C409  1  0.34551637  0.80151776  0.79650776  1  0.297417  0  0.000748  -0.106426  0  3.900925  0
C  C410  1  0.05118269  0.35752144  0.25942864  1  0.32414  0  -0.050528  -0.098221  0  3.883615  0
C  C411  1  0.69371901  0.64268660  0.24058008  1  0.315642  0  -0.050482  -0.098553  0  3.88424  0
C  C412  1  0.94881352  0.64247719  0.74057148  1  0.32419  0  -0.050497  -0.09818  0  3.883638  0
C  C413  1  0.30628890  0.35731118  0.75941858  1  0.315625  0  -0.050435  -0.098366  0  3.883834  0
C  C414  1  0.24101264  0.39695770  0.29618460  1  0.928405  0  0.137003  0.086083  0  3.918628  0
C  C415  1  0.84409637  0.60324073  0.20386405  1  0.940919  0  0.137366  0.086669  0  3.918478  0
C  C416  1  0.75897836  0.60304264  0.70381676  1  0.928035  0  0.137028  0.086142  0  3.918759  0
C  C417  1  0.15590850  0.39676135  0.79613261  1  0.941137  0  0.137273  0.086639  0  3.918731  0
C  C418  1  0.26538977  0.24148194  0.28475158  1  0.427347  0  -0.002295  -0.026492  0  4.00903  0
C  C419  1  0.02420614  0.75866337  0.21531005  1  0.372544  0  -0.0028  -0.028053  0  4.008551  0
C  C420  1  0.73460167  0.75851925  0.71525005  1  0.427628  0  -0.002461  -0.026839  0  4.009239  0
C  C421  1  0.97579917  0.24133440  0.78469004  1  0.372519  0  -0.002775  -0.027946  0  4.008287  0
C  C422  1  0.16805393  0.23332224  0.26431755  1  0.269325  0  0.000894  -0.099001  0  3.892989  0
C  C423  1  0.93500795  0.76685605  0.23573044  1  0.331083  0  0.001421  -0.097418  0  3.893501  0
C  C424  1  0.83194270  0.76667896  0.73568337  1  0.269138  0  0.000955  -0.09892  0  3.892948  0
C  C425  1  0.06499608  0.23313914  0.76426957  1  0.331115  0  0.001377  -0.097492  0  3.893378  0
N  N426  1  0.63381702  0.53718667  0.34659485  1  -1.214649  0  -0.364093  -0.298641  0  3.588156  0
N  N427  1  0.09692071  0.46252054  0.15349669  1  -1.220115  0  -0.363968  -0.298527  0  3.5878  0
N  N428  1  0.36618222  0.46281453  0.65340583  1  -1.215042  0  -0.364067  -0.298565  0  3.588175  0
N  N429  1  0.90308418  0.53747638  0.84650218  1  -1.220259  0  -0.364002  -0.298627  0  3.587938  0
N  N430  1  0.84409180  0.60598459  0.34124506  1  -1.208609  0  -0.241925  0.049046  0  3.751534  0
N  N431  1  0.23839721  0.39375491  0.15872191  1  -1.217405  0  -0.24094  0.050375  0  3.752569  0
N  N432  1  0.15590486  0.39401147  0.65875426  1  -1.208641  0  -0.241896  0.049061  0  3.751636  0
N  N433  1  0.76160594  0.60624200  0.84127791  1  -1.217784  0  -0.240882  0.05046  0  3.752389  0
N  N434  1  0.31056570  0.34417845  0.30425680  1  -1.213686  0  -0.371803  -0.306862  0  3.592851  0
N  N435  1  0.96652521  0.65594777  0.19580923  1  -1.215092  0  -0.371739  -0.306924  0  3.592894  0
N  N436  1  0.68942704  0.65582017  0.69574570  1  -1.213992  0  -0.371698  -0.306585  0  3.592943  0
N  N437  1  0.03347966  0.34405430  0.80418886  1  -1.214966  0  -0.371758  -0.306938  0  3.592927  0
N  N438  1  0.15332197  0.33208608  0.27209504  1  -1.225998  0  -0.238435  0.057066  0  3.73312  0
N  N439  1  0.82136058  0.66814655  0.22793410  1  -1.227839  0  -0.239069  0.055935  0  3.735252  0
N  N440  1  0.84667640  0.66791512  0.72790587  1  -1.225721  0  -0.238508  0.056902  0  3.733195  0
N  N441  1  0.17864170  0.33185209  0.77206411  1  -1.227987  0  -0.238963  0.055894  0  3.735245  0
N  N442  1  0.41181232  0.81127478  0.26695238  1  -1.224318  0  -0.243005  0.04751  0  3.76833  0
N  N443  1  0.60058072  0.18897308  0.23307533  1  -1.213894  0  -0.243093  0.046316  0  3.768161  0
N  N444  1  0.58819127  0.18872128  0.73304789  1  -1.225035  0  -0.242955  0.047587  0  3.768193  0
N  N445  1  0.39941636  0.81102555  0.76692527  1  -1.213985  0  -0.243097  0.046194  0  3.76817  0
N  N446  1  0.62369997  0.88069243  0.26528602  1  -1.223421  0  -0.365736  -0.307624  0  3.567027  0
N  N447  1  0.74299565  0.11957854  0.23478141  1  -1.22201  0  -0.365782  -0.308786  0  3.567005  0
N  N448  1  0.37629969  0.11931135  0.73471307  1  -1.223195  0  -0.365745  -0.307635  0  3.567009  0
N  N449  1  0.25701049  0.88042953  0.76522020  1  -1.22206  0  -0.365795  -0.308806  0  3.567107  0
O  O450  1  0.81150374  0.88887954  0.20243997  1  -1.155167  0  -0.336117  -0.556886  0  2.21887  0
O  O451  1  0.92320992  0.11094790  0.29757451  1  -1.162277  0  -0.337207  -0.557298  0  2.220046  0
O  O452  1  0.18850501  0.11112510  0.79756034  1  -1.155372  0  -0.336165  -0.557044  0  2.21876  0
O  O453  1  0.07679495  0.88905416  0.70242643  1  -1.162184  0  -0.337212  -0.557258  0  2.219987  0
O  O454  1  0.97936773  0.06399411  0.20618604  1  -1.18977  0  -0.342231  -0.583609  0  2.17395  0
O  O455  1  0.91571232  0.93580458  0.29380854  1  -1.186623  0  -0.342411  -0.583875  0  2.173324  0
O  O456  1  0.02063018  0.93601311  0.79381388  1  -1.189543  0  -0.342247  -0.583678  0  2.173754  0
O  O457  1  0.08428691  0.06419834  0.70619077  1  -1.186658  0  -0.342418  -0.583863  0  2.173299  0
O  O458  1  0.02747211  0.86011926  0.06472253  1  -1.073244  0  -0.179765  -0.197653  0  2.507062  0
O  O459  1  0.16710504  0.13956448  0.43536870  1  -1.069677  0  -0.17924  -0.197408  0  2.50768  0
O  O460  1  0.97252106  0.13988194  0.93527744  1  -1.07337  0  -0.179804  -0.197642  0  2.506995  0
O  O461  1  0.83289422  0.86042985  0.56463128  1  -1.069262  0  -0.17925  -0.197402  0  2.507755  0
O  O462  1  0.26406520  0.95971522  0.91738328  1  -1.060087  0  -0.181665  -0.206117  0  2.529353  0
O  O463  1  0.30456249  0.04063320  0.58272166  1  -1.057792  0  -0.181142  -0.204626  0  2.528349  0
O  O464  1  0.73593575  0.04028940  0.08261964  1  -1.060069  0  -0.181556  -0.205943  0  2.529202  0
O  O465  1  0.69544197  0.95936286  0.41727671  1  -1.05811  0  -0.181052  -0.20446  0  2.528175  0
O  O466  1  0.81383163  0.26672809  0.87017028  1  -1.148635  0  -0.353626  -0.561287  0  2.243145  0
O  O467  1  0.54678812  0.73320939  0.62974733  1  -1.151288  0  -0.353374  -0.561446  0  2.244805  0
O  O468  1  0.18616586  0.73327656  0.12982551  1  -1.148739  0  -0.353506  -0.561048  0  2.243389  0
O  O469  1  0.45326467  0.26682786  0.37026091  1  -1.151369  0  -0.353471  -0.561436  0  2.244734  0
O  O470  1  0.69940274  0.25437388  0.82488912  1  -1.205799  0  -0.350748  -0.605593  0  2.149837  0
O  O471  1  0.44512759  0.74565633  0.67509233  1  -1.206765  0  -0.350913  -0.605824  0  2.150456  0
O  O472  1  0.30058136  0.74561960  0.17510870  1  -1.205776  0  -0.350801  -0.605514  0  2.149779  0
O  O473  1  0.55485697  0.25433285  0.32490725  1  -1.206828  0  -0.35084  -0.60572  0  2.150317  0
O  O474  1  0.73307450  0.76385984  0.93679864  1  -1.060897  0  -0.180557  -0.210269  0  2.540887  0
O  O475  1  0.96927313  0.23621704  0.56314346  1  -1.057997  0  -0.179482  -0.209274  0  2.539872  0
O  O476  1  0.26692343  0.23614222  0.06320159  1  -1.060845  0  -0.180535  -0.210277  0  2.540891  0
O  O477  1  0.03072519  0.76379446  0.43685921  1  -1.058241  0  -0.179503  -0.209351  0  2.539911  0
O  O478  1  0.21853540  0.60919308  0.85025719  1  -1.183893  0  -0.339102  -0.57609  0  2.120085  0
O  O479  1  0.60946646  0.39097721  0.64958175  1  -1.193945  0  -0.338189  -0.574768  0  2.120161  0
O  O480  1  0.78146907  0.39080126  0.14974089  1  -1.183718  0  -0.339095  -0.576116  0  2.120178  0
O  O481  1  0.39052371  0.60901626  0.35041963  1  -1.193705  0  -0.338107  -0.574675  0  2.12017  0
O  O482  1  0.15073757  0.46703824  0.88234288  1  -1.162635  0  -0.345679  -0.564372  0  2.248324  0
O  O483  1  0.68461587  0.53341130  0.61759159  1  -1.154904  0  -0.34573  -0.564546  0  2.24861  0
O  O484  1  0.84926643  0.53296383  0.11765545  1  -1.162255  0  -0.345714  -0.564405  0  2.248051  0
O  O485  1  0.31536392  0.46657703  0.38240701  1  -1.155087  0  -0.345603  -0.564452  0  2.248701  0
