# generated using pymatgen
data_Cd5H24C42N4O23
_symmetry_space_group_name_H-M   'P 1'
_cell_length_a   13.43958050
_cell_length_b   14.32721595
_cell_length_c   26.26497685
_cell_angle_alpha   89.99965683
_cell_angle_beta   90.00018531
_cell_angle_gamma   110.34199234
_symmetry_Int_Tables_number   1
_chemical_formula_structural   Cd5H24C42N4O23
_chemical_formula_sum   'Cd20 H96 C168 N16 O92'
_cell_volume   4741.96211781
_cell_formula_units_Z   4
loop_
 _symmetry_equiv_pos_site_id
 _symmetry_equiv_pos_as_xyz
  1  'x, y, z'
loop_
 _atom_site_type_symbol
 _atom_site_label
 _atom_site_symmetry_multiplicity
 _atom_site_fract_x
 _atom_site_fract_y
 _atom_site_fract_z
 _atom_site_occupancy
 _atom_site_pbe_bader_charge
 _atom_site_pbe_bader_spin_density
 _atom_site_pbe_cm5_charge
 _atom_site_pbe_ddec_charge
 _atom_site_pbe_ddec_spin_density
 _atom_site_pbe_ddec_sum_bond_order
 _atom_site_pbe_magmom
Cd  Cd0  1  0.63479574  0.14191052  0.92245570  1  1.330065  0  0.772446  1.064265  0  1.937156  0
Cd  Cd1  1  0.62492133  0.85504243  0.00341393  1  1.352909  0  0.789202  1.073016  0  2.197128  0
Cd  Cd2  1  0.73191790  0.75801729  0.90061314  1  1.331981  0  0.794272  1.00936  0  2.200059  0
Cd  Cd3  1  0.75547999  0.76034942  0.09974666  1  1.332996  0  0.797638  1.009142  0  2.181064  0
Cd  Cd4  1  0.38529717  0.37228147  0.24817507  1  1.240746  0  0.806947  0.866968  0  2.110521  0
Cd  Cd5  1  0.86520332  0.35809127  0.42245776  1  1.330033  0  0.772459  1.064246  0  1.937113  0
Cd  Cd6  1  0.87507799  0.64496231  0.50341759  1  1.352812  0  0.789234  1.073069  0  2.197164  0
Cd  Cd7  1  0.76807329  0.74197668  0.40061504  1  1.331922  0  0.794304  1.009423  0  2.199991  0
Cd  Cd8  1  0.74452433  0.73964695  0.59974484  1  1.333197  0  0.797608  1.009095  0  2.181113  0
Cd  Cd9  1  0.11470008  0.12772307  0.74817416  1  1.240837  0  0.806948  0.866927  0  2.110514  0
Cd  Cd10  1  0.36520663  0.85809400  0.07754094  1  1.330146  0  0.772467  1.064256  0  1.937111  0
Cd  Cd11  1  0.37507358  0.14495387  0.99658195  1  1.352802  0  0.789198  1.073028  0  2.197171  0
Cd  Cd12  1  0.26807586  0.24198197  0.09938312  1  1.331761  0  0.794334  1.009427  0  2.199966  0
Cd  Cd13  1  0.24451696  0.23965655  0.90024922  1  1.332902  0  0.797605  1.00905  0  2.181101  0
Cd  Cd14  1  0.61470540  0.62772156  0.75182348  1  1.240818  0  0.806989  0.867023  0  2.110511  0
Cd  Cd15  1  0.13479118  0.64190800  0.57754231  1  1.33  0  0.77245  1.064198  0  1.937189  0
Cd  Cd16  1  0.12492323  0.35504517  0.49658287  1  1.352823  0  0.78921  1.07306  0  2.197129  0
Cd  Cd17  1  0.23192670  0.25801520  0.59938846  1  1.332075  0  0.7943  1.009409  0  2.199956  0
Cd  Cd18  1  0.25547140  0.26034342  0.40025561  1  1.333036  0  0.79761  1.009065  0  2.18114  0
Cd  Cd19  1  0.88529205  0.87227990  0.25182439  1  1.240818  0  0.806978  0.866917  0  2.110616  0
H  H20  1  0.55350227  0.28687628  0.87172206  1  0.671161  0  0.284751  0.384103  0  0.950801  0
H  H21  1  0.46647596  0.18043086  0.87580440  1  0.622419  0  0.283942  0.374702  0  0.964676  0
H  H22  1  0.69186572  0.06230556  0.83999550  1  0.610281  0  0.307142  0.38831  0  0.914064  0
H  H23  1  0.80212436  0.09170831  0.86880425  1  0.663011  0  0.283411  0.38489  0  0.957358  0
H  H24  1  0.44740447  0.00349911  0.87134322  1  0.64271  0  0.288102  0.383551  0  0.957912  0
H  H25  1  0.50567421  0.93165369  0.88672384  1  0.628592  0  0.290684  0.388044  0  0.945873  0
H  H26  1  0.94854471  0.14041656  0.97593060  1  0.146759  0  0.111113  0.119689  0  1.038177  0
H  H27  1  0.66614319  0.47602483  0.97066120  1  0.144591  0  0.109968  0.116424  0  1.040503  0
H  H28  1  0.71981335  0.53838547  0.89625522  1  0.156127  0  0.118689  0.098732  0  1.025986  0
H  H29  1  0.82749366  0.43168397  0.90518943  1  0.106608  0  0.11396  0.133448  0  1.011608  0
H  H30  1  0.16572567  0.57086428  0.84345436  1  0.094191  0  0.115733  0.125398  0  0.982616  0
H  H31  1  0.26023670  0.44897737  0.84736859  1  0.111868  0  0.120045  0.097947  0  1.003996  0
H  H32  1  0.04632120  0.27433905  0.95235756  1  0.157607  0  0.118883  0.097254  0  1.033773  0
H  H33  1  0.94034251  0.38601726  0.95243578  1  0.13182  0  0.118979  0.136021  0  0.984031  0
H  H34  1  0.10719142  0.69389698  0.88012537  1  0.101825  0  0.118291  0.132511  0  0.978103  0
H  H35  1  0.98626723  0.79053859  0.87287141  1  0.091412  0  0.114123  0.085295  0  1.027941  0
H  H36  1  0.87657388  0.06637600  0.29175149  1  0.127964  0  0.12574  0.104018  0  0.98786  0
H  H37  1  0.76436916  0.17142464  0.29382090  1  0.113525  0  0.117638  0.130317  0  0.984287  0
H  H38  1  0.45787787  0.04118771  0.20257692  1  0.110698  0  0.108998  0.116721  0  1.045943  0
H  H39  1  0.35171840  0.15256648  0.20317250  1  0.143729  0  0.121459  0.099795  0  0.991843  0
H  H40  1  0.52332645  0.31424747  0.32581783  1  0.138897  0  0.1196  0.096954  0  1.020269  0
H  H41  1  0.63452456  0.20924610  0.33065305  1  0.111026  0  0.112372  0.125932  0  1.011454  0
H  H42  1  0.50474697  0.91719352  0.23741775  1  0.136462  0  0.115476  0.123746  0  0.989834  0
H  H43  1  0.62862285  0.82359936  0.23577437  1  0.122611  0  0.128294  0.10371  0  0.959815  0
H  H44  1  0.94649930  0.21312307  0.37172511  1  0.671097  0  0.284734  0.384139  0  0.950755  0
H  H45  1  0.03352054  0.31956940  0.37580909  1  0.622434  0  0.283908  0.374717  0  0.964681  0
H  H46  1  0.80813536  0.43769708  0.33999911  1  0.610436  0  0.307124  0.388308  0  0.914104  0
H  H47  1  0.69787802  0.40829330  0.36880929  1  0.663035  0  0.283373  0.384839  0  0.957429  0
H  H48  1  0.05259140  0.49649748  0.37134394  1  0.642839  0  0.28813  0.383641  0  0.9578  0
H  H49  1  0.99432299  0.56834269  0.38672629  1  0.628614  0  0.290699  0.388037  0  0.945887  0
H  H50  1  0.55144994  0.35957426  0.47593442  1  0.14674  0  0.111099  0.119758  0  1.038184  0
H  H51  1  0.83384793  0.02397271  0.47066392  1  0.144632  0  0.109953  0.116339  0  1.04063  0
H  H52  1  0.78019709  0.96162054  0.39625642  1  0.155904  0  0.118718  0.098786  0  1.02602  0
H  H53  1  0.67251363  0.06832027  0.40518679  1  0.106564  0  0.113975  0.133477  0  1.011652  0
H  H54  1  0.33427799  0.92914100  0.34345309  1  0.094218  0  0.115705  0.125366  0  0.982688  0
H  H55  1  0.23976345  0.05102321  0.34737107  1  0.111691  0  0.120054  0.097949  0  1.003967  0
H  H56  1  0.45368336  0.22565752  0.45236020  1  0.157556  0  0.118868  0.097237  0  1.033767  0
H  H57  1  0.55966375  0.11398131  0.45243319  1  0.131753  0  0.118924  0.135943  0  0.984102  0
H  H58  1  0.39281952  0.80610722  0.38012499  1  0.101807  0  0.118239  0.132515  0  0.977985  0
H  H59  1  0.51374356  0.70946470  0.37287528  1  0.091451  0  0.114145  0.085297  0  1.028013  0
H  H60  1  0.62342925  0.43363309  0.79175150  1  0.128033  0  0.125751  0.104073  0  0.987818  0
H  H61  1  0.73562530  0.32857695  0.79381954  1  0.113887  0  0.117646  0.130318  0  0.984219  0
H  H62  1  0.04211744  0.45881431  0.70257672  1  0.110695  0  0.108986  0.116661  0  1.045972  0
H  H63  1  0.14827657  0.34743256  0.70317170  1  0.14344  0  0.121457  0.099809  0  0.991951  0
H  H64  1  0.97667534  0.18575532  0.82582038  1  0.138846  0  0.11959  0.096969  0  1.020293  0
H  H65  1  0.86547501  0.29075663  0.83065507  1  0.111237  0  0.112346  0.125865  0  1.011449  0
H  H66  1  0.99525573  0.58280218  0.73741837  1  0.136402  0  0.115486  0.123791  0  0.989855  0
H  H67  1  0.87138962  0.67640681  0.73577601  1  0.122531  0  0.128265  0.103617  0  0.95981  0
H  H68  1  0.44649956  0.71312675  0.12827535  1  0.671137  0  0.284739  0.384149  0  0.950742  0
H  H69  1  0.53352513  0.81957216  0.12419148  1  0.622392  0  0.283917  0.374749  0  0.964646  0
H  H70  1  0.30813672  0.93770119  0.16000001  1  0.610211  0  0.307148  0.388346  0  0.914106  0
H  H71  1  0.19787930  0.90828953  0.13119050  1  0.663059  0  0.283371  0.384847  0  0.957414  0
H  H72  1  0.55259783  0.99650318  0.12865495  1  0.642659  0  0.28811  0.383534  0  0.957934  0
H  H73  1  0.49432803  0.06834637  0.11327091  1  0.628585  0  0.290648  0.387929  0  0.946035  0
H  H74  1  0.05144925  0.85958122  0.02406757  1  0.146742  0  0.111088  0.119665  0  1.038254  0
H  H75  1  0.33384942  0.52397740  0.02933544  1  0.144605  0  0.109974  0.116367  0  1.04068  0
H  H76  1  0.28019085  0.46161386  0.10374067  1  0.155818  0  0.118674  0.098685  0  1.026037  0
H  H77  1  0.17250980  0.56831535  0.09480950  1  0.106536  0  0.113994  0.133463  0  1.01167  0
H  H78  1  0.83427602  0.42914247  0.15654572  1  0.094065  0  0.115717  0.125382  0  0.982683  0
H  H79  1  0.73976520  0.55102789  0.15262844  1  0.111881  0  0.120003  0.097901  0  1.004004  0
H  H80  1  0.95368429  0.72566178  0.04763871  1  0.157525  0  0.11884  0.097198  0  1.03373  0
H  H81  1  0.05966244  0.61398208  0.04756353  1  0.131759  0  0.118941  0.136005  0  0.984009  0
H  H82  1  0.89281258  0.30610384  0.11987660  1  0.101873  0  0.118266  0.132516  0  0.978088  0
H  H83  1  0.01373725  0.20946149  0.12712371  1  0.091433  0  0.114125  0.085264  0  1.028007  0
H  H84  1  0.12342951  0.93362927  0.70825353  1  0.127997  0  0.125705  0.10395  0  0.987735  0
H  H85  1  0.23563043  0.82857838  0.70618184  1  0.113616  0  0.117633  0.130319  0  0.98423  0
H  H86  1  0.54212220  0.95881457  0.79742391  1  0.110658  0  0.109009  0.116766  0  1.04586  0
H  H87  1  0.64828160  0.84743357  0.79682833  1  0.143702  0  0.121475  0.099785  0  0.991884  0
H  H88  1  0.47667938  0.68575633  0.67418110  1  0.138879  0  0.11961  0.096987  0  1.020251  0
H  H89  1  0.36547931  0.79075843  0.66934550  1  0.111313  0  0.11237  0.125945  0  1.011417  0
H  H90  1  0.49525662  0.08280209  0.76258499  1  0.13652  0  0.115473  0.123769  0  0.989918  0
H  H91  1  0.37138766  0.17640298  0.76423104  1  0.122466  0  0.128255  0.103624  0  0.959844  0
H  H92  1  0.05350449  0.78687922  0.62827687  1  0.671125  0  0.284739  0.384091  0  0.950814  0
H  H93  1  0.96647905  0.68043361  0.62419479  1  0.622453  0  0.28395  0.374749  0  0.96462  0
H  H94  1  0.19187183  0.56231043  0.66000591  1  0.609124  0  0.307046  0.38812  0  0.914175  0
H  H95  1  0.30212280  0.59170898  0.63119078  1  0.662923  0  0.28339  0.384863  0  0.957393  0
H  H96  1  0.94740954  0.50350108  0.62865461  1  0.642814  0  0.288138  0.383622  0  0.957824  0
H  H97  1  0.00568074  0.43165739  0.61327111  1  0.628606  0  0.29066  0.388029  0  0.945888  0
H  H98  1  0.44854538  0.64042724  0.52406718  1  0.146749  0  0.111118  0.119735  0  1.038136  0
H  H99  1  0.16615743  0.97602366  0.52933577  1  0.144576  0  0.109982  0.11642  0  1.04052  0
H  H100  1  0.21980840  0.03838028  0.60374327  1  0.156046  0  0.118659  0.098663  0  1.026026  0
H  H101  1  0.32749322  0.93168427  0.59481138  1  0.106561  0  0.113964  0.133483  0  1.011668  0
H  H102  1  0.66572418  0.07085684  0.65654889  1  0.093975  0  0.115711  0.125387  0  0.982656  0
H  H103  1  0.76023560  0.94897015  0.65263396  1  0.111848  0  0.120074  0.097896  0  1.003983  0
H  H104  1  0.54631223  0.77433656  0.54764482  1  0.157653  0  0.118831  0.097172  0  1.033724  0
H  H105  1  0.44033645  0.88601726  0.54756879  1  0.131843  0  0.118936  0.136015  0  0.984123  0
H  H106  1  0.60718705  0.19389658  0.61987623  1  0.101864  0  0.118294  0.132562  0  0.978102  0
H  H107  1  0.48625847  0.29053685  0.62712822  1  0.091396  0  0.11414  0.085254  0  1.027996  0
H  H108  1  0.37656804  0.56636769  0.20825428  1  0.128067  0  0.125725  0.103988  0  0.987676  0
H  H109  1  0.26436968  0.67142158  0.20618434  1  0.113589  0  0.117663  0.130357  0  0.984214  0
H  H110  1  0.95787578  0.54119164  0.29742983  1  0.110615  0  0.108981  0.116769  0  1.045901  0
H  H111  1  0.85172377  0.65257863  0.29683256  1  0.143602  0  0.12144  0.099775  0  0.991851  0
H  H112  1  0.02333516  0.81425519  0.17418617  1  0.138657  0  0.119675  0.096992  0  1.02034  0
H  H113  1  0.13452933  0.70924716  0.16935300  1  0.111429  0  0.112407  0.125963  0  1.011403  0
H  H114  1  0.00474169  0.41719488  0.26259046  1  0.136365  0  0.115471  0.123753  0  0.989917  0
H  H115  1  0.12861140  0.32359399  0.26423206  1  0.122706  0  0.128256  0.103607  0  0.959892  0
C  C116  1  0.02813138  0.09700660  0.03742308  1  -0.06414  0  -0.025486  -0.090923  0  3.992322  0
C  C117  1  0.01692943  0.05024363  0.08534781  1  -0.027176  0  0.007305  -0.036419  0  3.860881  0
C  C118  1  0.91441320  0.01274095  0.10678666  1  0.014162  0  -0.011956  -0.083657  0  3.934198  0
C  C119  1  0.82499570  0.02051578  0.08176200  1  -0.050407  0  0.001627  -0.050828  0  3.904966  0
C  C120  1  0.83878245  0.07136990  0.03491018  1  -0.035235  0  -0.016577  -0.059524  0  3.944884  0
C  C121  1  0.93995200  0.10799436  0.01380872  1  0.085536  0  -0.073505  -0.087382  0  3.943983  0
C  C122  1  0.12988151  0.13160629  0.00815752  1  1.560836  0  0.211552  0.588461  0  4.201823  0
C  C123  1  0.10605904  0.02950210  0.11392780  1  1.629271  0  0.209783  0.599631  0  4.216291  0
C  C124  1  0.90246788  0.96073592  0.15699455  1  1.563946  0  0.20392  0.580332  0  4.185582  0
C  C125  1  0.71631167  0.97442922  0.10550185  1  1.59029  0  0.211711  0.586322  0  4.215396  0
C  C126  1  0.75192911  0.08358562  0.00243338  1  1.57506  0  0.20769  0.589961  0  4.180212  0
C  C127  1  0.61165688  0.53566719  0.03534023  1  -0.034891  0  -0.025644  -0.087236  0  3.980489  0
C  C128  1  0.56444555  0.51582985  0.08397228  1  0.002641  0  0.007498  -0.032136  0  3.858907  0
C  C129  1  0.53296167  0.41723527  0.10235279  1  -0.016067  0  -0.012491  -0.088699  0  3.926144  0
C  C130  1  0.54729525  0.33997200  0.07348026  1  -0.003107  0  0.001303  -0.045603  0  3.899799  0
C  C131  1  0.59912234  0.36250697  0.02596109  1  -0.043244  0  -0.01779  -0.06241  0  3.946256  0
C  C132  1  0.63041372  0.45988527  0.00817491  1  0.022358  0  -0.072091  -0.076287  0  3.933808  0
C  C133  1  0.63917834  0.63405109  0.00902177  1  1.572764  0  0.210897  0.591715  0  4.193513  0
C  C134  1  0.54089930  0.59405638  0.11650634  1  1.622328  0  0.205327  0.592128  0  4.232762  0
C  C135  1  0.48136162  0.39655031  0.15372880  1  1.552643  0  0.206325  0.587304  0  4.169346  0
C  C136  1  0.50743325  0.23431997  0.09341417  1  1.586776  0  0.202443  0.578079  0  4.239742  0
C  C137  1  0.61762508  0.28864284  0.99004698  1  1.555578  0  0.20553  0.587493  0  4.165335  0
C  C138  1  0.80604076  0.57080950  0.89367309  1  0.46212  0  0.048585  0.111527  0  3.92842  0
C  C139  1  0.86756306  0.51087484  0.89814611  1  0.035855  0  -0.077434  -0.16965  0  3.909959  0
C  C140  1  0.97826668  0.55310801  0.89349127  1  -0.130969  0  0.013066  0.101074  0  3.984715  0
C  C141  1  0.04338101  0.48881581  0.89729262  1  -0.031734  0  0.016  0.103492  0  3.978451  0
C  C142  1  0.13608730  0.50634211  0.86843028  1  -0.022713  0  -0.075719  -0.164628  0  3.918933  0
C  C143  1  0.18925652  0.43855101  0.87018981  1  0.521724  0  0.050268  0.10064  0  3.949301  0
C  C144  1  0.06923595  0.34083127  0.92875760  1  0.487442  0  0.049678  0.108157  0  3.930931  0
C  C145  1  0.01091805  0.40402752  0.92854843  1  -0.07412  0  -0.075105  -0.165105  0  3.906526  0
C  C146  1  0.02177561  0.65574338  0.88378613  1  0.028674  0  -0.078686  -0.170579  0  3.918676  0
C  C147  1  0.95464147  0.71076520  0.88026121  1  0.498301  0  0.045611  0.098197  0  3.965078  0
C  C148  1  0.79380779  0.03623634  0.27974537  1  0.436987  0  0.054827  0.107556  0  3.931328  0
C  C149  1  0.73001713  0.09422821  0.28140637  1  0.027006  0  -0.070388  -0.15525  0  3.905316  0
C  C150  1  0.62345602  0.05316359  0.26638178  1  -0.096145  0  0.020257  0.110366  0  3.961388  0
C  C151  1  0.55465994  0.11408749  0.26718535  1  -0.004207  0  0.019048  0.108425  0  3.96096  0
C  C152  1  0.47199666  0.09806471  0.23195855  1  -0.016241  0  -0.075649  -0.156537  0  3.909416  0
C  C153  1  0.41382121  0.16138438  0.23141890  1  0.488297  0  0.053186  0.10869  0  3.927539  0
C  C154  1  0.51011362  0.25205294  0.29951902  1  0.459902  0  0.048266  0.099686  0  3.930956  0
C  C155  1  0.57209758  0.19234171  0.30206857  1  -0.030159  0  -0.077044  -0.165283  0  3.926875  0
C  C156  1  0.58634318  0.95373345  0.24997592  1  0.029259  0  -0.071143  -0.154068  0  3.917762  0
C  C157  1  0.65514031  0.90043210  0.24919327  1  0.491615  0  0.05601  0.106552  0  3.938394  0
C  C158  1  0.47186418  0.40298670  0.53742301  1  -0.06395  0  -0.025529  -0.090959  0  3.99228  0
C  C159  1  0.48306679  0.44975068  0.58535179  1  -0.027493  0  0.007223  -0.03654  0  3.860913  0
C  C160  1  0.58558220  0.48725215  0.60678987  1  0.014493  0  -0.011905  -0.083688  0  3.9344  0
C  C161  1  0.67500139  0.47947832  0.58176423  1  -0.0507  0  0.001639  -0.050675  0  3.904747  0
C  C162  1  0.66121229  0.42862466  0.53491370  1  -0.035675  0  -0.016535  -0.059491  0  3.944669  0
C  C163  1  0.56004207  0.39199671  0.51381143  1  0.086046  0  -0.073487  -0.087486  0  3.943937  0
C  C164  1  0.37011329  0.36838953  0.50816082  1  1.560828  0  0.211673  0.588732  0  4.201815  0
C  C165  1  0.39393570  0.47048968  0.61393042  1  1.629803  0  0.209954  0.600032  0  4.21595  0
C  C166  1  0.59753387  0.53926059  0.65699505  1  1.563933  0  0.203827  0.580171  0  4.185917  0
C  C167  1  0.78368697  0.52556780  0.60550308  1  1.590679  0  0.211691  0.586292  0  4.215369  0
C  C168  1  0.74806914  0.41641301  0.50243480  1  1.575533  0  0.20765  0.589832  0  4.180289  0
C  C169  1  0.88834219  0.96433426  0.53533982  1  -0.035116  0  -0.025656  -0.087195  0  3.98042  0
C  C170  1  0.93555466  0.98417185  0.58397189  1  0.002934  0  0.007456  -0.032199  0  3.859036  0
C  C171  1  0.96703256  0.08276083  0.60235375  1  -0.016304  0  -0.01242  -0.088539  0  3.926175  0
C  C172  1  0.95270195  0.16002664  0.57348018  1  -0.003188  0  0.001295  -0.045601  0  3.899716  0
C  C173  1  0.90087345  0.13749067  0.52596100  1  -0.042956  0  -0.017643  -0.062255  0  3.946217  0
C  C174  1  0.86958325  0.04011181  0.50817433  1  0.022414  0  -0.072167  -0.076339  0  3.933993  0
C  C175  1  0.86082235  0.86594914  0.50902278  1  1.573338  0  0.210777  0.591565  0  4.193805  0
C  C176  1  0.95909903  0.90594572  0.61650928  1  1.622526  0  0.2054  0.592311  0  4.232748  0
C  C177  1  0.01863092  0.10344699  0.65373048  1  1.552822  0  0.206353  0.587148  0  4.169733  0
C  C178  1  0.99256455  0.26567996  0.59341419  1  1.586286  0  0.202459  0.578045  0  4.239675  0
C  C179  1  0.88236860  0.21135526  0.49004993  1  1.55524  0  0.205418  0.587301  0  4.165183  0
C  C180  1  0.69396968  0.92919655  0.39367311  1  0.462528  0  0.048554  0.111455  0  3.928293  0
C  C181  1  0.63244569  0.98913263  0.39814394  1  0.035773  0  -0.077374  -0.16955  0  3.909879  0
C  C182  1  0.52174124  0.94689728  0.39348905  1  -0.131158  0  0.012924  0.100849  0  3.984715  0
C  C183  1  0.45662389  0.01118875  0.39728988  1  -0.031741  0  0.015895  0.103321  0  3.978546  0
C  C184  1  0.36391487  0.99366067  0.36842923  1  -0.022689  0  -0.075634  -0.164534  0  3.918927  0
C  C185  1  0.31074627  0.06145232  0.37019009  1  0.521968  0  0.050275  0.10071  0  3.949269  0
C  C186  1  0.43076895  0.15917074  0.42875852  1  0.488685  0  0.049746  0.108251  0  3.930795  0
C  C187  1  0.48908841  0.09597673  0.42854736  1  -0.074128  0  -0.074999  -0.164869  0  3.906403  0
C  C188  1  0.47823527  0.84425855  0.38378614  1  0.029039  0  -0.078604  -0.170508  0  3.918531  0
C  C189  1  0.54536859  0.78923801  0.38026258  1  0.498139  0  0.045583  0.098197  0  3.965325  0
C  C190  1  0.70619422  0.46376989  0.77974580  1  0.436992  0  0.054785  0.107468  0  3.931296  0
C  C191  1  0.76998129  0.40577427  0.78140595  1  0.026686  0  -0.070361  -0.155194  0  3.90524  0
C  C192  1  0.87654257  0.44683756  0.76638178  1  -0.096127  0  0.020248  0.110381  0  3.961477  0
C  C193  1  0.94533682  0.38591067  0.76718567  1  -0.004212  0  0.01904  0.108384  0  3.961049  0
C  C194  1  0.02799845  0.40193627  0.73195965  1  -0.01628  0  -0.075696  -0.156548  0  3.909219  0
C  C195  1  0.08617708  0.33861514  0.73141916  1  0.488762  0  0.053247  0.108724  0  3.927487  0
C  C196  1  0.98988654  0.24794788  0.79952101  1  0.45997  0  0.04825  0.099576  0  3.93092  0
C  C197  1  0.92790131  0.30765759  0.80206950  1  -0.030477  0  -0.076984  -0.16506  0  3.927023  0
C  C198  1  0.91366044  0.54626658  0.74997615  1  0.02911  0  -0.071228  -0.154211  0  3.917854  0
C  C199  1  0.84486812  0.59957095  0.74919436  1  0.491737  0  0.056106  0.106783  0  3.938294  0
C  C200  1  0.97186408  0.90299119  0.96257547  1  -0.063756  0  -0.025468  -0.090859  0  3.992171  0
C  C201  1  0.98306847  0.94975269  0.91464655  1  -0.027397  0  0.007209  -0.036544  0  3.861007  0
C  C202  1  0.08558443  0.98725463  0.89320960  1  0.01451  0  -0.011933  -0.083713  0  3.934358  0
C  C203  1  0.17500369  0.97948055  0.91823617  1  -0.050682  0  0.00156  -0.050839  0  3.904946  0
C  C204  1  0.16121376  0.92862789  0.96508761  1  -0.035759  0  -0.016572  -0.0596  0  3.94482  0
C  C205  1  0.06004393  0.89200270  0.98618945  1  0.086022  0  -0.073434  -0.087258  0  3.943875  0
C  C206  1  0.87011245  0.86839149  0.99183760  1  1.560727  0  0.211578  0.588617  0  4.201954  0
C  C207  1  0.89394455  0.97049352  0.88606694  1  1.629649  0  0.209847  0.599679  0  4.216106  0
C  C208  1  0.09753429  0.03926191  0.84300400  1  1.563798  0  0.203889  0.580306  0  4.185713  0
C  C209  1  0.28368793  0.02556563  0.89449670  1  1.590908  0  0.211739  0.586436  0  4.215298  0
C  C210  1  0.24806886  0.91641293  0.99756593  1  1.575111  0  0.207672  0.589953  0  4.180163  0
C  C211  1  0.38833946  0.46433506  0.96465756  1  -0.03476  0  -0.025677  -0.087283  0  3.980504  0
C  C212  1  0.43555398  0.48417094  0.91602589  1  0.002403  0  0.00747  -0.032153  0  3.858869  0
C  C213  1  0.46703609  0.58276476  0.89764424  1  -0.016344  0  -0.01245  -0.088623  0  3.926297  0
C  C214  1  0.45270380  0.66002953  0.92651487  1  -0.002888  0  0.001252  -0.045653  0  3.900092  0
C  C215  1  0.40087399  0.63749529  0.97403403  1  -0.04291  0  -0.01768  -0.062397  0  3.946094  0
C  C216  1  0.36958432  0.54011551  0.99182326  1  0.022083  0  -0.072129  -0.076255  0  3.933918  0
C  C217  1  0.36081766  0.36594819  0.99097487  1  1.573273  0  0.210778  0.591685  0  4.19352  0
C  C218  1  0.45910124  0.40594516  0.88349069  1  1.622537  0  0.205372  0.592216  0  4.232705  0
C  C219  1  0.51863587  0.60344898  0.84626823  1  1.55305  0  0.20636  0.58722  0  4.169535  0
C  C220  1  0.49256132  0.76568153  0.90658134  1  1.586893  0  0.202502  0.578253  0  4.239823  0
C  C221  1  0.38237099  0.71135867  0.00994776  1  1.555116  0  0.20547  0.587335  0  4.165067  0
C  C222  1  0.19396276  0.42919206  0.10632280  1  0.46214  0  0.048555  0.111539  0  3.928297  0
C  C223  1  0.13243924  0.48912745  0.10185168  1  0.036133  0  -0.077514  -0.169757  0  3.909979  0
C  C224  1  0.02173542  0.44689576  0.10650881  1  -0.131001  0  0.013042  0.101053  0  3.984526  0
C  C225  1  0.95661804  0.51118572  0.10270935  1  -0.031748  0  0.016025  0.1036  0  3.978397  0
C  C226  1  0.86391480  0.49366167  0.13157131  1  -0.022602  0  -0.075683  -0.164665  0  3.91912  0
C  C227  1  0.81074680  0.56145203  0.12980836  1  0.521762  0  0.050327  0.100797  0  3.949412  0
C  C228  1  0.93076804  0.65916954  0.07124133  1  0.48878  0  0.049782  0.108349  0  3.930794  0
C  C229  1  0.98908540  0.59597180  0.07145241  1  -0.074079  0  -0.075056  -0.165113  0  3.90635  0
C  C230  1  0.97822913  0.34425744  0.11621394  1  0.028794  0  -0.078665  -0.17059  0  3.918616  0
C  C231  1  0.04536002  0.28923486  0.11973582  1  0.49809  0  0.045603  0.098229  0  3.965092  0
C  C232  1  0.20619763  0.96377043  0.72025737  1  0.43697  0  0.054887  0.107658  0  3.931174  0
C  C233  1  0.26998572  0.90577557  0.71859523  1  0.027186  0  -0.070354  -0.155237  0  3.905364  0
C  C234  1  0.37654703  0.94683871  0.73361753  1  -0.096075  0  0.020261  0.110409  0  3.961499  0
C  C235  1  0.44534209  0.88591406  0.73281434  1  -0.004295  0  0.019028  0.108367  0  3.961083  0
C  C236  1  0.52800212  0.90193608  0.76804114  1  -0.016205  0  -0.075694  -0.156623  0  3.909233  0
C  C237  1  0.58618055  0.83861642  0.76858117  1  0.48831  0  0.053156  0.108665  0  3.927559  0
C  C238  1  0.48988922  0.74795084  0.70048029  1  0.459575  0  0.048244  0.099607  0  3.93094  0
C  C239  1  0.42790575  0.80766133  0.69793112  1  -0.030473  0  -0.07703  -0.165203  0  3.92703  0
C  C240  1  0.41366332  0.04626812  0.75002529  1  0.028903  0  -0.071226  -0.15424  0  3.917929  0
C  C241  1  0.34486796  0.09957023  0.75080908  1  0.4918  0  0.056075  0.106718  0  3.938377  0
C  C242  1  0.52813142  0.59700738  0.46257897  1  -0.064206  0  -0.025513  -0.090846  0  3.992235  0
C  C243  1  0.51692778  0.55024265  0.41465171  1  -0.027149  0  0.007293  -0.036582  0  3.860853  0
C  C244  1  0.41441441  0.51274268  0.39321211  1  0.014098  0  -0.011907  -0.083535  0  3.934219  0
C  C245  1  0.32499522  0.52051651  0.41823813  1  -0.050386  0  0.001602  -0.050912  0  3.904994  0
C  C246  1  0.33878209  0.57137015  0.46508866  1  -0.03581  0  -0.016574  -0.059476  0  3.944923  0
C  C247  1  0.43995407  0.60799886  0.48619017  1  0.086107  0  -0.073443  -0.087385  0  3.943902  0
C  C248  1  0.62988291  0.63160826  0.49184154  1  1.560794  0  0.211551  0.588452  0  4.201954  0
C  C249  1  0.60605833  0.52950216  0.38607422  1  1.629229  0  0.209838  0.599867  0  4.21608  0
C  C250  1  0.40246430  0.46073647  0.34300654  1  1.564291  0  0.203821  0.580179  0  4.185748  0
C  C251  1  0.21630998  0.47443000  0.39449775  1  1.590446  0  0.211745  0.58629  0  4.215435  0
C  C252  1  0.25192632  0.58358478  0.49756642  1  1.575494  0  0.207636  0.589937  0  4.18025  0
C  C253  1  0.11165998  0.03566358  0.46465911  1  -0.034984  0  -0.025589  -0.087154  0  3.980466  0
C  C254  1  0.06444561  0.01582894  0.41602819  1  0.002765  0  0.007494  -0.032119  0  3.858914  0
C  C255  1  0.03296412  0.91723622  0.39764556  1  -0.016237  0  -0.012512  -0.08872  0  3.926028  0
C  C256  1  0.04729540  0.83996819  0.42651913  1  -0.003127  0  0.001405  -0.045359  0  3.899632  0
C  C257  1  0.09912811  0.86250345  0.47403640  1  -0.043323  0  -0.017739  -0.062567  0  3.946164  0
C  C258  1  0.13041810  0.95988379  0.49182460  1  0.022519  0  -0.072224  -0.076413  0  3.933855  0
C  C259  1  0.13918029  0.13404795  0.49097729  1  1.572891  0  0.210847  0.591714  0  4.193919  0
C  C260  1  0.04089867  0.09405208  0.38349270  1  1.622513  0  0.205345  0.592256  0  4.232477  0
C  C261  1  0.98136284  0.89655227  0.34627035  1  1.552729  0  0.206305  0.587106  0  4.169518  0
C  C262  1  0.00743715  0.73431861  0.40658398  1  1.58678  0  0.202419  0.578099  0  4.239866  0
C  C263  1  0.11763079  0.78864107  0.50995053  1  1.555564  0  0.205475  0.587391  0  4.165115  0
C  C264  1  0.30603758  0.07080503  0.60632658  1  0.462387  0  0.048622  0.111647  0  3.928264  0
C  C265  1  0.36756109  0.01086969  0.60185537  1  0.035519  0  -0.077489  -0.169757  0  3.910066  0
C  C266  1  0.47826384  0.05310652  0.60651217  1  -0.130813  0  0.013084  0.101025  0  3.984664  0
C  C267  1  0.54338011  0.98881207  0.60271096  1  -0.031801  0  0.015967  0.103497  0  3.978599  0
C  C268  1  0.63608459  0.00633789  0.63157236  1  -0.022487  0  -0.075654  -0.164593  0  3.91897  0
C  C269  1  0.68925440  0.93854550  0.62981189  1  0.521757  0  0.050274  0.100794  0  3.949214  0
C  C270  1  0.56923050  0.84082782  0.57124536  1  0.488618  0  0.049743  0.10832  0  3.930552  0
C  C271  1  0.51091660  0.90402484  0.57145576  1  -0.074017  0  -0.075065  -0.165165  0  3.906734  0
C  C272  1  0.52177151  0.15574377  0.61621583  1  0.028775  0  -0.07869  -0.170638  0  3.918744  0
C  C273  1  0.45463588  0.21076207  0.61974015  1  0.498212  0  0.045589  0.098317  0  3.965254  0
C  C274  1  0.29380029  0.53622938  0.22025808  1  0.436988  0  0.054893  0.107664  0  3.931031  0
C  C275  1  0.23001369  0.59422426  0.21859488  1  0.027134  0  -0.07041  -0.155311  0  3.905501  0
C  C276  1  0.12345465  0.55316098  0.23362134  1  -0.095952  0  0.020298  0.110347  0  3.96158  0
C  C277  1  0.05465640  0.61408711  0.23281897  1  -0.004506  0  0.019036  0.10845  0  3.961274  0
C  C278  1  0.97199796  0.59806821  0.26804537  1  -0.016051  0  -0.075648  -0.156664  0  3.909318  0
C  C279  1  0.91382339  0.66139234  0.26858434  1  0.488475  0  0.053158  0.108634  0  3.927324  0
C  C280  1  0.01011583  0.75205663  0.20048249  1  0.459948  0  0.048169  0.099562  0  3.930998  0
C  C281  1  0.07209747  0.69234319  0.19793590  1  -0.030305  0  -0.077025  -0.16519  0  3.926879  0
C  C282  1  0.08633726  0.45373122  0.25002849  1  0.028966  0  -0.071241  -0.154149  0  3.917955  0
C  C283  1  0.15512985  0.40042760  0.25081142  1  0.491658  0  0.056018  0.106618  0  3.938477  0
N  N284  1  0.84853917  0.66978127  0.88568171  1  -1.224186  0  -0.328346  -0.269123  0  3.494057  0
N  N285  1  0.15612337  0.35648292  0.89967367  1  -1.259679  0  -0.326244  -0.269048  0  3.509168  0
N  N286  1  0.75707156  0.94067957  0.26406519  1  -1.249795  0  -0.333141  -0.247326  0  3.535602  0
N  N287  1  0.43308033  0.23786428  0.26431355  1  -1.236376  0  -0.336409  -0.251511  0  3.531527  0
N  N288  1  0.65147220  0.83022338  0.38568237  1  -1.224332  0  -0.328316  -0.269125  0  3.494145  0
N  N289  1  0.34387970  0.14351863  0.39967525  1  -1.26099  0  -0.326276  -0.269203  0  3.509248  0
N  N290  1  0.74293326  0.55932553  0.76406548  1  -1.249822  0  -0.333164  -0.247488  0  3.53561  0
N  N291  1  0.06691907  0.26213565  0.76431403  1  -1.236403  0  -0.336426  -0.25151  0  3.531444  0
N  N292  1  0.15146551  0.33021732  0.11431455  1  -1.224055  0  -0.328264  -0.269045  0  3.493864  0
N  N293  1  0.84387893  0.64351937  0.10032526  1  -1.260999  0  -0.326311  -0.26926  0  3.509277  0
N  N294  1  0.24293455  0.05932497  0.73593679  1  -1.249892  0  -0.333115  -0.247358  0  3.535574  0
N  N295  1  0.56692245  0.76213727  0.73568767  1  -1.235952  0  -0.33638  -0.251443  0  3.531559  0
N  N296  1  0.34853384  0.16977894  0.61431923  1  -1.224113  0  -0.328301  -0.269175  0  3.494155  0
N  N297  1  0.65612193  0.85647771  0.60032825  1  -1.26117  0  -0.326293  -0.269189  0  3.508986  0
N  N298  1  0.25706091  0.44067077  0.23593726  1  -1.249876  0  -0.333105  -0.247324  0  3.535522  0
N  N299  1  0.93308161  0.73787034  0.23568947  1  -1.236428  0  -0.33639  -0.25137  0  3.531551  0
O  O300  1  0.12851267  0.16540536  0.96392263  1  -1.175883  0  -0.309497  -0.545357  0  2.371361  0
O  O301  1  0.21169801  0.12405150  0.03050105  1  -1.168895  0  -0.329987  -0.593286  0  2.454289  0
O  O302  1  0.17539365  0.09953253  0.13801952  1  -1.158069  0  -0.345729  -0.575463  0  2.25156  0
O  O303  1  0.09966369  0.93942537  0.11378087  1  -1.157397  0  -0.299526  -0.515945  0  2.160666  0
O  O304  1  0.95666177  0.00587239  0.19437178  1  -1.127868  0  -0.303794  -0.493318  0  2.156958  0
O  O305  1  0.83729411  0.87006542  0.16128249  1  -1.172084  0  -0.33417  -0.577155  0  2.338864  0
O  O306  1  0.68418385  0.02507926  0.13540022  1  -1.140583  0  -0.291656  -0.48569  0  2.135724  0
O  O307  1  0.66289326  0.88266332  0.09290496  1  -1.18043  0  -0.332709  -0.618672  0  2.357834  0
O  O308  1  0.65771526  0.01890014  0.00297215  1  -1.168608  0  -0.335552  -0.578269  0  2.26406  0
O  O309  1  0.77834934  0.15870389  0.97335018  1  -1.123395  0  -0.311155  -0.521465  0  2.224855  0
O  O310  1  0.67516826  0.64123583  0.96436053  1  -1.174398  0  -0.31176  -0.550424  0  2.358596  0
O  O311  1  0.62395305  0.70506190  0.03429142  1  -1.172533  0  -0.334583  -0.601485  0  2.446137  0
O  O312  1  0.61734653  0.65611572  0.14148062  1  -1.164472  0  -0.353844  -0.585995  0  2.248378  0
O  O313  1  0.44576642  0.58966222  0.11845068  1  -1.160935  0  -0.302487  -0.526715  0  2.140879  0
O  O314  1  0.53010768  0.44431248  0.19184721  1  -1.12865  0  -0.305829  -0.493083  0  2.13008  0
O  O315  1  0.38661575  0.33164838  0.15837570  1  -1.163892  0  -0.334657  -0.583273  0  2.350087  0
O  O316  1  0.56799431  0.20234049  0.11777028  1  -1.137285  0  -0.298837  -0.489132  0  2.092882  0
O  O317  1  0.40896126  0.18164050  0.08309054  1  -1.172919  0  -0.352844  -0.617133  0  2.339281  0
O  O318  1  0.55374262  0.19615615  0.99133625  1  -1.159148  0  -0.339669  -0.595723  0  2.340486  0
O  O319  1  0.69193598  0.31772896  0.95845854  1  -1.145887  0  -0.306465  -0.525386  0  2.164224  0
O  O320  1  0.54236214  0.21455993  0.86706501  1  -1.273848  0  -0.594671  -0.766954  0  2.034198  0
O  O321  1  0.74390961  0.11795717  0.85750356  1  -1.247173  0  -0.579972  -0.756491  0  2.039783  0
O  O322  1  0.52040925  0.00345720  0.87936461  1  -1.250743  0  -0.585438  -0.780451  0  2.10551  0
O  O323  1  0.37148148  0.33459103  0.46392593  1  -1.176011  0  -0.309564  -0.545446  0  2.371363  0
O  O324  1  0.28830173  0.37594932  0.53050457  1  -1.169025  0  -0.32997  -0.593414  0  2.454244  0
O  O325  1  0.32460724  0.40045533  0.63802378  1  -1.15843  0  -0.34579  -0.57563  0  2.251345  0
O  O326  1  0.40032642  0.56056507  0.61378179  1  -1.15755  0  -0.299587  -0.516099  0  2.160718  0
O  O327  1  0.54334232  0.49412878  0.69437375  1  -1.12799  0  -0.303796  -0.493252  0  2.15695  0
O  O328  1  0.66270589  0.62993030  0.66128165  1  -1.172023  0  -0.334097  -0.577087  0  2.339022  0
O  O329  1  0.81581805  0.47492101  0.63540194  1  -1.140777  0  -0.291675  -0.485706  0  2.135788  0
O  O330  1  0.83710114  0.61733454  0.59290597  1  -1.18065  0  -0.33264  -0.618642  0  2.357781  0
O  O331  1  0.84228183  0.48110145  0.50297503  1  -1.16855  0  -0.33559  -0.578234  0  2.26403  0
O  O332  1  0.72165134  0.34129739  0.47335130  1  -1.123849  0  -0.311123  -0.52139  0  2.224893  0
O  O333  1  0.82482901  0.85876347  0.46436329  1  -1.174902  0  -0.31172  -0.550396  0  2.35866  0
O  O334  1  0.87605076  0.79494033  0.53429154  1  -1.172657  0  -0.334527  -0.601378  0  2.446278  0
O  O335  1  0.88265227  0.84388316  0.64148097  1  -1.164684  0  -0.353824  -0.586019  0  2.248454  0
O  O336  1  0.05423225  0.91033937  0.61845294  1  -1.160918  0  -0.302553  -0.526843  0  2.140983  0
O  O337  1  0.96988543  0.05568716  0.69184902  1  -1.128761  0  -0.305885  -0.493138  0  2.130189  0
O  O338  1  0.11337950  0.16834814  0.65837733  1  -1.163892  0  -0.334646  -0.583107  0  2.350161  0
O  O339  1  0.93200667  0.29766366  0.61777010  1  -1.137319  0  -0.298833  -0.489127  0  2.09304  0
O  O340  1  0.09104147  0.31835535  0.58308821  1  -1.172387  0  -0.352842  -0.617117  0  2.339122  0
O  O341  1  0.94625479  0.30384196  0.49133557  1  -1.159059  0  -0.339615  -0.595669  0  2.340532  0
O  O342  1  0.80805307  0.18227538  0.45846413  1  -1.145901  0  -0.30645  -0.525289  0  2.163871  0
O  O343  1  0.95763739  0.28543797  0.36706823  1  -1.273743  0  -0.594639  -0.767023  0  2.034083  0
O  O344  1  0.75608969  0.38204231  0.35750422  1  -1.24734  0  -0.579935  -0.756446  0  2.039806  0
O  O345  1  0.97958685  0.49654129  0.37936565  1  -1.25082  0  -0.585463  -0.780512  0  2.10542  0
O  O346  1  0.87147838  0.83459463  0.03607287  1  -1.175877  0  -0.30957  -0.545466  0  2.371582  0
O  O347  1  0.78829975  0.87594853  0.96949141  1  -1.169039  0  -0.329903  -0.593321  0  2.454143  0
O  O348  1  0.82460316  0.90046081  0.86197560  1  -1.158369  0  -0.345857  -0.575552  0  2.251386  0
O  O349  1  0.90033970  0.06057173  0.88621045  1  -1.157592  0  -0.299424  -0.515828  0  2.160525  0
O  O350  1  0.04334345  0.99412769  0.80562600  1  -1.127856  0  -0.30381  -0.493307  0  2.156915  0
O  O351  1  0.16270582  0.12993240  0.83871644  1  -1.172107  0  -0.33413  -0.577143  0  2.338962  0
O  O352  1  0.31581452  0.97491632  0.86459833  1  -1.140945  0  -0.291661  -0.485728  0  2.135773  0
O  O353  1  0.33710322  0.11733522  0.90709207  1  -1.180597  0  -0.332648  -0.61867  0  2.357593  0
O  O354  1  0.34228440  0.98109693  0.99702450  1  -1.168572  0  -0.335561  -0.578233  0  2.264021  0
O  O355  1  0.22164774  0.84129837  0.02665103  1  -1.123434  0  -0.311141  -0.521457  0  2.224829  0
O  O356  1  0.32482347  0.35876194  0.03563497  1  -1.174785  0  -0.311677  -0.550379  0  2.358492  0
O  O357  1  0.37604749  0.29493964  0.96570637  1  -1.172537  0  -0.334524  -0.601431  0  2.446211  0
O  O358  1  0.38265496  0.34388433  0.85851793  1  -1.164622  0  -0.353828  -0.585985  0  2.248383  0
O  O359  1  0.55423406  0.41033709  0.88154863  1  -1.160986  0  -0.302507  -0.526753  0  2.140842  0
O  O360  1  0.46989137  0.55568905  0.80814944  1  -1.128791  0  -0.305886  -0.493147  0  2.130132  0
O  O361  1  0.61338655  0.66834574  0.84162209  1  -1.163806  0  -0.334688  -0.583202  0  2.350095  0
O  O362  1  0.43200189  0.79765730  0.88222066  1  -1.137509  0  -0.298914  -0.489319  0  2.092911  0
O  O363  1  0.59103339  0.81836323  0.91690535  1  -1.172819  0  -0.352774  -0.61706  0  2.339433  0
O  O364  1  0.44625718  0.80384538  0.00866230  1  -1.159226  0  -0.339693  -0.595691  0  2.340466  0
O  O365  1  0.30805453  0.68227772  0.04153354  1  -1.14572  0  -0.306439  -0.525273  0  2.163868  0
O  O366  1  0.45763915  0.78544161  0.13293125  1  -1.273834  0  -0.594649  -0.767063  0  2.034101  0
O  O367  1  0.25609337  0.88204289  0.14249652  1  -1.247127  0  -0.579958  -0.756486  0  2.03982  0
O  O368  1  0.47959183  0.99654582  0.12063318  1  -1.250697  0  -0.585403  -0.780316  0  2.105586  0
O  O369  1  0.62851445  0.66540603  0.53607605  1  -1.175866  0  -0.309448  -0.545317  0  2.371487  0
O  O370  1  0.71169861  0.62405370  0.46949855  1  -1.168917  0  -0.330034  -0.593331  0  2.454252  0
O  O371  1  0.67539241  0.59953358  0.36198124  1  -1.158049  0  -0.345694  -0.575514  0  2.251494  0
O  O372  1  0.59966639  0.43942750  0.38622056  1  -1.157352  0  -0.299603  -0.516052  0  2.160666  0
O  O373  1  0.45665761  0.50586903  0.30562822  1  -1.128187  0  -0.30383  -0.493319  0  2.156964  0
O  O374  1  0.33728929  0.37006675  0.33871766  1  -1.172056  0  -0.334131  -0.577135  0  2.338849  0
O  O375  1  0.18418140  0.52507755  0.36459965  1  -1.140648  0  -0.291679  -0.485655  0  2.135799  0
O  O376  1  0.16289655  0.38266326  0.40709562  1  -1.180532  0  -0.332669  -0.618616  0  2.357869  0
O  O377  1  0.15770929  0.51890077  0.49702542  1  -1.168758  0  -0.335546  -0.578228  0  2.264112  0
O  O378  1  0.27834737  0.65870116  0.52665029  1  -1.123657  0  -0.311132  -0.521493  0  2.224833  0
O  O379  1  0.17517309  0.14123213  0.53563716  1  -1.174489  0  -0.311739  -0.550395  0  2.358574  0
O  O380  1  0.12394917  0.20505749  0.46570968  1  -1.172547  0  -0.33458  -0.601469  0  2.446347  0
O  O381  1  0.11734339  0.15611315  0.35851796  1  -1.164593  0  -0.353793  -0.58603  0  2.248361  0
O  O382  1  0.94576510  0.08966364  0.38154980  1  -1.160947  0  -0.302539  -0.526804  0  2.140707  0
O  O383  1  0.03010881  0.94431136  0.30815143  1  -1.128861  0  -0.305795  -0.493014  0  2.130179  0
O  O384  1  0.88661209  0.83165334  0.34162389  1  -1.163926  0  -0.334693  -0.583183  0  2.350005  0
O  O385  1  0.06799692  0.70234012  0.38222921  1  -1.137414  0  -0.298884  -0.489204  0  2.093007  0
O  O386  1  0.90896558  0.68163954  0.41690958  1  -1.172822  0  -0.352802  -0.617148  0  2.339283  0
O  O387  1  0.05374392  0.69615659  0.50866564  1  -1.159159  0  -0.339635  -0.595662  0  2.340527  0
O  O388  1  0.19194591  0.81772392  0.54153633  1  -1.145863  0  -0.306467  -0.525275  0  2.163912  0
O  O389  1  0.04236437  0.71456283  0.63293489  1  -1.273805  0  -0.594684  -0.767019  0  2.034035  0
O  O390  1  0.24391343  0.61796221  0.64249548  1  -1.245927  0  -0.579856  -0.756248  0  2.039855  0
O  O391  1  0.02041640  0.50345952  0.62063405  1  -1.250743  0  -0.58542  -0.780452  0  2.105408  0
