# generated using pymatgen
data_Ni2H84C61(NO)12
_symmetry_space_group_name_H-M   'P 1'
_cell_length_a   9.03212764
_cell_length_b   18.90068634
_cell_length_c   23.16508146
_cell_angle_alpha   89.50989934
_cell_angle_beta   79.28904508
_cell_angle_gamma   76.59694611
_symmetry_Int_Tables_number   1
_chemical_formula_structural   Ni2H84C61(NO)12
_chemical_formula_sum   'Ni4 H168 C122 N24 O24'
_cell_volume   3777.39088620
_cell_formula_units_Z   2
loop_
 _symmetry_equiv_pos_site_id
 _symmetry_equiv_pos_as_xyz
  1  'x, y, z'
loop_
 _atom_site_type_symbol
 _atom_site_label
 _atom_site_symmetry_multiplicity
 _atom_site_fract_x
 _atom_site_fract_y
 _atom_site_fract_z
 _atom_site_occupancy
 _atom_site_pbe_bader_charge
 _atom_site_pbe_bader_spin_density
 _atom_site_pbe_cm5_charge
 _atom_site_pbe_ddec_charge
 _atom_site_pbe_ddec_spin_density
 _atom_site_pbe_ddec_sum_bond_order
 _atom_site_pbe_magmom
Ni  Ni0  1  0.99999702  0.50000108  0.49999893  1  1.055136  1.498785  0.640189  0.601445  1.765167  2.472421  1.486
Ni  Ni1  1  0.49999751  0.99999918  0.00000048  1  0.964316  0.007305  0.612823  0.513393  -0.099598  2.483062  0.005
Ni  Ni2  1  0.49999808  0.99999945  0.50000051  1  1.056309  1.497818  0.63582  0.592961  1.763163  2.4595  1.485
Ni  Ni3  1  0.49999273  0.50000144  0.00000130  1  1.057252  1.497769  0.636204  0.593518  1.763012  2.465231  1.485
H  H4  1  0.50894135  0.88351107  0.44870127  1  0.471158  -0.000185  0.287252  0.247256  -2.4e-05  1.002293  0.0
H  H5  1  0.08190792  0.40466698  0.57040448  1  0.461184  -0.000122  0.288223  0.250703  4.3e-05  0.996659  0.0
H  H6  1  0.66980729  0.63403141  0.72858914  1  0.054968  0.000119  0.104977  0.075422  6.2e-05  0.984858  0.0
H  H7  1  0.50104002  0.67141513  0.78301023  1  0.066113  3.4e-05  0.107161  0.08082  1.3e-05  0.984835  0.0
H  H8  1  0.84991526  0.70718713  0.68798215  1  0.082401  2.5e-05  0.107073  0.081753  5e-06  0.989612  0.0
H  H9  1  0.70170392  0.76423397  0.65547061  1  0.077213  0.000125  0.105856  0.078246  7.2e-05  0.994389  0.0
H  H10  1  0.30236520  0.73102768  0.62636320  1  0.077665  3.1e-05  0.102709  0.117703  -3e-06  1.032912  0.0
H  H11  1  0.16995669  0.64823566  0.58302518  1  0.062356  0.00018  0.096142  0.090007  0.000104  1.057942  0.0
H  H12  1  0.34170087  0.47821480  0.69361085  1  0.079586  3.8e-05  0.102302  0.105084  -1.3e-05  0.997019  0.0
H  H13  1  0.48347885  0.55863392  0.73533354  1  0.05577  0.000229  0.101411  0.112974  9.4e-05  1.016045  0.0
H  H14  1  0.93111846  0.75202115  0.59693108  1  0.082366  0.000178  0.100278  0.100099  6.9e-05  1.076647  0.0
H  H15  1  0.15593533  0.78020602  0.52795238  1  0.084044  9.8e-05  0.102702  0.102766  2.3e-05  1.001091  0.0
H  H16  1  0.18484960  0.94265309  0.65061190  1  0.082042  0.000207  0.098036  0.095857  0.000111  1.026958  0.0
H  H17  1  0.96914491  0.91082015  0.72267569  1  0.099823  1.2e-05  0.104241  0.121192  2e-06  1.015584  0.0
H  H18  1  0.84894334  0.36795187  0.61056485  1  0.035669  0.00407  0.098563  0.074518  0.001928  0.960994  0.002
H  H19  1  0.77443337  0.40100502  0.54697122  1  0.034403  0.000219  0.107755  0.083009  -2.4e-05  0.991028  0.0
H  H20  1  0.12094492  0.50708842  0.36682239  1  0.074164  -9.7e-05  0.109905  0.097403  -0.000185  0.995624  0.0
H  H21  1  0.31832905  0.50949700  0.36465011  1  0.02581  0.002354  0.095839  0.074738  0.001124  1.007459  0.001
H  H22  1  0.36862039  0.49751373  0.47985735  1  0.063434  0.000695  0.104886  0.089692  0.000193  0.990226  0.001
H  H23  1  0.45669228  0.43529324  0.41921558  1  0.046115  0.005122  0.089102  0.054057  0.002354  1.061486  0.003
H  H24  1  0.51249018  0.37171442  0.50493490  1  0.021202  -9.2e-05  0.094007  0.099196  -6.6e-05  0.975224  0.0
H  H25  1  0.32132635  0.40108121  0.54477614  1  0.064556  -2.5e-05  0.093566  0.098946  -8.6e-05  1.046235  0.0
H  H26  1  0.09194086  0.39651187  0.39801286  1  0.08439  0.000324  0.117048  0.080483  -4.2e-05  1.030116  0.0
H  H27  1  0.29990882  0.36665711  0.37878337  1  0.057841  0.004273  0.10522  0.058778  0.002003  1.029177  0.002
H  H28  1  0.08018965  0.28707400  0.52758227  1  0.041981  0.006445  0.105006  0.053401  0.003041  0.988986  0.003
H  H29  1  0.96666005  0.33638027  0.47840709  1  0.032241  0.000487  0.112544  0.065004  0.000117  1.019954  0.0
H  H30  1  0.44063964  0.28994074  0.44151837  1  0.05026  0.000193  0.096888  0.073172  8.3e-05  1.002811  0.0
H  H31  1  0.34841783  0.27561578  0.51314127  1  0.037571  0.000198  0.104684  0.088955  8.7e-05  0.98064  0.0
H  H32  1  0.50210672  0.91701142  0.60844231  1  0.088258  0.000323  0.117786  0.083543  -3.5e-05  1.024546  0.0
H  H33  1  0.68439420  0.90614310  0.63246587  1  0.053047  0.004302  0.104983  0.061961  0.00202  1.018871  0.002
H  H34  1  0.75222196  0.00823952  0.67028228  1  0.038005  0.000238  0.096708  0.07138  0.000105  0.992426  0.0
H  H35  1  0.64102341  0.09719929  0.66240612  1  0.0393  0.000321  0.104947  0.082108  0.000143  0.96538  0.0
H  H36  1  0.89720830  0.05553309  0.58618079  1  0.000125  -7.2e-05  0.091411  0.09267  -5.8e-05  0.984249  0.0
H  H37  1  0.72971976  0.09029798  0.55651911  1  0.076257  -2.8e-05  0.093668  0.097822  -0.000102  1.05271  0.0
H  H38  1  0.87074717  0.98017420  0.49984253  1  0.059933  0.00067  0.103463  0.085583  0.000178  1.002612  0.001
H  H39  1  0.90311413  0.93166792  0.56427196  1  0.044143  0.005224  0.090284  0.057642  0.002391  1.051897  0.003
H  H40  1  0.63440695  0.84239931  0.53096065  1  0.084824  -7.1e-05  0.111726  0.097542  -0.000166  1.004998  0.0
H  H41  1  0.83471997  0.84026041  0.52476325  1  0.042032  0.002323  0.09627  0.07529  0.00113  1.024297  0.001
H  H42  1  0.81992750  0.91290067  0.43162062  1  0.055511  0.000247  0.106333  0.081641  -1e-05  0.996738  0.0
H  H43  1  0.77936605  0.82563662  0.42635897  1  0.012166  0.004389  0.095153  0.066005  0.002061  0.980894  0.002
H  H44  1  0.68261777  0.96919305  0.36518475  1  0.075275  0.000466  0.111682  0.065598  0.000119  1.005013  0.0
H  H45  1  0.61671059  0.89252091  0.34452195  1  0.003275  0.006909  0.106326  0.056333  0.003266  0.966892  0.003
H  H46  1  0.34521052  0.61610396  0.05117320  1  0.487135  -0.000189  0.287406  0.248238  -2.9e-05  1.002967  0.0
H  H47  1  0.56372483  0.09141248  0.93092221  1  0.480218  0.000322  0.289534  0.250102  0.0003  0.984771  0.0
H  H48  1  0.53802241  0.86623009  0.76967535  1  0.058363  -3.2e-05  0.105628  0.076646  -3e-05  0.982171  0.0
H  H49  1  0.45852280  0.82906724  0.71479208  1  0.048026  2.3e-05  0.10728  0.080333  1.5e-05  0.983828  0.0
H  H50  1  0.74772985  0.79259662  0.81142518  1  0.086729  -1.1e-05  0.107798  0.082051  -2.2e-05  0.989145  0.0
H  H51  1  0.62266700  0.73562169  0.84306913  1  0.075743  -2.4e-05  0.105923  0.0788  -4.4e-05  0.991368  0.0
H  H52  1  0.16330130  0.76813111  0.86863389  1  0.108304  5e-06  0.101709  0.116226  3e-06  1.034611  0.0
H  H53  1  0.90790900  0.85094710  0.91114061  1  0.06304  -3e-05  0.096049  0.090792  -4e-05  1.054235  0.0
H  H54  1  0.02470973  0.02200109  0.80294462  1  0.071729  5e-06  0.101731  0.104964  3e-06  0.995885  0.0
H  H55  1  0.28573996  0.94186104  0.76247543  1  0.062147  1.5e-05  0.101323  0.113302  -5e-06  1.017035  0.0
H  H56  1  0.78397890  0.74758812  0.90246060  1  0.09991  0.000178  0.1011  0.102059  8.3e-05  1.070155  0.0
H  H57  1  0.96986237  0.71971653  0.97165134  1  0.090629  7e-05  0.10303  0.103487  6e-06  1.000019  0.0
H  H58  1  0.27528702  0.55779531  0.84904999  1  0.077889  0.000209  0.09892  0.096941  0.000109  1.026024  0.0
H  H59  1  0.09815615  0.58947117  0.77667843  1  0.103474  2.4e-05  0.104665  0.122736  -4e-06  1.010548  0.0
H  H60  1  0.33979253  0.13042119  0.88821146  1  0.046978  0.003436  0.103648  0.081934  0.001598  0.955891  0.002
H  H61  1  0.22948655  0.09744938  0.95013802  1  0.060087  0.000169  0.11092  0.08661  3.1e-05  0.985941  0.0
H  H62  1  0.48934930  0.99477401  0.13327463  1  0.076221  -0.000103  0.113331  0.103906  -2.8e-05  0.991128  0.0
H  H63  1  0.68600864  0.99406584  0.13676791  1  0.050065  -0.002458  0.09853  0.078902  -0.00174  1.008634  -0.001
H  H64  1  0.83895314  0.00225601  0.02008343  1  0.043208  -0.000571  0.106547  0.094104  -0.000327  0.99337  0.0
H  H65  1  0.80804687  0.06403137  0.08129079  1  0.053568  -0.003826  0.092241  0.059808  -0.002704  1.055432  -0.002
H  H66  1  0.88805288  0.12751637  0.99617045  1  0.028182  3.5e-05  0.095986  0.102612  1.9e-05  0.968166  0.0
H  H67  1  0.76444269  0.09914832  0.95532119  1  0.070158  1.5e-05  0.093906  0.099228  -2e-06  1.047952  0.0
H  H68  1  0.38567196  0.10404837  0.10073408  1  0.099052  -0.000517  0.119004  0.084354  -0.000312  1.026726  0.0
H  H69  1  0.54667034  0.13269290  0.12147363  1  0.056323  -0.003404  0.108652  0.063939  -0.002421  1.024436  -0.002
H  H70  1  0.40054614  0.20939933  0.96991262  1  0.032487  0.003665  0.107954  0.058607  0.001726  0.985108  0.002
H  H71  1  0.28668395  0.16083183  0.01967952  1  0.080352  0.00013  0.115954  0.072296  -2e-06  1.008795  0.0
H  H72  1  0.67633372  0.20970596  0.05931662  1  0.040508  -0.000156  0.09793  0.074867  -0.000116  1.00107  0.0
H  H73  1  0.63986865  0.22485940  0.98759771  1  0.043536  3.4e-05  0.104616  0.090378  1.5e-05  0.980968  0.0
H  H74  1  0.52639929  0.58306858  0.89156571  1  0.091487  0.000323  0.117718  0.084109  -3.5e-05  1.022086  0.0
H  H75  1  0.72085034  0.59442288  0.86810614  1  0.051165  0.004313  0.104854  0.061655  0.002023  1.019411  0.002
H  H76  1  0.92490728  0.49279760  0.83046903  1  0.047301  0.000233  0.097086  0.072298  0.000101  0.994349  0.0
H  H77  1  0.89366569  0.40360454  0.83803568  1  0.031203  0.000317  0.104987  0.08189  0.000139  0.965109  0.0
H  H78  1  0.03483353  0.44583822  0.91469539  1  0.014045  -7.5e-05  0.091053  0.091303  -5.8e-05  0.985777  0.0
H  H79  1  0.87367067  0.41026433  0.94395664  1  0.050182  -2.6e-05  0.094072  0.099166  -0.0001  1.052318  0.0
H  H80  1  0.85087253  0.52046237  0.00102634  1  0.048209  0.000679  0.103579  0.085589  0.00018  1.002536  0.001
H  H81  1  0.89787229  0.56928630  0.93680500  1  0.044971  0.005254  0.089974  0.056656  0.002404  1.051321  0.003
H  H82  1  0.51021948  0.65761343  0.96935072  1  0.08144  -7.9e-05  0.111915  0.098108  -0.000166  1.004217  0.0
H  H83  1  0.70179310  0.66023992  0.97624554  1  0.025834  0.002227  0.09664  0.076335  0.001067  1.020657  0.001
H  H84  1  0.66760407  0.58721485  0.06917858  1  0.038902  0.000246  0.105839  0.080903  -1.2e-05  0.995488  0.0
H  H85  1  0.53682160  0.67434864  0.07427864  1  0.022852  0.004283  0.094267  0.065078  0.00202  0.979947  0.002
H  H86  1  0.52086404  0.53099314  0.13536348  1  0.059245  0.00047  0.11252  0.067364  0.000118  1.004869  0.0
H  H87  1  0.36006513  0.60742169  0.15547479  1  0.054838  0.006815  0.106634  0.057169  0.003269  0.967015  0.003
H  H88  1  0.49105816  0.11648910  0.55130008  1  0.471144  -0.000184  0.287287  0.247276  -2.4e-05  1.002374  0.0
H  H89  1  0.91809082  0.59533483  0.42959346  1  0.461108  -0.000122  0.288231  0.250682  4.3e-05  0.996646  0.0
H  H90  1  0.33019082  0.36596494  0.27141017  1  0.055079  0.000119  0.10495  0.075386  6.2e-05  0.984897  0.0
H  H91  1  0.49895640  0.32858232  0.21698963  1  0.066141  3.4e-05  0.107142  0.080798  1.3e-05  0.984805  0.0
H  H92  1  0.15008680  0.29281033  0.31201645  1  0.082331  2.5e-05  0.107088  0.081768  5e-06  0.989585  0.0
H  H93  1  0.29829449  0.23576402  0.34452824  1  0.077122  0.000125  0.105853  0.07822  7.3e-05  0.994364  0.0
H  H94  1  0.69764872  0.26896871  0.37363156  1  0.077377  3.1e-05  0.1027  0.117713  -3e-06  1.032864  0.0
H  H95  1  0.83004683  0.35176343  0.41697158  1  0.062417  0.00018  0.096166  0.090005  0.000104  1.057944  0.0
H  H96  1  0.65828318  0.52178698  0.30639157  1  0.079594  3.8e-05  0.102279  0.105026  -1.3e-05  0.997021  0.0
H  H97  1  0.51650462  0.44136676  0.26466936  1  0.055853  0.000229  0.101394  0.112942  9.4e-05  1.016099  0.0
H  H98  1  0.06888438  0.24797467  0.40307049  1  0.082384  0.000178  0.10026  0.100063  6.9e-05  1.076825  0.0
H  H99  1  0.84406502  0.21979469  0.47204934  1  0.083974  9.8e-05  0.102741  0.102882  2.3e-05  1.00107  0.0
H  H100  1  0.81513005  0.05735304  0.34938778  1  0.082208  0.000207  0.098059  0.095846  0.000111  1.026975  0.0
H  H101  1  0.03083781  0.08918435  0.27732379  1  0.099428  1.2e-05  0.104216  0.121207  2e-06  1.015536  0.0
H  H102  1  0.15106181  0.63204831  0.38943524  1  0.035693  0.004071  0.098547  0.074474  0.001929  0.960972  0.002
H  H103  1  0.22556640  0.59899460  0.45303054  1  0.034392  0.000219  0.107761  0.083022  -2.4e-05  0.990956  0.0
H  H104  1  0.87905857  0.49291285  0.63317695  1  0.074267  -9.7e-05  0.109893  0.097381  -0.000185  0.995603  0.0
H  H105  1  0.68167272  0.49050318  0.63535065  1  0.02561  0.002355  0.095836  0.074733  0.001125  1.007457  0.001
H  H106  1  0.63137459  0.50248426  0.52014519  1  0.063384  0.000695  0.104892  0.0897  0.000193  0.990158  0.001
H  H107  1  0.54330722  0.56470476  0.58078492  1  0.045539  0.005124  0.089099  0.054014  0.002355  1.061512  0.003
H  H108  1  0.48750481  0.62828138  0.49506549  1  0.021093  -9.2e-05  0.094025  0.099241  -6.6e-05  0.975162  0.0
H  H109  1  0.67866584  0.59891568  0.45522401  1  0.064662  -2.5e-05  0.093564  0.098925  -8.6e-05  1.046308  0.0
H  H110  1  0.90805478  0.60348939  0.60198573  1  0.084149  0.000323  0.11704  0.080452  -4.2e-05  1.03021  0.0
H  H111  1  0.70008511  0.63334305  0.62121578  1  0.057832  0.004272  0.105163  0.058679  0.002003  1.029168  0.002
H  H112  1  0.91980485  0.71292725  0.47241684  1  0.041899  0.006444  0.104966  0.053386  0.00304  0.988971  0.003
H  H113  1  0.03333191  0.66362153  0.52159305  1  0.032262  0.000487  0.112559  0.065035  0.000117  1.019977  0.0
H  H114  1  0.55935456  0.71005670  0.55847991  1  0.050532  0.000193  0.096855  0.073134  8.3e-05  1.002788  0.0
H  H115  1  0.65157188  0.72438166  0.48685646  1  0.037408  0.000198  0.10465  0.088933  8.7e-05  0.980646  0.0
H  H116  1  0.49788969  0.08299256  0.39156183  1  0.087167  0.000323  0.117758  0.083511  -3.5e-05  1.024571  0.0
H  H117  1  0.31560249  0.09386033  0.36753738  1  0.052764  0.004303  0.104985  0.061963  0.00202  1.01891  0.002
H  H118  1  0.24778155  0.99176611  0.32971833  1  0.03803  0.000238  0.096676  0.071366  0.000105  0.992419  0.0
H  H119  1  0.35897842  0.90280524  0.33759375  1  0.039435  0.000321  0.104913  0.082114  0.000143  0.96533  0.0
H  H120  1  0.10279072  0.94447035  0.41381842  1  -0.000229  -7.2e-05  0.091465  0.092726  -5.8e-05  0.98418  0.0
H  H121  1  0.27027896  0.90970600  0.44348142  1  0.076637  -2.8e-05  0.093682  0.097826  -0.000102  1.05267  0.0
H  H122  1  0.12924649  0.01982868  0.50015749  1  0.059908  0.00067  0.103467  0.085573  0.000178  1.002598  0.001
H  H123  1  0.09688683  0.06833607  0.43572927  1  0.04409  0.005223  0.090262  0.057634  0.002391  1.051889  0.003
H  H124  1  0.36558832  0.15760248  0.46904271  1  0.084836  -7e-05  0.111733  0.097541  -0.000166  1.005045  0.0
H  H125  1  0.16527585  0.15974030  0.47524051  1  0.042007  0.002324  0.096254  0.075227  0.001131  1.024384  0.001
H  H126  1  0.18007338  0.08709896  0.56838236  1  0.055612  0.000247  0.106348  0.081622  -1e-05  0.996674  0.0
H  H127  1  0.22063201  0.17436409  0.57364550  1  0.012167  0.00439  0.095116  0.065959  0.002061  0.980916  0.002
H  H128  1  0.31738396  0.03081148  0.63482074  1  0.075372  0.000465  0.111688  0.065545  0.000119  1.004979  0.0
H  H129  1  0.38329401  0.10748254  0.65547947  1  0.00371  0.006908  0.106301  0.056298  0.003266  0.966858  0.003
H  H130  1  0.65478925  0.38389567  0.94882943  1  0.487118  -0.000189  0.287407  0.248203  -2.9e-05  1.003006  0.0
H  H131  1  0.43628202  0.90858662  0.06907690  1  0.479739  0.000321  0.28953  0.250117  0.000299  0.98487  0.0
H  H132  1  0.46198131  0.13376628  0.23032400  1  0.058003  -3.2e-05  0.105649  0.076629  -3e-05  0.982224  0.0
H  H133  1  0.54147952  0.17092967  0.28520780  1  0.047764  2.3e-05  0.107265  0.080281  1.5e-05  0.98385  0.0
H  H134  1  0.25227614  0.20739758  0.18857186  1  0.086595  -1.1e-05  0.107767  0.082029  -2.2e-05  0.989147  0.0
H  H135  1  0.37733925  0.26437196  0.15692919  1  0.075662  -2.4e-05  0.105916  0.078727  -4.4e-05  0.991548  0.0
H  H136  1  0.83670133  0.23186962  0.13136594  1  0.108243  5e-06  0.101725  0.116244  3e-06  1.034573  0.0
H  H137  1  0.09209591  0.14905581  0.08885905  1  0.063265  -3e-05  0.096055  0.090821  -4e-05  1.054253  0.0
H  H138  1  0.97530450  0.97799694  0.19704967  1  0.071725  5e-06  0.101699  0.104902  3e-06  0.995787  0.0
H  H139  1  0.71426664  0.05813425  0.23751984  1  0.062275  1.5e-05  0.101302  0.113286  -5e-06  1.016951  0.0
H  H140  1  0.21603152  0.25241535  0.09752962  1  0.100218  0.000178  0.101076  0.102107  8.3e-05  1.070102  0.0
H  H141  1  0.03014637  0.28029020  0.02834070  1  0.090576  7e-05  0.103083  0.103523  6e-06  1.00004  0.0
H  H142  1  0.72470935  0.44219777  0.15095032  1  0.077892  0.000209  0.098902  0.096929  0.000109  1.025949  0.0
H  H143  1  0.90184299  0.41051647  0.22332084  1  0.103783  2.4e-05  0.104662  0.122698  -4e-06  1.010546  0.0
H  H144  1  0.66021542  0.86957573  0.11178759  1  0.04697  0.003437  0.103697  0.081968  0.001599  0.955909  0.002
H  H145  1  0.77052200  0.90254864  0.04985969  1  0.059978  0.000169  0.110885  0.086528  3.1e-05  0.985991  0.0
H  H146  1  0.51066231  0.00522455  0.86672502  1  0.076435  -0.000103  0.113281  0.103878  -2.8e-05  0.991133  0.0
H  H147  1  0.31400270  0.00593109  0.86323047  1  0.050389  -0.002459  0.098559  0.078927  -0.001741  1.008584  -0.001
H  H148  1  0.16105682  0.99774581  0.97991632  1  0.04361  -0.000571  0.106523  0.094036  -0.000327  0.993428  0.0
H  H149  1  0.19195943  0.93596882  0.91870836  1  0.053399  -0.003826  0.092199  0.059721  -0.002704  1.055319  -0.002
H  H150  1  0.11194867  0.87248653  0.00382859  1  0.028256  3.6e-05  0.095995  0.102612  1.9e-05  0.968141  0.0
H  H151  1  0.23555743  0.90085295  0.04467838  1  0.070178  1.5e-05  0.093917  0.099222  -2e-06  1.047956  0.0
H  H152  1  0.61433287  0.89594800  0.89926649  1  0.098871  -0.000518  0.11903  0.084372  -0.000312  1.026713  0.0
H  H153  1  0.45333565  0.86730566  0.87852598  1  0.05641  -0.003405  0.10866  0.063961  -0.002422  1.024464  -0.002
H  H154  1  0.59945647  0.79059921  0.03008723  1  0.032441  0.003665  0.107928  0.058574  0.001727  0.985173  0.002
H  H155  1  0.71331865  0.83916454  0.98031990  1  0.080351  0.00013  0.115962  0.072327  -2e-06  1.008811  0.0
H  H156  1  0.32366440  0.79029476  0.94068439  1  0.040487  -0.000156  0.097935  0.074897  -0.000116  1.00104  0.0
H  H157  1  0.36012861  0.77514077  0.01240336  1  0.04352  3.4e-05  0.104614  0.09038  1.5e-05  0.980917  0.0
H  H158  1  0.47360019  0.41693377  0.10843866  1  0.091749  0.000323  0.117694  0.083985  -3.5e-05  1.022061  0.0
H  H159  1  0.27915136  0.40557729  0.13189851  1  0.051085  0.004314  0.104859  0.061571  0.002024  1.019398  0.002
H  H160  1  0.07508829  0.50720365  0.16953302  1  0.047688  0.000234  0.097093  0.072289  0.000101  0.994238  0.0
H  H161  1  0.10632960  0.59639726  0.16196682  1  0.031163  0.000316  0.104968  0.081902  0.000139  0.965141  0.0
H  H162  1  0.96516682  0.55416250  0.08530633  1  0.014053  -7.5e-05  0.091041  0.091305  -5.8e-05  0.985774  0.0
H  H163  1  0.12633053  0.58973476  0.05604374  1  0.0503  -2.6e-05  0.094051  0.099131  -0.0001  1.052317  0.0
H  H164  1  0.14912691  0.47953562  0.99897718  1  0.048314  0.000679  0.103605  0.085643  0.00018  1.002516  0.001
H  H165  1  0.10212717  0.43071387  0.06319895  1  0.044913  0.005254  0.089974  0.056653  0.002404  1.051326  0.003
H  H166  1  0.48978052  0.34238565  0.03065405  1  0.08126  -8e-05  0.111904  0.098123  -0.000166  1.004163  0.0
H  H167  1  0.29820522  0.33976024  0.02375935  1  0.025834  0.002226  0.096646  0.07636  0.001067  1.020633  0.001
H  H168  1  0.33239312  0.41278532  0.93082638  1  0.038955  0.000246  0.105869  0.080951  -1.2e-05  0.995437  0.0
H  H169  1  0.46317616  0.32565044  0.92572586  1  0.023452  0.004282  0.094238  0.065051  0.00202  0.979845  0.002
H  H170  1  0.47913121  0.46900865  0.86464119  1  0.059136  0.000471  0.112506  0.067368  0.000118  1.004896  0.0
H  H171  1  0.63992763  0.39258065  0.84452832  1  0.054941  0.006814  0.106619  0.05713  0.003269  0.967175  0.003
C  C172  1  0.57318302  0.68205482  0.74155078  1  0.42996  0.000126  -0.06051  -0.023645  0.00011  3.859914  0.0
C  C173  1  0.75541802  0.75673967  0.69478207  1  0.393201  0.000145  -0.063571  -0.031447  0.000113  3.855642  0.0
C  C174  1  0.40335930  0.64949740  0.68189313  1  0.398549  3.7e-05  0.083406  0.259465  -2.4e-05  4.071834  0.0
C  C175  1  0.31100383  0.67533119  0.64038713  1  0.018134  0.00034  -0.10492  -0.197855  0.000169  4.000912  0.0
C  C176  1  0.23684499  0.62945375  0.61696459  1  -0.052895  -0.000106  -0.090413  -0.076349  -0.000185  4.018799  0.0
C  C177  1  0.24836506  0.55771020  0.63520488  1  -0.000231  0.006938  -0.035035  -0.070597  0.00425  4.00231  0.005
C  C178  1  0.33450094  0.53372121  0.67898327  1  -0.074935  0.000901  -0.086446  -0.075516  0.000421  4.003298  0.001
C  C179  1  0.41351745  0.57884616  0.70241732  1  -0.014579  0.000843  -0.114201  -0.236592  0.000483  4.023826  0.001
C  C180  1  0.93764378  0.82978347  0.66417101  1  0.45809  -8.2e-05  0.08348  0.259561  -0.000126  4.057257  0.0
C  C181  1  0.98858489  0.79264090  0.60941403  1  -0.079227  0.000898  -0.113722  -0.234242  0.000514  4.02291  0.001
C  C182  1  0.11268756  0.80908063  0.57052687  1  -0.049749  0.000923  -0.085113  -0.073974  0.000467  4.010646  0.001
C  C183  1  0.18428615  0.86308002  0.58462665  1  -0.015319  0.006958  -0.033934  -0.072304  0.004263  4.013317  0.005
C  C184  1  0.31487949  0.88097136  0.54118055  1  1.573799  -0.000469  0.19752  0.551221  -0.000211  4.238673  -0.001
C  C185  1  0.12994897  0.90028636  0.63951446  1  -0.100862  -0.000183  -0.088042  -0.079262  -0.000241  4.013078  0.0
C  C186  1  0.00920660  0.88348488  0.67943299  1  -0.019023  0.000286  -0.103642  -0.199146  0.000133  3.990795  0.0
C  C187  1  0.17298943  0.50853134  0.60585198  1  1.561773  1.1e-05  0.196138  0.555229  0.00028  4.234058  0.0
C  C188  1  0.85146126  0.40935752  0.57663956  1  0.287103  0.000428  -0.066645  -0.039326  0.000126  3.908935  -0.001
C  C189  1  0.20449485  0.51472918  0.39378884  1  0.258885  -0.000145  -0.070881  -0.094101  -0.000371  3.884832  -0.001
C  C190  1  0.36389508  0.44664669  0.45864334  1  0.217738  0.000838  -0.076489  -0.057397  0.000704  3.859707  -0.001
C  C191  1  0.38966685  0.38430021  0.50083572  1  -0.025523  0.000212  -0.171228  -0.197623  -5.6e-05  3.911482  0.0
C  C192  1  0.20014520  0.38694737  0.41478992  1  0.565032  -0.001034  0.01585  0.000849  -0.001089  3.923016  -0.002
C  C193  1  0.06221994  0.33670175  0.50162486  1  0.62634  -0.000111  0.026827  0.06514  -0.00023  3.929295  -0.002
C  C194  1  0.35052292  0.31599956  0.47885096  1  0.280904  -3.2e-05  -0.069855  -0.05073  -4.2e-05  3.913462  0.0
C  C195  1  0.60140062  0.94090222  0.60853264  1  0.595941  -0.000986  0.016754  0.004638  -0.001026  3.919868  -0.002
C  C196  1  0.68379402  0.04256540  0.64124952  1  0.303701  1e-05  -0.066749  -0.049148  1e-06  3.938253  0.0
C  C197  1  0.78536604  0.04509217  0.58082899  1  -0.047733  0.000234  -0.172581  -0.200775  -4.1e-05  3.922115  0.0
C  C198  1  0.81908581  0.97323054  0.54563862  1  0.230235  0.000983  -0.076152  -0.056471  0.000822  3.859002  -0.001
C  C199  1  0.72419670  0.87211079  0.51493491  1  0.237844  1.3e-05  -0.075175  -0.104748  -0.000261  3.892616  -0.001
C  C200  1  0.73639425  0.88006744  0.44863057  1  0.274708  0.00053  -0.070248  -0.044693  0.000256  3.922651  -0.001
C  C201  1  0.58790587  0.94078751  0.37472056  1  0.643462  -0.000138  0.027507  0.066474  -0.000176  3.935089  -0.002
C  C202  1  0.50037908  0.81829702  0.75645667  1  0.448959  -2.5e-05  -0.06039  -0.023426  -4.8e-05  3.85947  0.0
C  C203  1  0.70781698  0.74317033  0.80415265  1  0.380242  -2.6e-05  -0.063984  -0.032052  -4.8e-05  3.852502  0.0
C  C204  1  0.24055030  0.85053035  0.81476465  1  0.414654  -9.4e-05  0.081802  0.257377  -0.000121  4.075104  0.0
C  C205  1  0.13201342  0.82406852  0.85499906  1  0.052397  -0.000169  -0.108582  -0.202481  -0.000168  4.008123  0.0
C  C206  1  0.99039623  0.86977835  0.87780660  1  -0.139848  -2.5e-05  -0.091477  -0.077649  -7e-05  4.023566  0.0
C  C207  1  0.95057331  0.94186914  0.86014380  1  0.037527  0.000946  -0.035247  -0.067427  0.000551  4.000271  0.001
C  C208  1  0.05660908  0.96633353  0.81734690  1  -0.040461  0.000426  -0.089004  -0.080669  0.000178  4.009118  0.0
C  C209  1  0.20271140  0.92139617  0.79462974  1  -0.105246  -0.000143  -0.114772  -0.237914  -0.000159  4.0285  0.0
C  C210  1  0.93111285  0.67010662  0.83521999  1  0.451432  -0.000115  0.08503  0.261688  -0.000147  4.060987  0.0
C  C211  1  0.89303344  0.70717085  0.89003588  1  -0.090856  0.000914  -0.11227  -0.232223  0.00054  4.024551  0.001
C  C212  1  0.99574608  0.69093740  0.92903193  1  -0.096808  0.000934  -0.085453  -0.074258  0.000466  4.008287  0.001
C  C213  1  0.13344072  0.63706949  0.91500237  1  0.027935  0.006921  -0.034787  -0.073863  0.004247  4.012157  0.005
C  C214  1  0.23892497  0.61895307  0.95876942  1  1.577224  -0.000508  0.198146  0.552111  -0.000223  4.23635  -0.001
C  C215  1  0.16836989  0.59997769  0.86005326  1  -0.133319  -0.000193  -0.088578  -0.079441  -0.000253  4.015605  0.0
C  C216  1  0.06982874  0.61668313  0.81998853  1  0.008619  0.000293  -0.103451  -0.201777  0.000132  3.996101  0.0
C  C217  1  0.79941571  0.99019807  0.89086887  1  1.58641  0.000712  0.187609  0.552712  0.000562  4.26023  0.001
C  C218  1  0.34477967  0.08850541  0.92173875  1  0.263617  -0.001057  -0.066589  -0.045478  -0.000935  3.90643  -0.002
C  C219  1  0.60722126  0.98708215  0.10729064  1  0.248866  0.001136  -0.07147  -0.100038  9e-06  3.887421  0.002
C  C220  1  0.76538100  0.05309743  0.04142961  1  0.242991  -0.000905  -0.075743  -0.060817  -0.001623  3.846231  0.0
C  C221  1  0.77306792  0.11558096  0.99960755  1  -0.039577  -0.000251  -0.16954  -0.195255  -0.000174  3.906587  0.0
C  C222  1  0.50126894  0.11354820  0.08494148  1  0.570571  6.7e-05  0.016907  -0.001675  -0.000674  3.910189  0.001
C  C223  1  0.40521391  0.16130463  0.99753074  1  0.610202  0.000772  0.028872  0.055577  0.000531  3.926697  0.0
C  C224  1  0.64749583  0.18415364  0.02166425  1  0.305937  -2.1e-05  -0.06978  -0.052948  -4.2e-05  3.912816  0.0
C  C225  1  0.64889919  0.55943310  0.89177764  1  0.577762  -0.000976  0.015805  0.003251  -0.001015  3.920489  -0.002
C  C226  1  0.86228564  0.45821069  0.85928233  1  0.283976  1.3e-05  -0.067529  -0.050354  -1e-06  3.94064  0.0
C  C227  1  0.90786135  0.45575842  0.91984103  1  -0.019995  0.00024  -0.173118  -0.201214  -3.8e-05  3.921473  0.0
C  C228  1  0.83680915  0.52745814  0.95516326  1  0.233312  0.001027  -0.075499  -0.054531  0.000836  3.856509  -0.001
C  C229  1  0.61324744  0.62809146  0.98566159  1  0.265133  -8.6e-05  -0.074894  -0.105837  -0.000337  3.895485  -0.001
C  C230  1  0.56877031  0.61995116  0.05191247  1  0.276413  0.000468  -0.069254  -0.042697  0.000185  3.920221  -0.001
C  C231  1  0.40798000  0.55910204  0.12539852  1  0.613977  -2.8e-05  0.027246  0.064178  -0.000147  3.940326  -0.002
C  C232  1  0.42681454  0.31794262  0.25844813  1  0.429655  0.000126  -0.060454  -0.023583  0.00011  3.860004  0.0
C  C233  1  0.24458377  0.24325616  0.30521526  1  0.393216  0.000145  -0.063586  -0.03136  0.000113  3.855597  0.0
C  C234  1  0.59663939  0.35050005  0.31810526  1  0.398158  3.8e-05  0.083519  0.259534  -2.3e-05  4.071913  0.0
C  C235  1  0.68900337  0.32466737  0.35960808  1  0.018379  0.000339  -0.105026  -0.198079  0.000169  4.00116  0.0
C  C236  1  0.76315906  0.37054208  0.38303172  1  -0.052893  -0.000106  -0.09043  -0.076235  -0.000185  4.018735  0.0
C  C237  1  0.75163502  0.44228888  0.36479514  1  -0.000256  0.006937  -0.035058  -0.07063  0.004249  4.002441  0.005
C  C238  1  0.66549547  0.46627841  0.32101830  1  -0.074874  0.000901  -0.086478  -0.075543  0.000421  4.003166  0.001
C  C239  1  0.58647393  0.42115454  0.29758330  1  -0.014529  0.000843  -0.11414  -0.236471  0.000483  4.023547  0.001
C  C240  1  0.06235514  0.17021779  0.33583211  1  0.458154  -8.2e-05  0.083431  0.259596  -0.000126  4.057372  0.0
C  C241  1  0.01141493  0.20736091  0.39058686  1  -0.079275  0.000899  -0.113665  -0.234122  0.000514  4.023024  0.001
C  C242  1  0.88730800  0.19092062  0.42947605  1  -0.049778  0.000923  -0.085136  -0.074065  0.000467  4.010621  0.001
C  C243  1  0.81570889  0.13692232  0.41537414  1  -0.015146  0.006956  -0.033972  -0.072558  0.004263  4.01341  0.005
C  C244  1  0.68511161  0.11903206  0.45882137  1  1.574422  -0.000471  0.197613  0.551626  -0.000212  4.238892  -0.001
C  C245  1  0.87003965  0.09971979  0.36048589  1  -0.100889  -0.000183  -0.08804  -0.07908  -0.000241  4.012806  0.0
C  C246  1  0.99078541  0.11652128  0.32056670  1  -0.018905  0.000286  -0.103724  -0.199377  0.000133  3.990726  0.0
C  C247  1  0.82700623  0.49146992  0.39414532  1  1.561831  1e-05  0.196139  0.55513  0.000279  4.234436  0.0
C  C248  1  0.14854107  0.59064157  0.42336074  1  0.287071  0.000428  -0.066618  -0.039225  0.000126  3.908703  -0.001
C  C249  1  0.79550497  0.48527045  0.60621033  1  0.258965  -0.000145  -0.070844  -0.09403  -0.000371  3.884778  -0.001
C  C250  1  0.63609854  0.55335184  0.54135671  1  0.218548  0.000837  -0.076537  -0.057371  0.000704  3.85987  -0.001
C  C251  1  0.61032617  0.61569505  0.49916438  1  -0.025807  0.000212  -0.171283  -0.197779  -5.6e-05  3.911676  0.0
C  C252  1  0.79985155  0.61305389  0.58520946  1  0.565362  -0.001035  0.015941  0.001021  -0.001089  3.922944  -0.002
C  C253  1  0.93777200  0.66330005  0.49837615  1  0.626347  -0.000111  0.026846  0.065053  -0.00023  3.929304  -0.002
C  C254  1  0.64946874  0.68399625  0.52114664  1  0.280707  -3.2e-05  -0.069721  -0.050543  -4.2e-05  3.913213  0.0
C  C255  1  0.39859522  0.05910284  0.39147196  1  0.597054  -0.000987  0.016868  0.004736  -0.001026  3.91968  -0.002
C  C256  1  0.31620974  0.95743969  0.35875238  1  0.303701  1e-05  -0.0667  -0.049244  1e-06  3.938305  0.0
C  C257  1  0.21463185  0.95491344  0.41917158  1  -0.047746  0.000234  -0.172607  -0.200805  -4.1e-05  3.922067  0.0
C  C258  1  0.18091123  0.02677453  0.45436201  1  0.230333  0.000982  -0.076195  -0.056481  0.000821  3.858858  -0.001
C  C259  1  0.27580081  0.12789101  0.48506873  1  0.237889  1.3e-05  -0.075236  -0.104768  -0.000262  3.89264  -0.001
C  C260  1  0.26360550  0.11993219  0.55137292  1  0.274562  0.000531  -0.070121  -0.044476  0.000256  3.922508  -0.001
C  C261  1  0.41209448  0.05921538  0.62528245  1  0.642579  -0.000137  0.027528  0.066662  -0.000176  3.934845  -0.002
C  C262  1  0.49962747  0.18169826  0.24354119  1  0.449449  -2.5e-05  -0.060402  -0.023403  -4.8e-05  3.859484  0.0
C  C263  1  0.29218900  0.25682386  0.19584526  1  0.380324  -2.6e-05  -0.06404  -0.032106  -4.8e-05  3.852691  0.0
C  C264  1  0.75945658  0.14946875  0.18523274  1  0.414791  -9.4e-05  0.081794  0.257278  -0.000121  4.075247  0.0
C  C265  1  0.86799290  0.17593167  0.14499879  1  0.052393  -0.000169  -0.108642  -0.202504  -0.000168  4.0084  0.0
C  C266  1  0.00960783  0.13022401  0.12219313  1  -0.140207  -2.5e-05  -0.091523  -0.077806  -7e-05  4.02385  0.0
C  C267  1  0.04943274  0.05813160  0.13985364  1  0.037581  0.000947  -0.035167  -0.067163  0.000552  4.000182  0.001
C  C268  1  0.94339445  0.03366774  0.18265028  1  -0.04063  0.000426  -0.089097  -0.080728  0.000178  4.009043  0.0
C  C269  1  0.79729635  0.07860130  0.20536500  1  -0.105169  -0.000142  -0.114656  -0.237773  -0.000158  4.028411  0.0
C  C270  1  0.06888982  0.32988976  0.16477554  1  0.450903  -0.000115  0.084936  0.261582  -0.000146  4.060874  0.0
C  C271  1  0.10698394  0.29282991  0.10995645  1  -0.090192  0.000914  -0.112143  -0.232281  0.000541  4.024312  0.001
C  C272  1  0.00425559  0.30906333  0.07095891  1  -0.097525  0.000934  -0.085423  -0.074163  0.000466  4.007922  0.001
C  C273  1  0.86656251  0.36293014  0.08499484  1  0.028848  0.00692  -0.03483  -0.073825  0.004247  4.012024  0.005
C  C274  1  0.76107796  0.38104493  0.04122782  1  1.577231  -0.000506  0.198079  0.552007  -0.000221  4.236517  -0.001
C  C275  1  0.83163359  0.40001705  0.13994309  1  -0.134108  -0.000193  -0.088549  -0.079448  -0.000253  4.015418  0.0
C  C276  1  0.93017273  0.38330888  0.18000841  1  0.008582  0.000293  -0.103425  -0.201682  0.000132  3.996031  0.0
C  C277  1  0.20059571  0.00980322  0.10912690  1  1.586234  0.000712  0.187368  0.552232  0.000563  4.260857  0.001
C  C278  1  0.65522689  0.91149205  0.07825996  1  0.263612  -0.001056  -0.066613  -0.045402  -0.000934  3.906581  -0.002
C  C279  1  0.39278924  0.01291641  0.89270823  1  0.248162  0.001135  -0.071474  -0.09999  9e-06  3.887299  0.002
C  C280  1  0.23462780  0.94690222  0.95857066  1  0.242629  -0.000904  -0.075714  -0.060693  -0.001621  3.846087  0.0
C  C281  1  0.22693697  0.88441977  0.00039170  1  -0.039608  -0.000251  -0.169547  -0.195215  -0.000174  3.906568  0.0
C  C282  1  0.49873787  0.88644872  0.91505851  1  0.57063  6.6e-05  0.01687  -0.001753  -0.000674  3.910392  0.001
C  C283  1  0.59478813  0.83869282  0.00246872  1  0.610266  0.000773  0.02886  0.055479  0.000532  3.926865  0.0
C  C284  1  0.35250594  0.81584654  0.97833608  1  0.305978  -2.1e-05  -0.0698  -0.053057  -4.2e-05  3.912867  0.0
C  C285  1  0.35109888  0.44056762  0.10822553  1  0.577744  -0.000976  0.015956  0.003744  -0.001015  3.920067  -0.002
C  C286  1  0.13771271  0.54178947  0.14072083  1  0.284024  1.3e-05  -0.067516  -0.050325  -1e-06  3.940525  0.0
C  C287  1  0.09213814  0.54424175  0.08016162  1  -0.02024  0.000241  -0.173086  -0.201152  -3.8e-05  3.92141  0.0
C  C288  1  0.16318694  0.47254203  0.04484091  1  0.233247  0.001027  -0.075599  -0.054732  0.000836  3.856498  -0.001
C  C289  1  0.38675175  0.37190926  0.01434193  1  0.265243  -8.6e-05  -0.074963  -0.106007  -0.000337  3.895121  -0.001
C  C290  1  0.43122776  0.38004955  0.94809114  1  0.27589  0.000468  -0.069232  -0.0427  0.000184  3.919991  -0.001
C  C291  1  0.59201384  0.44089812  0.87460538  1  0.614245  -2.8e-05  0.027267  0.064201  -0.000147  3.94031  -0.002
C  C292  1  0.63484630  0.75009151  0.74919287  1  0.050783  1.1e-05  -0.018229  0.04983  0.0  3.807391  0.0
C  C293  1  0.36515802  0.24990378  0.25080385  1  0.051374  1.1e-05  -0.018157  0.049888  0.0  3.807357  0.0
N  N294  1  0.55096928  0.01150059  0.63799533  1  -1.094905  0.001239  -0.346942  -0.179603  0.000375  3.565533  0.001
N  N295  1  0.67879176  0.94437357  0.54588231  1  -0.967669  0.079143  -0.338372  -0.12123  0.047753  3.43479  0.071
N  N296  1  0.58388394  0.91755775  0.43649017  1  -1.073387  0.070808  -0.498296  -0.341141  0.042518  3.509268  0.061
N  N297  1  0.20207713  0.33210205  0.45844024  1  -1.072617  0.001269  -0.345059  -0.179026  0.000406  3.557323  0.001
N  N298  1  0.00799865  0.40251986  0.54136151  1  -1.042053  0.070976  -0.497752  -0.343226  0.042681  3.513287  0.062
N  N299  1  0.21288308  0.45810364  0.43850421  1  -0.966039  0.078833  -0.33924  -0.123195  0.047637  3.443261  0.071
N  N300  1  0.69621781  0.48888525  0.86224621  1  -1.09514  0.001261  -0.346626  -0.178097  0.000383  3.566786  0.001
N  N301  1  0.66881758  0.55593779  0.95457650  1  -0.954462  0.079237  -0.337679  -0.121966  0.047783  3.436909  0.071
N  N302  1  0.44142755  0.58222359  0.06363973  1  -1.084199  0.070719  -0.499153  -0.342482  0.042499  3.511415  0.061
N  N303  1  0.49449469  0.16847627  0.04152194  1  -1.101607  6e-06  -0.346486  -0.177375  -9.6e-05  3.567328  0.0
N  N304  1  0.45802917  0.09390385  0.95902805  1  -1.057002  0.037312  -0.490214  -0.307615  0.021723  3.501633  0.029
N  N305  1  0.60499786  0.04210730  0.06110772  1  -0.964985  -0.055647  -0.333877  -0.099787  -0.052073  3.42983  -0.047
N  N306  1  0.44903136  0.98850394  0.36200851  1  -1.094932  0.001239  -0.346937  -0.179441  0.000375  3.565316  0.001
N  N307  1  0.32120608  0.05562986  0.45412000  1  -0.967601  0.079139  -0.338392  -0.121282  0.047751  3.434671  0.071
N  N308  1  0.41611584  0.08244405  0.56351245  1  -1.073096  0.070814  -0.498378  -0.341249  0.042522  3.509234  0.061
N  N309  1  0.79791816  0.66789540  0.54155969  1  -1.072519  0.001268  -0.345102  -0.179081  0.000406  3.557393  0.001
N  N310  1  0.99199924  0.59748141  0.45863692  1  -1.041922  0.070984  -0.497803  -0.343239  0.042685  3.513266  0.062
N  N311  1  0.78710775  0.54189597  0.56149473  1  -0.965876  0.078834  -0.339215  -0.12314  0.047638  3.443229  0.071
N  N312  1  0.30377914  0.51111546  0.13775705  1  -1.095233  0.00126  -0.346636  -0.1783  0.000383  3.566996  0.001
N  N313  1  0.33117656  0.44406401  0.04542781  1  -0.954612  0.07924  -0.337691  -0.121882  0.047784  3.436388  0.071
N  N314  1  0.55856942  0.41777712  0.93636266  1  -1.084218  0.070716  -0.499177  -0.342488  0.042497  3.511366  0.061
N  N315  1  0.50550538  0.83152282  0.95847852  1  -1.101774  6e-06  -0.346512  -0.177283  -9.6e-05  3.567288  0.0
N  N316  1  0.54197792  0.90609252  0.04097193  1  -1.05639  0.037307  -0.490176  -0.307619  0.02172  3.501868  0.029
N  N317  1  0.39501262  0.95789126  0.93889201  1  -0.964667  -0.055653  -0.333806  -0.099781  -0.052078  3.429933  -0.047
O  O318  1  0.33903126  0.94455424  0.54837112  1  -1.167882  0.066633  -0.320747  -0.557637  0.039304  2.372626  0.062
O  O319  1  0.38884149  0.83405961  0.50117771  1  -1.19664  -0.001016  -0.336008  -0.563388  -0.001458  2.141182  -0.001
O  O320  1  0.15963853  0.44857234  0.62813922  1  -1.188118  -0.001038  -0.349589  -0.572281  -0.00149  2.098334  -0.001
O  O321  1  0.12848181  0.53328990  0.55823497  1  -1.172974  0.065658  -0.325254  -0.564703  0.038678  2.37903  0.061
O  O322  1  0.48177349  0.69798888  0.69696120  1  -1.104642  0.000196  -0.180436  -0.203291  4.4e-05  2.620797  0.0
O  O323  1  0.81649651  0.81811962  0.70513955  1  -1.089982  0.000164  -0.179593  -0.197939  3.8e-05  2.55702  0.0
O  O324  1  0.33249100  0.55561540  0.95132026  1  -1.17516  0.066619  -0.320525  -0.557944  0.039304  2.372885  0.062
O  O325  1  0.22745358  0.66546674  0.99932962  1  -1.193692  -0.001035  -0.335108  -0.563494  -0.00146  2.145936  -0.001
O  O326  1  0.74530945  0.05066474  0.86965289  1  -1.201234  -0.000331  -0.361797  -0.588525  -0.000523  2.077469  -0.001
O  O327  1  0.73745926  0.96472054  0.93843444  1  -1.191726  0.017247  -0.331425  -0.584046  0.010043  2.316325  0.015
O  O328  1  0.38116647  0.80235917  0.80063640  1  -1.100344  -0.00018  -0.181597  -0.204716  -0.000141  2.624304  0.0
O  O329  1  0.83808882  0.68164582  0.79416662  1  -1.082701  0.000105  -0.181004  -0.199524  -6e-06  2.55978  0.0
O  O330  1  0.66096355  0.05545300  0.45162966  1  -1.16835  0.066611  -0.320753  -0.557716  0.039292  2.373081  0.062
O  O331  1  0.61114027  0.16594869  0.49883045  1  -1.196786  -0.001015  -0.336022  -0.563605  -0.001457  2.141044  -0.001
O  O332  1  0.84036283  0.55143329  0.37185549  1  -1.188178  -0.001037  -0.349601  -0.572204  -0.001489  2.098158  -0.001
O  O333  1  0.87150855  0.46671298  0.44176096  1  -1.172967  0.065652  -0.325282  -0.564742  0.038674  2.379307  0.061
O  O334  1  0.51822611  0.30201130  0.30303540  1  -1.104492  0.000196  -0.180404  -0.203184  4.4e-05  2.620918  0.0
O  O335  1  0.18349851  0.18188055  0.29486168  1  -1.089983  0.000164  -0.179565  -0.198009  3.8e-05  2.557083  0.0
O  O336  1  0.66750177  0.44438258  0.04867985  1  -1.175058  0.066624  -0.320499  -0.557898  0.039307  2.372677  0.062
O  O337  1  0.77254685  0.33453616  0.00066863  1  -1.19379  -0.001036  -0.335082  -0.563448  -0.001461  2.14631  -0.001
O  O338  1  0.25468907  0.94933979  0.13034332  1  -1.20099  -0.000331  -0.361756  -0.588378  -0.000523  2.077841  -0.001
O  O339  1  0.26255559  0.03528294  0.06155978  1  -1.191855  0.017251  -0.331164  -0.583754  0.010044  2.316421  0.015
O  O340  1  0.61884036  0.19763775  0.19936230  1  -1.100208  -0.00018  -0.181595  -0.204661  -0.000141  2.624341  0.0
O  O341  1  0.16191412  0.31835001  0.20582933  1  -1.082641  0.000105  -0.18098  -0.199457  -6e-06  2.559533  0.0
