# generated using pymatgen
data_Ni4H27C37N5O14
_symmetry_space_group_name_H-M   'P 1'
_cell_length_a   13.06750282
_cell_length_b   18.32633549
_cell_length_c   21.53647255
_cell_angle_alpha   89.99998915
_cell_angle_beta   101.42203825
_cell_angle_gamma   89.99998797
_symmetry_Int_Tables_number   1
_chemical_formula_structural   Ni4H27C37N5O14
_chemical_formula_sum   'Ni16 H108 C148 N20 O56'
_cell_volume   5055.39766159
_cell_formula_units_Z   4
loop_
 _symmetry_equiv_pos_site_id
 _symmetry_equiv_pos_as_xyz
  1  'x, y, z'
loop_
 _atom_site_type_symbol
 _atom_site_label
 _atom_site_symmetry_multiplicity
 _atom_site_fract_x
 _atom_site_fract_y
 _atom_site_fract_z
 _atom_site_occupancy
 _atom_site_pbe_bader_charge
 _atom_site_pbe_bader_spin_density
 _atom_site_pbe_cm5_charge
 _atom_site_pbe_ddec_charge
 _atom_site_pbe_ddec_spin_density
 _atom_site_pbe_ddec_sum_bond_order
 _atom_site_pbe_magmom
Ni  Ni0  1  0.78197397  0.71991144  0.12754632  1  1.190479  1.57029  0.649585  0.835493  1.766894  2.461562  1.556
Ni  Ni1  1  0.71802577  0.21991185  0.37245379  1  1.190476  1.57029  0.649591  0.83552  1.766894  2.461517  1.556
Ni  Ni2  1  0.21802560  0.28008861  0.87245355  1  1.190469  1.570291  0.649584  0.83553  1.766895  2.461515  1.556
Ni  Ni3  1  0.28197381  0.78008821  0.62754608  1  1.19048  1.570291  0.649587  0.835487  1.766896  2.461564  1.556
Ni  Ni4  1  0.98955397  0.77865966  0.21195278  1  1.20641  1.569577  0.627195  0.897978  1.770378  2.468922  1.556
Ni  Ni5  1  0.51044575  0.27865957  0.28804686  1  1.206406  1.569578  0.627183  0.897964  1.77038  2.468962  1.556
Ni  Ni6  1  0.01044561  0.22134040  0.78804663  1  1.206421  1.569578  0.627198  0.897989  1.77038  2.46892  1.556
Ni  Ni7  1  0.48955460  0.72133995  0.71195311  1  1.206419  1.569578  0.627186  0.89797  1.770379  2.468923  1.556
Ni  Ni8  1  0.99255701  0.61923608  0.23407935  1  1.210169  1.574337  0.630933  0.90414  1.773683  2.466715  1.561
Ni  Ni9  1  0.50744277  0.11923599  0.26592078  1  1.210169  1.574335  0.630902  0.904103  1.773682  2.466773  1.561
Ni  Ni10  1  0.00744257  0.38076398  0.76592052  1  1.210171  1.574336  0.630919  0.904109  1.773683  2.46673  1.561
Ni  Ni11  1  0.49255758  0.88076407  0.73407965  1  1.210169  1.574335  0.63093  0.904134  1.773681  2.466772  1.561
Ni  Ni12  1  0.11067449  0.64694055  0.12328895  1  1.218465  1.577923  0.640432  0.911835  1.771022  2.419828  1.562
Ni  Ni13  1  0.38932563  0.14694093  0.37671077  1  1.21847  1.577922  0.640439  0.911862  1.771021  2.419797  1.562
Ni  Ni14  1  0.88932508  0.35305896  0.87671092  1  1.218489  1.577925  0.640432  0.911823  1.771021  2.419823  1.562
Ni  Ni15  1  0.61067472  0.85305913  0.62328920  1  1.218514  1.577922  0.640433  0.911834  1.771021  2.419831  1.562
H  H16  1  0.01109678  0.76237271  0.95034666  1  0.104164  0.000263  0.099639  0.100497  0.000112  1.012504  0.0
H  H17  1  0.48890342  0.26237260  0.54965307  1  0.104163  0.000263  0.099649  0.1005  0.000112  1.012458  0.0
H  H18  1  0.98890280  0.23762680  0.04965322  1  0.104172  0.000263  0.099634  0.100494  0.000112  1.012474  0.0
H  H19  1  0.51109772  0.73762692  0.45034653  1  0.104129  0.000263  0.099636  0.100495  0.000112  1.012486  0.0
H  H20  1  0.94758835  0.84621920  0.85871467  1  0.054916  0.000123  0.098504  0.097671  4.1e-05  1.010921  0.0
H  H21  1  0.55241224  0.34621913  0.64128555  1  0.054918  0.000123  0.098516  0.097671  4.1e-05  1.010898  0.0
H  H22  1  0.05241201  0.15378086  0.14128576  1  0.054906  0.000123  0.098516  0.097677  4.1e-05  1.01089  0.0
H  H23  1  0.44758655  0.65378148  0.35871377  1  0.054896  0.000123  0.098508  0.097653  4.1e-05  1.01091  0.0
H  H24  1  0.84784727  0.95773632  0.87474427  1  0.071169  -8e-06  0.09722  0.09242  -6.3e-05  1.021404  0.0
H  H25  1  0.65215328  0.45773624  0.62525592  1  0.071135  -8e-06  0.097224  0.092442  -6.3e-05  1.021398  0.0
H  H26  1  0.15215465  0.04226429  0.12525635  1  0.071094  -8e-06  0.097243  0.092477  -6.3e-05  1.021347  0.0
H  H27  1  0.34784551  0.54226437  0.37474386  1  0.071112  -8e-06  0.097254  0.092496  -6.3e-05  1.021331  0.0
H  H28  1  0.80812439  0.98476026  0.98073624  1  0.052422  0.000227  0.100669  0.096362  8.8e-05  0.994586  0.0
H  H29  1  0.69187536  0.48475965  0.51926339  1  0.052428  0.000227  0.100674  0.096378  8.8e-05  0.994582  0.0
H  H30  1  0.19187596  0.01524035  0.01926373  1  0.052424  0.000227  0.100683  0.09642  8.8e-05  0.994578  0.0
H  H31  1  0.30812421  0.51524095  0.48073695  1  0.052439  0.000227  0.100665  0.09638  8.8e-05  0.994564  0.0
H  H32  1  0.86279384  0.89659161  0.07002941  1  0.094302  -1.3e-05  0.10386  0.110706  -0.000121  1.000282  0.0
H  H33  1  0.63720584  0.39659147  0.42997067  1  0.094305  -1.3e-05  0.103843  0.110656  -0.000121  1.000306  0.0
H  H34  1  0.13720651  0.10340845  0.92997102  1  0.094306  -1.3e-05  0.103868  0.110695  -0.000121  1.000273  0.0
H  H35  1  0.36279374  0.60340969  0.57002921  1  0.094317  -1.3e-05  0.103846  0.110682  -0.000121  1.000317  0.0
H  H36  1  0.84713789  0.97174682  0.28162334  1  0.106252  0.001102  0.111433  0.12178  0.00054  1.000375  0.001
H  H37  1  0.65286254  0.47174672  0.21837635  1  0.106257  0.001102  0.111421  0.12176  0.00054  1.000411  0.001
H  H38  1  0.15286247  0.02825324  0.71837617  1  0.106265  0.001102  0.111431  0.121781  0.00054  1.000364  0.001
H  H39  1  0.34713781  0.52825334  0.78162362  1  0.106259  0.001102  0.11141  0.121714  0.00054  1.000405  0.001
H  H40  1  0.73464419  0.07486321  0.30681237  1  0.135351  0.002141  0.113919  0.086642  0.000829  1.050256  0.001
H  H41  1  0.76535560  0.57486335  0.19318777  1  0.135346  0.002141  0.113916  0.086632  0.000829  1.050259  0.001
H  H42  1  0.26535538  0.92513630  0.69318751  1  0.135342  0.002141  0.113915  0.08664  0.000829  1.050243  0.001
H  H43  1  0.23464475  0.42513671  0.80681220  1  0.135345  0.002141  0.113911  0.08664  0.000829  1.050253  0.001
H  H44  1  0.48404497  0.00708701  0.17054726  1  0.122674  0.001808  0.123765  0.103153  0.000601  1.002262  0.002
H  H45  1  0.01595442  0.50708715  0.32945286  1  0.122681  0.001808  0.123739  0.103105  0.000601  1.002289  0.002
H  H46  1  0.51595460  0.99291305  0.82945262  1  0.122682  0.001808  0.123742  0.103108  0.000601  1.002284  0.002
H  H47  1  0.98404515  0.49291291  0.67054701  1  0.122671  0.001808  0.123745  0.103133  0.000601  1.002302  0.002
H  H48  1  0.58572665  0.90016844  0.14049754  1  0.115671  0.001065  0.108561  0.117075  0.000577  1.009096  0.0
H  H49  1  0.91427303  0.40016882  0.35950254  1  0.115679  0.001065  0.108579  0.117093  0.000577  1.009081  0.0
H  H50  1  0.41427292  0.09983162  0.85950233  1  0.115676  0.001065  0.108565  0.117084  0.000577  1.009089  0.0
H  H51  1  0.08572655  0.59983179  0.64049734  1  0.115668  0.001065  0.108565  0.117079  0.000577  1.009093  0.0
H  H52  1  0.39732584  0.64115214  0.07650446  1  0.095009  0.001275  0.111013  0.122936  0.000602  1.003521  0.001
H  H53  1  0.10267428  0.14115200  0.42349573  1  0.095015  0.001275  0.111015  0.122939  0.000602  1.003513  0.001
H  H54  1  0.60267451  0.35884737  0.92349597  1  0.095001  0.001275  0.111016  0.122948  0.000602  1.003515  0.001
H  H55  1  0.89732607  0.85884751  0.57650471  1  0.09502  0.001275  0.111013  0.122956  0.000602  1.003523  0.001
H  H56  1  0.58561683  0.63770682  0.06513387  1  0.104412  0.002277  0.118666  0.090475  0.000796  0.989355  0.001
H  H57  1  0.91438295  0.13770663  0.43486626  1  0.104432  0.002277  0.118659  0.090474  0.000796  0.989366  0.001
H  H58  1  0.41438353  0.36229324  0.93486656  1  0.104404  0.002277  0.118684  0.090533  0.000796  0.989332  0.001
H  H59  1  0.08561663  0.86229343  0.56513362  1  0.104438  0.002277  0.118668  0.090473  0.000796  0.989347  0.001
H  H60  1  0.68196727  0.73555396  0.24016463  1  0.098009  0.003011  0.11876  0.085367  0.001187  0.989449  0.002
H  H61  1  0.81803324  0.23555382  0.25983557  1  0.098023  0.003011  0.118755  0.085359  0.001187  0.989483  0.002
H  H62  1  0.31803308  0.26444665  0.75983580  1  0.09802  0.003011  0.118748  0.085369  0.001187  0.989505  0.002
H  H63  1  0.18196711  0.76444624  0.74016486  1  0.098  0.003011  0.118757  0.085364  0.001187  0.989469  0.002
H  H64  1  0.49934232  0.73645322  0.26065319  1  0.105451  0.0012  0.114392  0.125768  0.000536  0.991522  0.001
H  H65  1  0.00065778  0.23645314  0.23934698  1  0.105456  0.0012  0.114402  0.125783  0.000536  0.991509  0.001
H  H66  1  0.50065804  0.26354684  0.73934724  1  0.105471  0.0012  0.114403  0.125784  0.000536  0.991506  0.001
H  H67  1  0.99934258  0.76354638  0.76065299  1  0.105445  0.0012  0.114401  0.125776  0.000536  0.991515  0.001
H  H68  1  0.20619760  0.81614401  0.38545865  1  0.11955  0.001216  0.114791  0.128044  0.00054  0.982427  0.001
H  H69  1  0.29380325  0.31614446  0.11454067  1  0.119557  0.001216  0.114792  0.128021  0.00054  0.98243  0.001
H  H70  1  0.79380276  0.18385550  0.61454085  1  0.119549  0.001216  0.1148  0.128027  0.00054  0.982453  0.001
H  H71  1  0.70619711  0.68385560  0.88545930  1  0.119556  0.001216  0.114801  0.128052  0.00054  0.982439  0.001
H  H72  1  0.29882351  0.83344423  0.49832652  1  0.092046  0.00224  0.113796  0.080203  0.000859  1.03656  0.002
H  H73  1  0.20117577  0.33344417  0.00167307  1  0.092025  0.00224  0.113792  0.080216  0.000859  1.03656  0.002
H  H74  1  0.70117607  0.16655583  0.50167336  1  0.09204  0.00224  0.113791  0.080217  0.000859  1.036555  0.002
H  H75  1  0.79882380  0.66655534  0.99832680  1  0.092039  0.00224  0.113791  0.080218  0.000859  1.036546  0.002
H  H76  1  0.12279702  0.67344062  0.56192708  1  0.119358  0.001718  0.11704  0.090891  0.000585  1.026882  0.001
H  H77  1  0.37720320  0.17344098  0.93807267  1  0.119351  0.001718  0.117031  0.090869  0.000585  1.026906  0.001
H  H78  1  0.87720411  0.32655890  0.43807299  1  0.11935  0.001718  0.117018  0.090862  0.000585  1.026921  0.001
H  H79  1  0.62279637  0.82655908  0.06192720  1  0.119352  0.001718  0.117019  0.090871  0.000585  1.026901  0.001
H  H80  1  0.02939129  0.64411181  0.45050873  1  0.08932  0.001257  0.113436  0.123626  0.000604  0.983603  0.0
H  H81  1  0.47060806  0.14411169  0.04949090  1  0.089328  0.001257  0.113431  0.123614  0.000604  0.983611  0.0
H  H82  1  0.97060829  0.35588825  0.54949115  1  0.089326  0.001257  0.113429  0.123611  0.000604  0.983613  0.0
H  H83  1  0.52939152  0.85588837  0.95050897  1  0.089321  0.001257  0.113429  0.123614  0.000604  0.983607  0.0
H  H84  1  0.17583194  0.41944114  0.31274246  1  0.084906  0.001281  0.111066  0.119015  0.000613  0.996484  0.001
H  H85  1  0.32416808  0.91944072  0.18725814  1  0.084917  0.001281  0.111072  0.11903  0.000613  0.996481  0.001
H  H86  1  0.82416841  0.58055946  0.68725797  1  0.084907  0.001281  0.111064  0.119025  0.000613  0.996486  0.001
H  H87  1  0.67583149  0.08055934  0.81274174  1  0.084903  0.001281  0.111088  0.119054  0.000613  0.996446  0.001
H  H88  1  0.31229384  0.32125674  0.34032609  1  0.127702  0.002015  0.122814  0.101279  0.000684  0.994104  0.001
H  H89  1  0.18770544  0.82125690  0.15967443  1  0.127717  0.002015  0.122836  0.101311  0.000684  0.994062  0.001
H  H90  1  0.68770573  0.67874332  0.65967425  1  0.127708  0.002015  0.122829  0.101322  0.000684  0.994072  0.001
H  H91  1  0.81229414  0.17874316  0.84032591  1  0.127705  0.002015  0.12283  0.101322  0.000684  0.994071  0.001
H  H92  1  0.49470888  0.41389119  0.22481225  1  0.147533  0.001722  0.117564  0.094877  0.000556  1.036788  0.002
H  H93  1  0.00529114  0.91389080  0.27518835  1  0.147529  0.001722  0.117558  0.094864  0.000556  1.036806  0.002
H  H94  1  0.50529147  0.58610887  0.77518819  1  0.147536  0.001722  0.117563  0.094881  0.000556  1.036783  0.002
H  H95  1  0.99470921  0.08610871  0.72481208  1  0.147503  0.001722  0.117557  0.094864  0.000556  1.036808  0.002
H  H96  1  0.36614250  0.51556511  0.19273762  1  0.080498  0.000922  0.107159  0.115913  0.000444  1.013438  0.0
H  H97  1  0.13385689  0.01556553  0.30726203  1  0.080491  0.000922  0.107159  0.115893  0.000444  1.013442  0.0
H  H98  1  0.63385707  0.48443441  0.80726225  1  0.080498  0.000922  0.107166  0.115889  0.000444  1.013446  0.0
H  H99  1  0.86614346  0.98443453  0.69273794  1  0.080488  0.000922  0.107171  0.115918  0.000444  1.013459  0.0
H  H100  1  0.73036891  0.54986372  0.99542752  1  0.086355  0.000899  0.108489  0.116348  0.000448  1.012522  0.0
H  H101  1  0.76963101  0.04986419  0.50457220  1  0.086349  0.000899  0.108487  0.116348  0.000448  1.012527  0.0
H  H102  1  0.26963067  0.45013580  0.00457235  1  0.086346  0.000899  0.108499  0.116375  0.000448  1.012519  0.0
H  H103  1  0.23036935  0.95013587  0.49542777  1  0.086349  0.000899  0.1085  0.116364  0.000448  1.012552  0.0
H  H104  1  0.73963592  0.45759978  0.91022012  1  0.144013  0.001591  0.118743  0.091154  0.000478  1.02883  0.001
H  H105  1  0.76036306  0.95759994  0.58977989  1  0.144168  0.00159  0.118746  0.091147  0.000478  1.028861  0.001
H  H106  1  0.26036365  0.54239973  0.08977976  1  0.14402  0.001591  0.118751  0.091164  0.000478  1.028823  0.001
H  H107  1  0.23963651  0.04240012  0.41021999  1  0.144166  0.00159  0.11874  0.091142  0.000478  1.028877  0.001
H  H108  1  0.00926086  0.36716451  0.01348867  1  0.120057  0.001854  0.1164  0.086514  0.000718  1.01346  0.001
H  H109  1  0.49073919  0.86716454  0.48651147  1  0.120064  0.001854  0.116402  0.086513  0.000718  1.013463  0.001
H  H110  1  0.99073950  0.63283555  0.98651176  1  0.12006  0.001854  0.11643  0.086492  0.000718  1.013495  0.001
H  H111  1  0.50926039  0.13283552  0.51348841  1  0.120061  0.001854  0.116432  0.086491  0.000718  1.013491  0.001
H  H112  1  0.01637005  0.45947592  0.10136947  1  0.093518  0.000988  0.115923  0.133279  0.000378  0.981233  0.0
H  H113  1  0.48362996  0.95947597  0.39863019  1  0.093509  0.000988  0.115915  0.133276  0.000378  0.981234  0.0
H  H114  1  0.98362952  0.54052360  0.89863041  1  0.093494  0.000988  0.11592  0.133282  0.000378  0.981215  0.0
H  H115  1  0.51637040  0.04052409  0.60136978  1  0.093511  0.000988  0.115917  0.13328  0.000378  0.98123  0.0
H  H116  1  0.85013061  0.70642155  0.25015720  1  0.581607  0.001727  0.300764  0.371787  0.00171  0.923383  0.001
H  H117  1  0.64986914  0.20642144  0.24984245  1  0.581602  0.001727  0.300736  0.371783  0.00171  0.923354  0.001
H  H118  1  0.14986897  0.29357796  0.74984267  1  0.581554  0.001727  0.300761  0.37178  0.00171  0.92339  0.001
H  H119  1  0.35013121  0.79357807  0.75015752  1  0.581551  0.001727  0.300743  0.37179  0.00171  0.923377  0.001
H  H120  1  0.16032499  0.70038930  0.22681790  1  0.661148  0.000323  0.283872  0.377526  0.001305  0.957823  0.001
H  H121  1  0.33967512  0.20038916  0.27318181  1  0.661146  0.000323  0.283869  0.377523  0.001305  0.957831  0.001
H  H122  1  0.83967458  0.29961076  0.77318198  1  0.661143  0.000323  0.283864  0.377508  0.001305  0.957855  0.001
H  H123  1  0.66032524  0.79961090  0.72681816  1  0.661143  0.000323  0.283864  0.377515  0.001305  0.95784  0.001
C  C124  1  0.93938244  0.82433112  0.01510584  1  -0.021096  0.009128  -0.025359  -0.049092  0.005411  3.990886  0.007
C  C125  1  0.56061727  0.32433152  0.48489425  1  -0.021051  0.009128  -0.025356  -0.04916  0.005411  3.990855  0.007
C  C126  1  0.06061792  0.17566894  0.98489459  1  -0.021015  0.009129  -0.025418  -0.049204  0.005411  3.990902  0.007
C  C127  1  0.43938231  0.67566963  0.51510516  1  -0.021039  0.009129  -0.025425  -0.049232  0.005411  3.990934  0.007
C  C128  1  0.96516988  0.81077402  0.95589954  1  -0.157073  0.002925  -0.089505  -0.101381  0.001534  3.987165  0.002
C  C129  1  0.53482994  0.31077398  0.54410059  1  -0.157083  0.002925  -0.089571  -0.10142  0.001534  3.987151  0.002
C  C130  1  0.03483047  0.18922549  0.04410089  1  -0.1571  0.002925  -0.08954  -0.101425  0.001534  3.987195  0.002
C  C131  1  0.46516808  0.68922663  0.45589863  1  -0.157049  0.002925  -0.089511  -0.101397  0.001534  3.987192  0.002
C  C132  1  0.93122665  0.85813593  0.90539658  1  0.009833  -7.7e-05  -0.094502  -0.08831  -0.000299  4.018695  0.0
C  C133  1  0.56877237  0.35813641  0.59460298  1  0.009686  -7.7e-05  -0.094432  -0.088174  -0.000299  4.018651  0.0
C  C134  1  0.06877371  0.14186359  0.09460385  1  0.009823  -7.7e-05  -0.094454  -0.0882  -0.000299  4.018707  0.0
C  C135  1  0.43122564  0.64186474  0.40539577  1  0.00981  -7.7e-05  -0.094426  -0.088133  -0.000299  4.018649  0.0
C  C136  1  0.87437894  0.92067216  0.91426963  1  0.018495  0.002998  -0.083671  -0.059849  0.001655  3.984772  0.002
C  C137  1  0.62562085  0.42067210  0.58573001  1  0.018682  0.002998  -0.083687  -0.059947  0.001655  3.984827  0.002
C  C138  1  0.12562298  0.07932844  0.08573099  1  0.018695  0.002997  -0.083705  -0.05995  0.001655  3.984798  0.002
C  C139  1  0.37437561  0.57933015  0.41426902  1  0.018597  0.002997  -0.083771  -0.060047  0.001655  3.984886  0.002
C  C140  1  0.85110584  0.93544216  0.97364607  1  -0.056132  -0.000163  -0.093568  -0.093107  -0.000383  4.030368  0.0
C  C141  1  0.64889471  0.43544210  0.52635413  1  -0.05615  -0.000163  -0.093553  -0.093104  -0.000384  4.030416  0.0
C  C142  1  0.14889685  0.06455845  0.02635511  1  -0.056298  -0.000163  -0.0936  -0.093225  -0.000383  4.030393  0.0
C  C143  1  0.35110252  0.56455960  0.47364547  1  -0.056176  -0.000163  -0.093583  -0.093162  -0.000383  4.030446  0.0
C  C144  1  0.88210735  0.88698358  0.02373865  1  -0.071553  0.003432  -0.085013  -0.087028  0.001921  3.960535  0.002
C  C145  1  0.61789311  0.38698343  0.47626152  1  -0.071569  0.003432  -0.08504  -0.08697  0.001921  3.960524  0.002
C  C146  1  0.11789534  0.11301757  0.97626207  1  -0.071539  0.003432  -0.085004  -0.086933  0.001921  3.960449  0.002
C  C147  1  0.38210568  0.61301717  0.52373779  1  -0.071558  0.003432  -0.084978  -0.086923  0.001921  3.960503  0.002
C  C148  1  0.78525627  0.86236981  0.19487707  1  1.600623  -0.00238  0.213971  0.568975  -0.002875  4.193591  -0.002
C  C149  1  0.71474264  0.36236968  0.30512292  1  1.600641  -0.002381  0.214005  0.568996  -0.002875  4.193549  -0.002
C  C150  1  0.21474330  0.13763025  0.80512234  1  1.600625  -0.00238  0.214024  0.569009  -0.002875  4.193506  -0.002
C  C151  1  0.28525694  0.63762983  0.69487695  1  1.600607  -0.002381  0.213983  0.568971  -0.002875  4.193578  -0.002
C  C152  1  0.72414637  0.92762181  0.20936992  1  -0.047569  0.003477  -0.001306  0.011644  0.000304  3.961605  0.004
C  C153  1  0.77585330  0.42762222  0.29063016  1  -0.047572  0.003478  -0.001314  0.011667  0.000304  3.961604  0.004
C  C154  1  0.27585399  0.07237825  0.79063005  1  -0.047578  0.003478  -0.001315  0.011641  0.000304  3.961592  0.004
C  C155  1  0.22414627  0.57237838  0.70936972  1  -0.047565  0.003478  -0.001308  0.011629  0.000304  3.961614  0.004
C  C156  1  0.76692200  0.97792592  0.25611654  1  -0.039362  0.005939  -0.081103  -0.143467  0.003148  3.954373  0.005
C  C157  1  0.73307843  0.47792580  0.24388362  1  -0.039366  0.005939  -0.081091  -0.143448  0.003148  3.954375  0.005
C  C158  1  0.23307836  0.02207414  0.74388343  1  -0.03935  0.00594  -0.081099  -0.143444  0.003149  3.954352  0.005
C  C159  1  0.26692114  0.52207426  0.75611626  1  -0.039338  0.005939  -0.081071  -0.143351  0.003148  3.954405  0.005
C  C160  1  0.70505483  0.03484758  0.27025919  1  0.45606  -0.004758  0.040248  0.083699  -0.005633  3.93573  -0.003
C  C161  1  0.79494498  0.53484770  0.22974050  1  0.456053  -0.004758  0.04026  0.083697  -0.005633  3.935684  -0.003
C  C162  1  0.29494552  0.96515193  0.72974078  1  0.456067  -0.004757  0.040247  0.083655  -0.005632  3.935769  -0.003
C  C163  1  0.20505460  0.46515181  0.77025937  1  0.456058  -0.004758  0.040267  0.083652  -0.005633  3.935779  -0.003
C  C164  1  0.56465324  0.99673275  0.19362241  1  0.487123  -0.006033  0.046557  0.092234  -0.007232  3.935234  -0.004
C  C165  1  0.93534641  0.49673259  0.30637718  1  0.487179  -0.006033  0.046569  0.092255  -0.007232  3.935264  -0.004
C  C166  1  0.43534634  0.00326731  0.80637700  1  0.487131  -0.006033  0.046587  0.092273  -0.007232  3.935334  -0.004
C  C167  1  0.06465317  0.50326692  0.69362270  1  0.487179  -0.006033  0.046563  0.092202  -0.007232  3.935243  -0.004
C  C168  1  0.62127184  0.93825679  0.17724686  1  -0.02725  0.005  -0.082921  -0.148722  0.002659  3.96876  0.004
C  C169  1  0.87872783  0.43825718  0.32275321  1  -0.027297  0.005  -0.082948  -0.148788  0.002659  3.968792  0.004
C  C170  1  0.37872774  0.06174327  0.82275301  1  -0.027254  0.005  -0.082924  -0.148733  0.002659  3.968782  0.004
C  C171  1  0.12127175  0.56174288  0.67724667  1  -0.027291  0.005  -0.082926  -0.148723  0.002659  3.968705  0.004
C  C172  1  0.32134843  0.69512638  0.17759967  1  1.60846  7.7e-05  0.200427  0.554504  -0.000436  4.236619  -0.001
C  C173  1  0.17865089  0.19512625  0.32240042  1  1.608617  7.7e-05  0.200419  0.554501  -0.000436  4.236649  -0.001
C  C174  1  0.67865114  0.30487368  0.82240067  1  1.608617  7.7e-05  0.200474  0.554582  -0.000436  4.23653  -0.001
C  C175  1  0.82134868  0.80487381  0.67759946  1  1.608625  7.7e-05  0.200455  0.554554  -0.000436  4.236526  -0.001
C  C176  1  0.43396381  0.69012646  0.16936880  1  0.023672  0.002984  0.006045  0.027833  0.000161  3.923082  0.003
C  C177  1  0.06603629  0.19012580  0.33063137  1  0.023668  0.002984  0.006051  0.027837  0.000161  3.92311  0.003
C  C178  1  0.56603654  0.30987360  0.83063163  1  0.023661  0.002984  0.00603  0.027783  0.000161  3.923127  0.003
C  C179  1  0.93396406  0.80987371  0.66936906  1  0.02362  0.002984  0.006012  0.027778  0.000161  3.923146  0.003
C  C180  1  0.45929761  0.66097225  0.11421503  1  -0.061472  0.005921  -0.08166  -0.14839  0.003388  3.950642  0.004
C  C181  1  0.04070251  0.16097158  0.38578515  1  -0.061493  0.005921  -0.081663  -0.148379  0.003388  3.950653  0.004
C  C182  1  0.54070197  0.33902727  0.88578577  1  -0.061454  0.005921  -0.081688  -0.148438  0.003388  3.950731  0.004
C  C183  1  0.95929784  0.83902739  0.61421528  1  -0.061418  0.005921  -0.081673  -0.148448  0.003388  3.950707  0.004
C  C184  1  0.56301106  0.65968884  0.10751770  1  0.488752  -0.00199  0.043965  0.083095  -0.003108  3.961119  -0.001
C  C185  1  0.93698870  0.15968866  0.39248243  1  0.488726  -0.00199  0.043944  0.083035  -0.003108  3.96118  -0.001
C  C186  1  0.43698929  0.34031067  0.89248273  1  0.488722  -0.00199  0.043999  0.083158  -0.003108  3.961174  -0.001
C  C187  1  0.06301165  0.84031140  0.60751801  1  0.48874  -0.00199  0.043989  0.083179  -0.003108  3.961081  -0.001
C  C188  1  0.61719078  0.71350318  0.20544849  1  0.439338  -0.002335  0.044565  0.090302  -0.003398  3.961812  -0.001
C  C189  1  0.88280896  0.21350303  0.29455163  1  0.439334  -0.002335  0.044572  0.090308  -0.003398  3.961828  -0.001
C  C190  1  0.38280879  0.28649688  0.79455185  1  0.439344  -0.002336  0.044546  0.090314  -0.003398  3.961903  -0.001
C  C191  1  0.11719139  0.78649648  0.70544881  1  0.439322  -0.002335  0.044575  0.090351  -0.003398  3.961815  -0.001
C  C192  1  0.51598899  0.71489299  0.21654147  1  -0.042035  0.007252  -0.078342  -0.148661  0.003998  3.951995  0.006
C  C193  1  0.98401075  0.21489228  0.28345864  1  -0.042017  0.007252  -0.078321  -0.148644  0.003998  3.951985  0.006
C  C194  1  0.48401136  0.28510707  0.78345896  1  -0.042026  0.007253  -0.078337  -0.148639  0.003998  3.951955  0.006
C  C195  1  0.01598960  0.78510723  0.71654179  1  -0.042032  0.007252  -0.078322  -0.148633  0.003998  3.951996  0.006
C  C196  1  0.05280317  0.71809660  0.34262436  1  1.613955  -0.001203  0.215306  0.578511  -0.001682  4.178899  -0.002
C  C197  1  0.44719693  0.21809756  0.15737581  1  1.613956  -0.001203  0.215321  0.578561  -0.001683  4.178865  -0.002
C  C198  1  0.94719640  0.28190291  0.65737551  1  1.613946  -0.001203  0.215289  0.578511  -0.001682  4.17895  -0.002
C  C199  1  0.55280265  0.78190250  0.84262407  1  1.613952  -0.001203  0.215308  0.578512  -0.001683  4.178931  -0.002
C  C200  1  0.10897109  0.72964773  0.40979578  1  -0.055721  0.007917  0.011418  0.038565  0.003547  3.929412  0.007
C  C201  1  0.39102822  0.22964816  0.09020383  1  -0.055827  0.007918  0.011427  0.038547  0.003548  3.929391  0.007
C  C202  1  0.89102848  0.27035179  0.59020363  1  -0.055832  0.007917  0.011428  0.038533  0.003547  3.929421  0.007
C  C203  1  0.60897135  0.77035190  0.90979605  1  -0.05583  0.007918  0.011429  0.038602  0.003547  3.929349  0.007
C  C204  1  0.18627423  0.78319852  0.42346951  1  0.000508  0.006811  -0.075397  -0.138862  0.003878  3.938962  0.005
C  C205  1  0.31372428  0.28319843  0.07653046  1  0.000613  0.006811  -0.075411  -0.138782  0.003878  3.938912  0.005
C  C206  1  0.81372378  0.21680154  0.57653064  1  0.000624  0.006811  -0.075402  -0.138758  0.003878  3.938871  0.005
C  C207  1  0.68627529  0.71680163  0.92346942  1  0.00062  0.006811  -0.075396  -0.138842  0.003878  3.938888  0.005
C  C208  1  0.23696238  0.79326817  0.48581269  1  0.48933  -0.001447  0.040422  0.07845  -0.002143  3.974162  -0.001
C  C209  1  0.26303770  0.29326810  0.01418700  1  0.489353  -0.001447  0.040371  0.078343  -0.002143  3.974296  -0.001
C  C210  1  0.76303720  0.20673189  0.51418672  1  0.489339  -0.001447  0.040328  0.078307  -0.002143  3.974236  -0.001
C  C211  1  0.73696266  0.70673196  0.98581297  1  0.48934  -0.001447  0.04033  0.078318  -0.002143  3.974235  -0.001
C  C212  1  0.13835071  0.70342970  0.52116276  1  0.368504  -0.00383  0.045227  0.086041  -0.005022  3.951394  -0.003
C  C213  1  0.36164950  0.20342951  0.97883699  1  0.368571  -0.00383  0.04525  0.086119  -0.005022  3.951352  -0.003
C  C214  1  0.86164964  0.29657036  0.47883675  1  0.368523  -0.00383  0.04526  0.086131  -0.005022  3.951365  -0.003
C  C215  1  0.63835085  0.79657055  0.02116298  1  0.368581  -0.00383  0.045271  0.086113  -0.005022  3.951355  -0.003
C  C216  1  0.08685201  0.68785923  0.45974625  1  0.052159  0.006717  -0.077423  -0.147222  0.003763  3.948848  0.005
C  C217  1  0.41314810  0.18785967  0.04025392  1  0.0521  0.006716  -0.077423  -0.147215  0.003763  3.948831  0.005
C  C218  1  0.91314835  0.31214029  0.54025418  1  0.052155  0.006716  -0.077424  -0.147214  0.003763  3.948836  0.005
C  C219  1  0.58685147  0.81214039  0.95974595  1  0.052095  0.006716  -0.077419  -0.147222  0.003763  3.948824  0.005
C  C220  1  0.17996207  0.53256524  0.22616529  1  1.579039  -0.002598  0.217596  0.58254  -0.003286  4.175038  -0.003
C  C221  1  0.32003809  0.03256510  0.27383492  1  1.579057  -0.002598  0.217611  0.582557  -0.003286  4.175114  -0.003
C  C222  1  0.82003828  0.46743482  0.77383468  1  1.579036  -0.002598  0.217615  0.582562  -0.003286  4.175105  -0.003
C  C223  1  0.67996226  0.96743496  0.72616505  1  1.5791  -0.002598  0.217605  0.582513  -0.003286  4.174995  -0.003
C  C224  1  0.26015738  0.47461912  0.24956666  1  -0.031562  0.005819  0.001925  0.01366  0.002287  3.957346  0.006
C  C225  1  0.23984263  0.97461924  0.25043393  1  -0.031555  0.005818  0.001915  0.013666  0.002287  3.957366  0.006
C  C226  1  0.73984298  0.52538094  0.75043378  1  -0.031563  0.005818  0.001938  0.01367  0.002287  3.957354  0.006
C  C227  1  0.76015773  0.02538082  0.74956604  1  -0.031559  0.005818  0.001914  0.013703  0.002287  3.957358  0.006
C  C228  1  0.24604201  0.42015760  0.29263029  1  -0.038505  0.006013  -0.078632  -0.146701  0.003275  3.94655  0.005
C  C229  1  0.25395801  0.92015718  0.20737030  1  -0.038497  0.006013  -0.078631  -0.146727  0.003275  3.946599  0.005
C  C230  1  0.75395834  0.57984301  0.70737014  1  -0.038494  0.006013  -0.078654  -0.14675  0.003275  3.946606  0.005
C  C231  1  0.74604156  0.07984288  0.79262957  1  -0.038467  0.006013  -0.078708  -0.146858  0.003275  3.946529  0.005
C  C232  1  0.32159336  0.36581394  0.30826740  1  0.470519  -0.003805  0.052534  0.097501  -0.004821  3.915043  -0.002
C  C233  1  0.17840591  0.86581408  0.19173265  1  0.470519  -0.003805  0.052526  0.097493  -0.004822  3.915057  -0.002
C  C234  1  0.67840622  0.63418612  0.69173248  1  0.470509  -0.003805  0.052535  0.09747  -0.004822  3.915041  -0.002
C  C235  1  0.82159367  0.13418598  0.80826769  1  0.470505  -0.003805  0.052541  0.09749  -0.004822  3.915026  -0.002
C  C236  1  0.42331655  0.41774085  0.24329594  1  0.490185  -0.003881  0.041321  0.090578  -0.004833  3.950409  -0.003
C  C237  1  0.07668348  0.91774100  0.25670419  1  0.490384  -0.003881  0.041309  0.09056  -0.004833  3.950437  -0.003
C  C238  1  0.57668381  0.58225921  0.75670403  1  0.490181  -0.003882  0.041336  0.090561  -0.004834  3.950459  -0.003
C  C239  1  0.92331688  0.08225852  0.74329577  1  0.490174  -0.003881  0.041314  0.090549  -0.004833  3.950462  -0.003
C  C240  1  0.35195470  0.47333680  0.22556053  1  -0.029779  0.005417  -0.083996  -0.151133  0.002963  3.978562  0.004
C  C241  1  0.14804453  0.97333694  0.27443949  1  -0.029998  0.005417  -0.083991  -0.151103  0.002963  3.978579  0.004
C  C242  1  0.64804566  0.52666380  0.77443944  1  -0.029771  0.005417  -0.084022  -0.151082  0.002963  3.97859  0.004
C  C243  1  0.85195505  0.02666312  0.72556038  1  -0.029795  0.005417  -0.083976  -0.15108  0.002963  3.978698  0.004
C  C244  1  0.88238765  0.57557107  0.10000522  1  1.564782  0.014304  0.220728  0.577341  0.010839  4.157898  0.012
C  C245  1  0.61761293  0.07557039  0.39999455  1  1.564397  0.014304  0.220766  0.577369  0.010838  4.157822  0.012
C  C246  1  0.11761271  0.42442953  0.89999428  1  1.564401  0.014303  0.220729  0.577292  0.010838  4.157896  0.012
C  C247  1  0.38238743  0.92442912  0.60000495  1  1.564776  0.014305  0.220759  0.5774  0.010839  4.157837  0.012
C  C248  1  0.87513781  0.51324438  0.05407254  1  -0.027472  0.00095  -0.003562  0.00134  -0.001567  3.965432  0.001
C  C249  1  0.62486279  0.01324423  0.44592725  1  -0.027486  0.00095  -0.003566  0.001357  -0.001566  3.965504  0.001
C  C250  1  0.12486254  0.48675568  0.94592743  1  -0.027485  0.00095  -0.003569  0.001358  -0.001566  3.965533  0.001
C  C251  1  0.37513757  0.98675528  0.55407272  1  -0.027482  0.000949  -0.003571  0.001331  -0.001567  3.965518  0.001
C  C252  1  0.79388567  0.51046042  0.00090747  1  -0.064205  0.008594  -0.084227  -0.152663  0.004598  3.963662  0.006
C  C253  1  0.70611415  0.01046079  0.49909223  1  -0.064204  0.008594  -0.084203  -0.152648  0.004598  3.963695  0.006
C  C254  1  0.20611468  0.48953909  0.99909250  1  -0.064218  0.008593  -0.084236  -0.152714  0.004597  3.963632  0.006
C  C255  1  0.29388543  0.98953927  0.50090765  1  -0.064211  0.008594  -0.084233  -0.152665  0.004598  3.963686  0.006
C  C256  1  0.79786072  0.45924440  0.95395273  1  0.478452  -0.006325  0.04597  0.091949  -0.007548  3.94321  -0.004
C  C257  1  0.70213905  0.95924458  0.54604737  1  0.478363  -0.006326  0.045995  0.091989  -0.007548  3.943121  -0.004
C  C258  1  0.20213964  0.54075566  0.04604678  1  0.478505  -0.006326  0.045985  0.092007  -0.007548  3.943053  -0.004
C  C259  1  0.29786052  0.04075548  0.45395297  1  0.478359  -0.006326  0.045987  0.091965  -0.007548  3.943154  -0.004
C  C260  1  0.94993370  0.40941620  0.01139274  1  0.439192  -0.003723  0.046371  0.084517  -0.004511  3.947486  -0.002
C  C261  1  0.55006676  0.90941630  0.48860697  1  0.438966  -0.003723  0.046364  0.084543  -0.004511  3.947509  -0.002
C  C262  1  0.05006666  0.59058386  0.98860723  1  0.439197  -0.003723  0.046333  0.08452  -0.004511  3.94755  -0.002
C  C263  1  0.44993360  0.09058376  0.51139300  1  0.438965  -0.003723  0.04634  0.084526  -0.004511  3.947514  -0.002
C  C264  1  0.95263676  0.45954569  0.06021859  1  0.024947  0.00864  -0.077647  -0.138594  0.004787  3.938647  0.006
C  C265  1  0.54736290  0.95954581  0.43978101  1  0.025172  0.00864  -0.077662  -0.138635  0.004787  3.938656  0.006
C  C266  1  0.04736360  0.54045382  0.93978138  1  0.02499  0.00864  -0.077666  -0.13862  0.004787  3.938692  0.006
C  C267  1  0.45263667  0.04045425  0.56021887  1  0.025195  0.00864  -0.077663  -0.138613  0.004787  3.938675  0.006
C  C268  1  0.97104244  0.77170521  0.06835525  1  1.53067  0.012398  0.220781  0.587027  0.009914  4.151969  0.01
C  C269  1  0.52895650  0.27170508  0.43164476  1  1.530678  0.012398  0.220788  0.587013  0.009914  4.152  0.01
C  C270  1  0.02895635  0.22829485  0.93164407  1  1.530689  0.012398  0.220821  0.587046  0.009914  4.151939  0.01
C  C271  1  0.47104385  0.72829553  0.56835567  1  1.530689  0.012397  0.220812  0.587019  0.009914  4.152052  0.01
N  N272  1  0.60497761  0.04354491  0.24038447  1  -1.216959  0.064367  -0.328483  -0.224749  0.037025  3.576167  0.058
N  N273  1  0.89502220  0.54354501  0.25961521  1  -1.216964  0.064366  -0.328493  -0.224713  0.037025  3.576128  0.058
N  N274  1  0.39502275  0.95645569  0.75961550  1  -1.216982  0.064367  -0.328488  -0.224704  0.037026  3.576269  0.058
N  N275  1  0.10497738  0.45645505  0.74038466  1  -1.216978  0.064367  -0.32849  -0.224673  0.037025  3.576127  0.058
N  N276  1  0.64112284  0.68746034  0.15153663  1  -1.210229  0.082605  -0.32265  -0.233277  0.046648  3.579668  0.073
N  N277  1  0.85887692  0.18746018  0.34846349  1  -1.210234  0.082605  -0.322653  -0.233261  0.046648  3.579656  0.073
N  N278  1  0.35887674  0.31253918  0.84846371  1  -1.210236  0.082605  -0.322654  -0.233401  0.046648  3.579773  0.073
N  N279  1  0.14112344  0.81253934  0.65153694  1  -1.210232  0.082606  -0.322652  -0.233358  0.046649  3.579695  0.073
N  N280  1  0.21189198  0.75573966  0.53453395  1  -1.20426  0.068676  -0.325333  -0.237161  0.039281  3.588522  0.061
N  N281  1  0.28810744  0.25573894  0.96546569  1  -1.204263  0.068675  -0.325278  -0.237152  0.039281  3.58862  0.061
N  N282  1  0.78810760  0.24426094  0.46546546  1  -1.204275  0.068676  -0.325261  -0.237157  0.039281  3.588626  0.061
N  N283  1  0.71189214  0.74426057  0.03453419  1  -1.204268  0.068675  -0.325278  -0.237138  0.039281  3.588607  0.061
N  N284  1  0.40863545  0.36405417  0.28363468  1  -1.192881  0.064413  -0.324663  -0.229082  0.036998  3.561001  0.057
N  N285  1  0.09136460  0.86405432  0.21636547  1  -1.192889  0.064412  -0.324661  -0.229075  0.036998  3.560984  0.057
N  N286  1  0.59136491  0.63594589  0.71636576  1  -1.192895  0.064413  -0.324657  -0.229071  0.036999  3.560994  0.057
N  N287  1  0.90863576  0.13594574  0.78363450  1  -1.192861  0.064413  -0.324642  -0.229038  0.036998  3.560979  0.057
N  N288  1  0.87647118  0.41088830  0.95778165  1  -1.187925  0.061414  -0.317216  -0.217216  0.035192  3.544919  0.054
N  N289  1  0.62352860  0.91088849  0.54221799  1  -1.187974  0.061414  -0.317242  -0.217274  0.035192  3.544869  0.054
N  N290  1  0.12352839  0.58911121  0.04221776  1  -1.187973  0.061414  -0.317225  -0.217263  0.035192  3.54487  0.054
N  N291  1  0.37647097  0.08911157  0.45778188  1  -1.187962  0.061415  -0.317245  -0.217251  0.035192  3.544838  0.054
O  O292  1  0.87827242  0.69792012  0.21226204  1  -1.140908  0.206601  -0.557781  -0.840344  0.118366  2.38655  0.185
O  O293  1  0.62172733  0.19792001  0.28773761  1  -1.140909  0.206601  -0.557755  -0.840336  0.118366  2.386523  0.185
O  O294  1  0.12172793  0.30207993  0.78773793  1  -1.140855  0.2066  -0.55778  -0.840337  0.118366  2.386544  0.185
O  O295  1  0.37827225  0.80208005  0.71226226  1  -1.140845  0.2066  -0.557764  -0.840347  0.118366  2.386517  0.185
O  O296  1  0.08715586  0.69480009  0.20343483  1  -1.193399  0.233871  -0.559426  -0.851833  0.132497  2.399768  0.21
O  O297  1  0.41284424  0.19480047  0.29656488  1  -1.193405  0.23387  -0.559432  -0.851846  0.132497  2.399799  0.21
O  O298  1  0.91284371  0.30519943  0.79656504  1  -1.193419  0.233869  -0.559434  -0.851839  0.132496  2.399807  0.21
O  O299  1  0.58715611  0.80519959  0.70343509  1  -1.1934  0.233871  -0.559429  -0.85184  0.132497  2.399787  0.21
O  O300  1  0.73693367  0.82022664  0.15188787  1  -1.146367  0.073826  -0.303013  -0.548173  0.040558  2.463966  0.068
O  O301  1  0.76306603  0.32022650  0.34811222  1  -1.14636  0.073826  -0.303017  -0.548163  0.040558  2.463896  0.068
O  O302  1  0.26306590  0.17977287  0.84811201  1  -1.146346  0.073826  -0.303063  -0.548259  0.040558  2.463888  0.068
O  O303  1  0.23693432  0.67977302  0.65188775  1  -1.146353  0.073826  -0.303016  -0.548157  0.040558  2.463938  0.068
O  O304  1  0.87649363  0.85420341  0.22708915  1  -1.160891  0.055372  -0.298637  -0.534783  0.030591  2.388233  0.051
O  O305  1  0.62350528  0.35420385  0.27291085  1  -1.160914  0.055371  -0.298647  -0.534795  0.030591  2.388221  0.051
O  O306  1  0.12350673  0.14579719  0.77290943  1  -1.160904  0.055372  -0.298637  -0.53476  0.030591  2.388268  0.051
O  O307  1  0.37649429  0.64579621  0.72708903  1  -1.160902  0.055372  -0.298643  -0.534791  0.030591  2.388236  0.051
O  O308  1  0.30382365  0.70443538  0.23232229  1  -1.154435  0.006228  -0.320999  -0.538634  0.00267  2.09753  0.005
O  O309  1  0.19617645  0.20443472  0.26767789  1  -1.15459  0.006228  -0.320981  -0.538605  0.00267  2.097531  0.005
O  O310  1  0.69617592  0.29556468  0.76767805  1  -1.15458  0.006228  -0.32103  -0.538679  0.00267  2.09743  0.005
O  O311  1  0.80382390  0.79556480  0.73232208  1  -1.15459  0.006228  -0.321043  -0.538692  0.00267  2.097439  0.005
O  O312  1  0.25450819  0.68930198  0.12529523  1  -1.123401  0.090079  -0.320454  -0.554244  0.048609  2.328265  0.082
O  O313  1  0.24549114  0.18930183  0.37470485  1  -1.123397  0.090081  -0.320459  -0.554262  0.04861  2.328272  0.082
O  O314  1  0.74549139  0.31069808  0.87470510  1  -1.123413  0.090082  -0.320462  -0.554246  0.04861  2.328242  0.082
O  O315  1  0.75450921  0.81069768  0.62529512  1  -1.123411  0.090078  -0.320453  -0.554228  0.048608  2.32825  0.082
O  O316  1  0.03874982  0.77525642  0.30869905  1  -1.139617  0.067718  -0.304398  -0.538191  0.037161  2.357316  0.062
O  O317  1  0.46124948  0.27525574  0.19130101  1  -1.139634  0.067715  -0.304367  -0.538183  0.037159  2.357418  0.062
O  O318  1  0.96124976  0.22474473  0.69130082  1  -1.139614  0.067715  -0.304376  -0.538177  0.03716  2.35738  0.062
O  O319  1  0.53875087  0.72474432  0.80869942  1  -1.139634  0.067714  -0.304358  -0.538155  0.037159  2.35742  0.062
O  O320  1  0.02592557  0.65299521  0.32691344  1  -1.129508  0.074444  -0.306007  -0.538384  0.040737  2.329186  0.068
O  O321  1  0.47407455  0.15299453  0.17308628  1  -1.1295  0.07445  -0.306035  -0.538433  0.04074  2.329089  0.068
O  O322  1  0.97407479  0.34700540  0.67308606  1  -1.129513  0.074449  -0.306004  -0.538391  0.040739  2.329167  0.068
O  O323  1  0.52592580  0.84700553  0.82691369  1  -1.129502  0.074449  -0.30603  -0.538417  0.04074  2.329138  0.068
O  O324  1  0.11153019  0.54530865  0.25899426  1  -1.132814  0.06675  -0.300123  -0.532889  0.036659  2.372585  0.062
O  O325  1  0.38846919  0.04530906  0.24100585  1  -1.13283  0.066749  -0.300127  -0.532897  0.036658  2.37268  0.062
O  O326  1  0.88846939  0.45469086  0.74100561  1  -1.132821  0.066749  -0.300143  -0.532926  0.036659  2.372689  0.062
O  O327  1  0.61153038  0.95469100  0.75899449  1  -1.132807  0.06675  -0.300122  -0.532888  0.03666  2.372598  0.062
O  O328  1  0.18938345  0.56248776  0.17440082  1  -1.144751  0.063426  -0.302404  -0.551627  0.034785  2.434973  0.059
O  O329  1  0.31061670  0.06248761  0.32559938  1  -1.144757  0.063427  -0.302409  -0.551629  0.034785  2.434955  0.059
O  O330  1  0.81061690  0.43751230  0.82559915  1  -1.144793  0.063426  -0.302388  -0.551599  0.034785  2.434959  0.059
O  O331  1  0.68938288  0.93751190  0.67440049  1  -1.144866  0.063425  -0.302414  -0.551607  0.034785  2.434946  0.059
O  O332  1  0.80247563  0.61616730  0.09510358  1  -1.147992  0.077458  -0.298832  -0.542606  0.042933  2.419647  0.07
O  O333  1  0.69752571  0.11616715  0.40489628  1  -1.147631  0.07746  -0.298822  -0.542591  0.042933  2.41957  0.07
O  O334  1  0.19752550  0.38383276  0.90489648  1  -1.147632  0.077461  -0.298819  -0.542581  0.042934  2.419574  0.07
O  O335  1  0.30247543  0.88383236  0.59510379  1  -1.147991  0.077459  -0.298819  -0.542594  0.042934  2.419591  0.07
O  O336  1  0.96924784  0.58360158  0.13886142  1  -1.16591  0.063362  -0.30078  -0.571557  0.035417  2.494797  0.051
O  O337  1  0.53075273  0.08360147  0.36113882  1  -1.165887  0.063359  -0.300815  -0.571599  0.035416  2.494765  0.051
O  O338  1  0.03075329  0.41639848  0.86113864  1  -1.165843  0.063358  -0.300788  -0.571525  0.035415  2.494781  0.051
O  O339  1  0.46924840  0.91639805  0.63886171  1  -1.165903  0.06336  -0.300807  -0.571609  0.035416  2.494762  0.051
O  O340  1  0.92451548  0.77692338  0.11577929  1  -1.169241  0.077655  -0.320283  -0.590572  0.043104  2.532792  0.065
O  O341  1  0.57548424  0.27692325  0.38422081  1  -1.169224  0.077657  -0.320276  -0.590576  0.043105  2.532822  0.065
O  O342  1  0.07548410  0.22307668  0.88422058  1  -1.169241  0.077655  -0.320272  -0.59057  0.043105  2.532795  0.065
O  O343  1  0.42451611  0.72307735  0.61577916  1  -1.169232  0.077656  -0.320247  -0.590523  0.043105  2.53283  0.065
O  O344  1  0.04051912  0.72512695  0.06335229  1  -1.135263  0.087219  -0.296454  -0.532535  0.047893  2.402274  0.079
O  O345  1  0.45947942  0.22512785  0.43664769  1  -1.13531  0.087218  -0.296449  -0.532502  0.047892  2.402371  0.079
O  O346  1  0.95947967  0.27487202  0.93664795  1  -1.135305  0.087219  -0.296447  -0.532498  0.047893  2.402331  0.079
O  O347  1  0.54052094  0.77487221  0.56335228  1  -1.135328  0.087218  -0.296454  -0.532496  0.047893  2.40237  0.079
