# generated using pymatgen
data_CdBH48C45Br2N3
_symmetry_space_group_name_H-M   'P 1'
_cell_length_a   18.21850060
_cell_length_b   18.21845484
_cell_length_c   19.00997309
_cell_angle_alpha   61.37288862
_cell_angle_beta   61.37255251
_cell_angle_gamma   59.98969977
_symmetry_Int_Tables_number   1
_chemical_formula_structural   CdBH48C45Br2N3
_chemical_formula_sum   'Cd4 B4 H192 C180 Br8 N12'
_cell_volume   4551.57400414
_cell_formula_units_Z   4
loop_
 _symmetry_equiv_pos_site_id
 _symmetry_equiv_pos_as_xyz
  1  'x, y, z'
loop_
 _atom_site_type_symbol
 _atom_site_label
 _atom_site_symmetry_multiplicity
 _atom_site_fract_x
 _atom_site_fract_y
 _atom_site_fract_z
 _atom_site_occupancy
 _atom_site_pbe_bader_charge
 _atom_site_pbe_bader_spin_density
 _atom_site_pbe_cm5_charge
 _atom_site_pbe_ddec_charge
 _atom_site_pbe_ddec_spin_density
 _atom_site_pbe_ddec_sum_bond_order
 _atom_site_pbe_magmom
Cd  Cd0  1  0.10168405  0.89832094  0.50000191  1  1.080652  0  0.637039  0.669304  0  2.504415  0
Cd  Cd1  1  0.50025101  0.10160437  0.50014556  1  1.070482  0  0.637  0.668727  0  2.507902  0
Cd  Cd2  1  0.89838621  0.49975038  0.49986234  1  1.070694  0  0.637042  0.668822  0  2.507493  0
Cd  Cd3  1  0.00002081  0.99997791  0.00000063  1  1.044595  0  0.640141  0.669125  0  2.510161  0
B  B4  1  0.40012921  0.59987027  0.00000012  1  1.898126  0  -0.101456  0.413671  0  3.058607  0
B  B5  1  0.00008944  0.40012896  0.00002926  1  1.9073  0  -0.100741  0.413413  0  3.058491  0
B  B6  1  0.59986525  0.99991402  0.99997321  1  1.907222  0  -0.100735  0.413323  0  3.058605  0
B  B7  1  0.49992906  0.50007000  0.50000131  1  1.889788  0  -0.093468  0.420413  0  3.037236  0
H  H8  1  0.05619437  0.93592492  0.67250986  1  0.109006  0  0.119115  0.090153  0  0.982557  0
H  H9  1  0.33532388  0.05611342  0.67238484  1  0.071121  0  0.11908  0.090056  0  0.983304  0
H  H10  1  0.93551078  0.33565198  0.67273075  1  0.101046  0  0.118726  0.089701  0  0.98307  0
H  H11  1  0.94389522  0.66466335  0.32760481  1  0.071267  0  0.119083  0.09001  0  0.983296  0
H  H12  1  0.66434836  0.06448721  0.32726520  1  0.10086  0  0.118726  0.089685  0  0.983076  0
H  H13  1  0.06408811  0.94381751  0.32748579  1  0.109134  0  0.119011  0.090043  0  0.982714  0
H  H14  1  0.12227753  0.87152508  0.78703580  1  0.111686  0  0.103909  0.113736  0  1.025525  0
H  H15  1  0.21906297  0.12218744  0.78693922  1  0.117855  0  0.103852  0.113909  0  1.026155  0
H  H16  1  0.87120398  0.21946141  0.78726446  1  0.088017  0  0.103992  0.113915  0  1.025211  0
H  H17  1  0.87781719  0.78093464  0.21305807  1  0.117977  0  0.103854  0.113919  0  1.026056  0
H  H18  1  0.78054178  0.12879563  0.21273718  1  0.087807  0  0.103971  0.113919  0  1.02518  0
H  H19  1  0.12847595  0.87772260  0.21296666  1  0.111796  0  0.103846  0.113609  0  1.025704  0
H  H20  1  0.35274438  0.70095577  0.64502279  1  0.108142  0  0.107661  0.119472  0  1.029134  0
H  H21  1  0.30147300  0.35246714  0.64518736  1  0.101179  0  0.107601  0.119036  0  1.028508  0
H  H22  1  0.70085803  0.30120042  0.64513861  1  0.091688  0  0.107745  0.119265  0  1.028949  0
H  H23  1  0.64753268  0.69853402  0.35480931  1  0.101524  0  0.107633  0.1191  0  1.028406  0
H  H24  1  0.69879401  0.29914016  0.35486530  1  0.090935  0  0.107735  0.119202  0  1.02917  0
H  H25  1  0.29904150  0.64725519  0.35498516  1  0.108124  0  0.10769  0.119485  0  1.028981  0
H  H26  1  0.28189633  0.77996911  0.53176145  1  0.067029  0  0.111631  0.080654  0  1.003113  0
H  H27  1  0.40647702  0.28166610  0.53185512  1  0.080407  0  0.111413  0.080348  0  1.003639  0
H  H28  1  0.77999559  0.40610295  0.53178664  1  0.072516  0  0.111653  0.080673  0  1.00393  0
H  H29  1  0.71833002  0.59352652  0.46813904  1  0.080482  0  0.111367  0.080239  0  1.003667  0
H  H30  1  0.59388740  0.22000736  0.46821546  1  0.07271  0  0.111602  0.080517  0  1.003983  0
H  H31  1  0.22003552  0.71811667  0.46823849  1  0.067057  0  0.111687  0.08076  0  1.003148  0
H  H32  1  0.22480642  0.63287138  0.78094441  1  0.046043  0  0.090935  0.130197  0  1.021783  0
H  H33  1  0.36142307  0.22434344  0.78109837  1  0.053503  0  0.091106  0.130885  0  1.021077  0
H  H34  1  0.63273712  0.36136796  0.78114460  1  0.063985  0  0.091594  0.131633  0  1.021883  0
H  H35  1  0.77565860  0.63857873  0.21889963  1  0.053399  0  0.091144  0.130972  0  1.021151  0
H  H36  1  0.63863113  0.36726043  0.21885734  1  0.063923  0  0.09158  0.131587  0  1.021886  0
H  H37  1  0.36712317  0.77518895  0.21906424  1  0.045925  0  0.090901  0.1302  0  1.021737  0
H  H38  1  0.21797334  0.55919989  0.88531256  1  0.036601  0  0.091997  0.125229  0  1.009598  0
H  H39  1  0.33749503  0.21761114  0.88544171  1  0.035327  0  0.092135  0.125777  0  1.010026  0
H  H40  1  0.55899710  0.33761218  0.88545964  1  0.071482  0  0.092217  0.126101  0  1.00947  0
H  H41  1  0.78239480  0.66249773  0.11455816  1  0.035407  0  0.092144  0.125803  0  1.009966  0
H  H42  1  0.66239265  0.44100029  0.11454147  1  0.071208  0  0.092239  0.126138  0  1.009487  0
H  H43  1  0.44079810  0.78202468  0.11469836  1  0.036681  0  0.092052  0.125288  0  1.009539  0
H  H44  1  0.31779753  0.53571833  0.80200429  1  0.045004  0  0.087187  0.116999  0  1.016882  0
H  H45  1  0.34467161  0.31735189  0.80207043  1  0.03432  0  0.08768  0.117737  0  1.016121  0
H  H46  1  0.53557792  0.34451291  0.80214184  1  0.027367  0  0.087829  0.118296  0  1.015884  0
H  H47  1  0.68265071  0.65533094  0.19792942  1  0.034385  0  0.087705  0.117776  0  1.016222  0
H  H48  1  0.65549011  0.46442407  0.19785598  1  0.027177  0  0.087812  0.118268  0  1.015842  0
H  H49  1  0.46427776  0.68219681  0.19800251  1  0.045003  0  0.087168  0.116957  0  1.016935  0
H  H50  1  0.38300838  0.47221575  0.99687628  1  0.04489  0  0.093471  0.126289  0  1.060026  0
H  H51  1  0.14797550  0.38284538  0.99689248  1  0.069275  0  0.093339  0.125615  0  1.061205  0
H  H52  1  0.47206330  0.14788181  0.99696102  1  0.061409  0  0.093253  0.125666  0  1.060457  0
H  H53  1  0.61715164  0.85202005  0.00311023  1  0.069469  0  0.093352  0.125636  0  1.061171  0
H  H54  1  0.85211893  0.52793417  0.00303846  1  0.061435  0  0.093243  0.125668  0  1.060424  0
H  H55  1  0.52778802  0.61699576  0.00312161  1  0.041129  0  0.093483  0.126314  0  1.060013  0
H  H56  1  0.38261261  0.46167300  0.90935326  1  0.033268  0  0.090078  0.12538  0  1.002351  0
H  H57  1  0.24644193  0.38248795  0.90936515  1  0.020852  0  0.089485  0.124456  0  1.00187  0
H  H58  1  0.46154357  0.24635013  0.90941210  1  0.03488  0  0.089937  0.125279  0  1.002256  0
H  H59  1  0.61751122  0.75355626  0.09064138  1  0.021019  0  0.089513  0.124482  0  1.00192  0
H  H60  1  0.75365112  0.53845352  0.09058819  1  0.034665  0  0.089939  0.125277  0  1.002301  0
H  H61  1  0.53832798  0.61739003  0.09064866  1  0.03322  0  0.090077  0.125356  0  1.002336  0
H  H62  1  0.28101473  0.49232910  0.98854677  1  0.024472  0  0.092223  0.126617  0  0.993037  0
H  H63  1  0.23820665  0.28086362  0.98851918  1  0.027991  0  0.092163  0.126387  0  0.992921  0
H  H64  1  0.49214870  0.23809910  0.98867491  1  0.021011  0  0.092327  0.126855  0  0.992473  0
H  H65  1  0.71913389  0.76178611  0.01147980  1  0.028012  0  0.092165  0.126391  0  0.992844  0
H  H66  1  0.76190220  0.50784644  0.01132560  1  0.021022  0  0.092327  0.126854  0  0.992429  0
H  H67  1  0.50766890  0.71898811  0.01145682  1  0.024443  0  0.092228  0.126638  0  0.993021  0
H  H68  1  0.39641228  0.75755872  0.94893579  1  0.045352  0  0.090924  0.12264  0  1.068671  0
H  H69  1  0.89703330  0.39643236  0.94889116  1  0.048819  0  0.090857  0.122432  0  1.068712  0
H  H70  1  0.75757108  0.89701553  0.94885915  1  0.05385  0  0.090711  0.122092  0  1.068815  0
H  H71  1  0.60355985  0.10296795  0.05111207  1  0.04917  0  0.090827  0.122413  0  1.068671  0
H  H72  1  0.10298644  0.24242485  0.05114399  1  0.053882  0  0.090677  0.12201  0  1.068875  0
H  H73  1  0.24243801  0.60358602  0.05106829  1  0.045518  0  0.090936  0.122667  0  1.068707  0
H  H74  1  0.32628566  0.85700620  0.89497821  1  0.035156  0  0.087643  0.122854  0  1.022658  0
H  H75  1  0.92171422  0.32634536  0.89485340  1  0.037435  0  0.087614  0.12263  0  1.023306  0
H  H76  1  0.85703413  0.92166225  0.89488132  1  0.039817  0  0.08739  0.122271  0  1.023377  0
H  H77  1  0.67364900  0.07829239  0.10514610  1  0.037517  0  0.087622  0.122615  0  1.023292  0
H  H78  1  0.07833958  0.14296412  0.10511955  1  0.039833  0  0.087401  0.122246  0  1.023382  0
H  H79  1  0.14299305  0.67371244  0.10502479  1  0.035197  0  0.087649  0.122859  0  1.022595  0
H  H80  1  0.43672423  0.80514672  0.83791915  1  0.04301  0  0.095876  0.131045  0  0.992396  0
H  H81  1  0.92024350  0.43676720  0.83785175  1  0.044486  0  0.095869  0.130835  0  0.992523  0
H  H82  1  0.80507658  0.92030038  0.83779812  1  0.044733  0  0.095848  0.130469  0  0.993146  0
H  H83  1  0.56322792  0.07975075  0.16215235  1  0.044557  0  0.095873  0.130802  0  0.99252  0
H  H84  1  0.07970173  0.19491977  0.16220469  1  0.044828  0  0.095885  0.130459  0  0.993027  0
H  H85  1  0.19485207  0.56327407  0.16208454  1  0.042985  0  0.095859  0.131009  0  0.992369  0
H  H86  1  0.29170356  0.89473960  0.69930013  1  0.039064  0  0.086633  0.123372  0  1.026291  0
H  H87  1  0.11427619  0.29215942  0.69900282  1  0.043736  0  0.086666  0.123257  0  1.02662  0
H  H88  1  0.89467826  0.11438186  0.69950172  1  0.052468  0  0.086705  0.123386  0  1.026805  0
H  H89  1  0.70783371  0.88572835  0.30099528  1  0.043675  0  0.08669  0.123245  0  1.026596  0
H  H90  1  0.88561702  0.10531819  0.30050032  1  0.052532  0  0.086731  0.123447  0  1.026736  0
H  H91  1  0.10525528  0.70829665  0.30070413  1  0.039182  0  0.086619  0.123335  0  1.026277  0
H  H92  1  0.36710758  0.88531732  0.73951514  1  0.037927  0  0.09063  0.126138  0  1.005708  0
H  H93  1  0.00810523  0.36751538  0.73926178  1  0.036762  0  0.090651  0.125867  0  1.005494  0
H  H94  1  0.88547010  0.00812309  0.73960132  1  0.038781  0  0.090611  0.125852  0  1.005409  0
H  H95  1  0.63247894  0.99189891  0.26073283  1  0.036719  0  0.090676  0.125887  0  1.005391  0
H  H96  1  0.99187659  0.11452555  0.26039990  1  0.03878  0  0.090609  0.125864  0  1.005342  0
H  H97  1  0.11468145  0.63289354  0.26048404  1  0.037999  0  0.090634  0.126143  0  1.005712  0
H  H98  1  0.25023473  0.92383362  0.79102233  1  0.064049  0  0.081677  0.124457  0  1.030114  0
H  H99  1  0.03486457  0.25063150  0.79053658  1  0.072561  0  0.081586  0.124178  0  1.030185  0
H  H100  1  0.92376445  0.03505700  0.79121289  1  0.066695  0  0.081874  0.124368  0  1.029061  0
H  H101  1  0.74936389  0.96514056  0.20946191  1  0.072667  0  0.081632  0.124217  0  1.030149  0
H  H102  1  0.96494087  0.07623184  0.20878883  1  0.067074  0  0.081869  0.124384  0  1.029035  0
H  H103  1  0.07616482  0.74976411  0.20897956  1  0.063957  0  0.08167  0.124442  0  1.030182  0
H  H104  1  0.90581664  0.16758930  0.06296714  1  0.102713  0  0.114671  0.084206  0  1.005128  0
H  H105  1  0.86363425  0.90593845  0.06289208  1  0.104364  0  0.114528  0.083655  0  1.005121  0
H  H106  1  0.16741812  0.86367533  0.06331241  1  0.119188  0  0.114584  0.083602  0  1.005286  0
H  H107  1  0.09405880  0.13636779  0.93710486  1  0.104435  0  0.114572  0.083741  0  1.00508  0
H  H108  1  0.13633027  0.83257311  0.93669292  1  0.119234  0  0.114579  0.083592  0  1.005341  0
H  H109  1  0.83240972  0.09417625  0.93703817  1  0.102429  0  0.114713  0.084273  0  1.005139  0
H  H110  1  0.77298727  0.30759708  0.06206709  1  0.100997  0  0.108576  0.118258  0  1.032988  0
H  H111  1  0.85733746  0.77311010  0.06209117  1  0.097639  0  0.108306  0.117631  0  1.034467  0
H  H112  1  0.30755729  0.85738386  0.06210280  1  0.09332  0  0.108163  0.117217  0  1.034599  0
H  H113  1  0.22688682  0.14266351  0.93790972  1  0.097623  0  0.108336  0.117669  0  1.034554  0
H  H114  1  0.14261944  0.69242900  0.93791382  1  0.093293  0  0.108194  0.117234  0  1.034568  0
H  H115  1  0.69240836  0.22700881  0.93792992  1  0.100943  0  0.108514  0.118214  0  1.032906  0
H  H116  1  0.41080723  0.37398746  0.20003159  1  0.043066  0  0.088368  0.135469  0  1.031332  0
H  H117  1  0.01529709  0.41087083  0.20019193  1  0.049165  0  0.088176  0.135634  0  1.031378  0
H  H118  1  0.37401495  0.01517493  0.19989400  1  0.045941  0  0.08834  0.135866  0  1.030539  0
H  H119  1  0.58912345  0.98470291  0.79981680  1  0.048888  0  0.088219  0.135731  0  1.031345  0
H  H120  1  0.98482468  0.62597813  0.80011527  1  0.046161  0  0.088334  0.135863  0  1.030669  0
H  H121  1  0.62601033  0.58919163  0.79996580  1  0.043096  0  0.088359  0.135461  0  1.031354  0
H  H122  1  0.34607841  0.45780082  0.13353549  1  0.00872  0  0.091048  0.125675  0  1.015002  0
H  H123  1  0.06282737  0.34603625  0.13375601  1  0.016467  0  0.090914  0.125026  0  1.015466  0
H  H124  1  0.45792545  0.06243354  0.13340634  1  0.017611  0  0.091097  0.125621  0  1.01543  0
H  H125  1  0.65395432  0.93717452  0.86625690  1  0.016466  0  0.090983  0.125141  0  1.015487  0
H  H126  1  0.93756583  0.54206759  0.86660610  1  0.018286  0  0.091136  0.125607  0  1.015476  0
H  H127  1  0.54220103  0.65392103  0.86646233  1  0.008813  0  0.091065  0.125668  0  1.015018  0
H  H128  1  0.38889492  0.48743032  0.17784771  1  0.05239  0  0.092512  0.135728  0  1.021657  0
H  H129  1  0.94606736  0.38888398  0.17792938  1  0.04807  0  0.091995  0.135042  0  1.022132  0
H  H130  1  0.48745854  0.94568522  0.17773621  1  0.047187  0  0.092355  0.13573  0  1.02224  0
H  H131  1  0.61111195  0.05393641  0.82207976  1  0.04749  0  0.091963  0.134989  0  1.022187  0
H  H132  1  0.05431497  0.51252985  0.82227164  1  0.047384  0  0.092394  0.135719  0  1.022232  0
H  H133  1  0.51257249  0.61110389  0.82215202  1  0.052414  0  0.092502  0.135722  0  1.02178  0
H  H134  1  0.51301162  0.27821021  0.20375507  1  0.069822  0  0.081194  0.131874  0  1.057093  0
H  H135  1  0.00508365  0.51316050  0.20382306  1  0.071098  0  0.081083  0.131945  0  1.056674  0
H  H136  1  0.27827708  0.00495983  0.20369763  1  0.06151  0  0.080878  0.13127  0  1.057772  0
H  H137  1  0.48683687  0.99492072  0.79618260  1  0.071039  0  0.081068  0.131913  0  1.056745  0
H  H138  1  0.99504001  0.72172239  0.79630676  1  0.061517  0  0.080925  0.131327  0  1.057652  0
H  H139  1  0.72178510  0.48698690  0.79624248  1  0.069763  0  0.081157  0.131859  0  1.057179  0
H  H140  1  0.62896333  0.25393369  0.16662866  1  0.03645  0  0.081652  0.113803  0  1.044482  0
H  H141  1  0.95060689  0.62914259  0.16650167  1  0.041261  0  0.081703  0.114079  0  1.044482  0
H  H142  1  0.25404110  0.95038273  0.16654420  1  0.016287  0  0.081843  0.114326  0  1.045232  0
H  H143  1  0.37085937  0.04939651  0.83349875  1  0.041244  0  0.081713  0.114072  0  1.044493  0
H  H144  1  0.04961247  0.74596096  0.83346514  1  0.016362  0  0.081824  0.114324  0  1.04516  0
H  H145  1  0.74606600  0.37103364  0.83337190  1  0.036315  0  0.081637  0.113782  0  1.044481  0
H  H146  1  0.58366566  0.21868745  0.13011437  1  0.019437  0  0.087066  0.124959  0  1.02221  0
H  H147  1  0.06769971  0.58369056  0.13015441  1  0.020161  0  0.087093  0.125084  0  1.021447  0
H  H148  1  0.21869814  0.06744937  0.13011919  1  0.030794  0  0.086966  0.124956  0  1.022067  0
H  H149  1  0.41631124  0.93230174  0.86984743  1  0.020159  0  0.08711  0.125125  0  1.021404  0
H  H150  1  0.93254624  0.78129382  0.86989463  1  0.03057  0  0.086989  0.12497  0  1.021979  0
H  H151  1  0.78131498  0.41633787  0.86987882  1  0.019519  0  0.087047  0.124901  0  1.02229  0
H  H152  1  0.89985545  0.95504407  0.52384484  1  0.118301  0  0.113625  0.090077  0  1.0008  0
H  H153  1  0.62137289  0.89989290  0.52384604  1  0.106302  0  0.1135  0.089904  0  1.000278  0
H  H154  1  0.95500409  0.62125349  0.52376663  1  0.128689  0  0.113974  0.090459  0  0.999384  0
H  H155  1  0.10010904  0.37861927  0.47615663  1  0.106092  0  0.113535  0.089968  0  1.000231  0
H  H156  1  0.37874280  0.04500056  0.47623631  1  0.128628  0  0.113932  0.090437  0  0.999468  0
H  H157  1  0.04495674  0.10017478  0.47615550  1  0.118613  0  0.11361  0.090089  0  1.000482  0
H  H158  1  0.76056200  0.08994818  0.52036812  1  0.120408  0  0.107943  0.124461  0  1.009682  0
H  H159  1  0.62936155  0.76067241  0.52026244  1  0.102691  0  0.108044  0.124787  0  1.009053  0
H  H160  1  0.08991668  0.62908628  0.52019302  1  0.110352  0  0.107921  0.124361  0  1.008934  0
H  H161  1  0.23932854  0.37062651  0.47974159  1  0.102841  0  0.108037  0.12477  0  1.009085  0
H  H162  1  0.37090767  0.91008838  0.47980609  1  0.110228  0  0.107963  0.12442  0  1.008821  0
H  H163  1  0.91004938  0.23946409  0.47963024  1  0.120605  0  0.107969  0.124508  0  1.009572  0
H  H164  1  0.74093024  0.50728660  0.34840648  1  0.05751  0  0.093116  0.134128  0  1.006933  0
H  H165  1  0.40333649  0.74098870  0.34844046  1  0.039922  0  0.093181  0.134215  0  1.00653  0
H  H166  1  0.50725380  0.40326158  0.34841924  1  0.046492  0  0.093066  0.134035  0  1.007111  0
H  H167  1  0.25900952  0.59665797  0.65156620  1  0.040011  0  0.093195  0.13421  0  1.006561  0
H  H168  1  0.59672808  0.49275383  0.65158343  1  0.04654  0  0.093006  0.133953  0  1.007171  0
H  H169  1  0.49271746  0.25906631  0.65159165  1  0.057489  0  0.093188  0.134232  0  1.006814  0
H  H170  1  0.62320576  0.55982723  0.37942268  1  0.014995  0  0.089669  0.122499  0  1.069388  0
H  H171  1  0.43767579  0.62326153  0.37940352  1  0.041654  0  0.089491  0.122342  0  1.069252  0
H  H172  1  0.55973630  0.43749896  0.37940190  1  0.047124  0  0.089669  0.122495  0  1.069235  0
H  H173  1  0.37674017  0.56231637  0.62060476  1  0.041286  0  0.089498  0.122337  0  1.069206  0
H  H174  1  0.56249963  0.44026452  0.62059923  1  0.047133  0  0.0897  0.122535  0  1.069162  0
H  H175  1  0.44017601  0.37679280  0.62057437  1  0.014778  0  0.089677  0.122523  0  1.069379  0
H  H176  1  0.67779877  0.50052847  0.30597688  1  0.006494  0  0.087166  0.116324  0  1.013321  0
H  H177  1  0.51568347  0.67800535  0.30592859  1  0.026268  0  0.087436  0.11686  0  1.012569  0
H  H178  1  0.50044348  0.51560541  0.30593928  1  0.025996  0  0.087477  0.117108  0  1.012785  0
H  H179  1  0.32199388  0.48430575  0.69407474  1  0.030786  0  0.087423  0.11686  0  1.012543  0
H  H180  1  0.48438529  0.49955304  0.69406943  1  0.025888  0  0.087471  0.117056  0  1.012756  0
H  H181  1  0.49946371  0.32220421  0.69402760  1  0.006579  0  0.08718  0.116351  0  1.013312  0
H  H182  1  0.87045511  0.27417648  0.34876329  1  0.042999  0  0.089353  0.130424  0  1.010926  0
H  H183  1  0.50598439  0.87082980  0.34891353  1  0.030108  0  0.089153  0.130009  0  1.011907  0
H  H184  1  0.27431814  0.50604898  0.34884861  1  0.014279  0  0.088972  0.129967  0  1.011072  0
H  H185  1  0.12916983  0.49401628  0.65108288  1  0.029968  0  0.089138  0.129971  0  1.011965  0
H  H186  1  0.49393290  0.72568719  0.65116076  1  0.014277  0  0.088977  0.130033  0  1.010962  0
H  H187  1  0.72582745  0.12954820  0.65124070  1  0.04278  0  0.089284  0.13031  0  1.011028  0
H  H188  1  0.86821333  0.36791253  0.35767339  1  0.095026  0  0.081203  0.134654  0  1.04299  0
H  H189  1  0.40566526  0.86825481  0.35804259  1  0.115662  0  0.081194  0.134422  0  1.042503  0
H  H190  1  0.36808430  0.40562933  0.35798673  1  0.081612  0  0.081068  0.134697  0  1.043356  0
H  H191  1  0.13174185  0.59433510  0.64195930  1  0.115634  0  0.081187  0.134418  0  1.042498  0
H  H192  1  0.59434901  0.63192231  0.64202098  1  0.081872  0  0.081122  0.134772  0  1.043294  0
H  H193  1  0.63209340  0.13178987  0.64232739  1  0.095204  0  0.081225  0.134691  0  1.042871  0
H  H194  1  0.80825304  0.38337780  0.29788065  1  0.041723  0  0.087945  0.121817  0  1.02259  0
H  H195  1  0.50998863  0.80859023  0.29800232  1  0.05527  0  0.087857  0.121709  0  1.022577  0
H  H196  1  0.38353413  0.50990173  0.29801569  1  0.03448  0  0.087625  0.121467  0  1.022233  0
H  H197  1  0.19140254  0.49000930  0.70200092  1  0.055226  0  0.087836  0.121686  0  1.022555  0
H  H198  1  0.49007649  0.61647349  0.70199503  1  0.034005  0  0.087661  0.121498  0  1.022252  0
H  H199  1  0.61662327  0.19175175  0.70212345  1  0.041578  0  0.087925  0.121759  0  1.0226  0
C  C200  1  0.12248239  0.88436412  0.66841138  1  0.506695  0  0.05191  0.10368  0  3.94728  0
C  C201  1  0.32472907  0.12234423  0.66839246  1  0.504644  0  0.052174  0.104148  0  3.948783  0
C  C202  1  0.88408814  0.32488535  0.66857802  1  0.455504  0  0.05259  0.104572  0  3.950645  0
C  C203  1  0.87765954  0.67526323  0.33160259  1  0.503754  0  0.052184  0.104223  0  3.94878  0
C  C204  1  0.67511014  0.11591235  0.33141914  1  0.455866  0  0.052621  0.104673  0  3.950514  0
C  C205  1  0.11564662  0.87753093  0.33158063  1  0.502714  0  0.051981  0.103616  0  3.947707  0
C  C206  1  0.15889043  0.84697195  0.73288614  1  -0.074941  0  -0.077823  -0.168442  0  3.927242  0
C  C207  1  0.26121497  0.15875172  0.73287095  1  -0.011055  0  -0.078399  -0.169099  0  3.927804  0
C  C208  1  0.84667401  0.26145285  0.73309979  1  -0.004213  0  -0.078049  -0.168531  0  3.928112  0
C  C209  1  0.84125537  0.73878027  0.26712259  1  -0.010767  0  -0.078392  -0.169104  0  3.927753  0
C  C210  1  0.73854169  0.15333080  0.26689785  1  -0.004156  0  -0.078122  -0.168779  0  3.928002  0
C  C211  1  0.15303259  0.84111084  0.26711610  1  -0.07431  0  -0.077757  -0.168166  0  3.927387  0
C  C212  1  0.24233265  0.77794068  0.72680084  1  -0.012833  0  0.01675  0.131433  0  3.989566  0
C  C213  1  0.25293547  0.24216932  0.72680423  1  -0.04496  0  0.016706  0.130857  0  3.988169  0
C  C214  1  0.77775551  0.25299028  0.72695132  1  -0.054124  0  0.016127  0.12956  0  3.989598  0
C  C215  1  0.75783597  0.74706581  0.27318923  1  -0.044787  0  0.016652  0.130852  0  3.988038  0
C  C216  1  0.74700368  0.22224907  0.27305055  1  -0.054328  0  0.016217  0.129796  0  3.989325  0
C  C217  1  0.22205890  0.75766426  0.27320467  1  -0.013116  0  0.016615  0.131185  0  3.989681  0
C  C218  1  0.28702627  0.75291322  0.65355791  1  -0.019671  0  -0.081476  -0.171957  0  3.931403  0
C  C219  1  0.30658427  0.28683540  0.65363420  1  -0.009818  0  -0.080953  -0.169897  0  3.928937  0
C  C220  1  0.75280207  0.30643712  0.65366001  1  0.004741  0  -0.081023  -0.170373  0  3.929305  0
C  C221  1  0.71316630  0.69341769  0.34636109  1  -0.010314  0  -0.08088  -0.169862  0  3.928646  0
C  C222  1  0.69355434  0.24719840  0.34634566  1  0.005847  0  -0.081026  -0.170487  0  3.929644  0
C  C223  1  0.24708802  0.71297666  0.34644651  1  -0.019348  0  -0.081442  -0.171824  0  3.931304  0
C  C224  1  0.24747334  0.79593809  0.59079670  1  0.499281  0  0.043613  0.092658  0  3.973517  0
C  C225  1  0.36584852  0.24728557  0.59086312  1  0.44969  0  0.043551  0.092308  0  3.973221  0
C  C226  1  0.79592442  0.36561510  0.59084531  1  0.490362  0  0.043459  0.092247  0  3.975314  0
C  C227  1  0.75271805  0.63414922  0.40912923  1  0.449721  0  0.043511  0.092331  0  3.97323  0
C  C228  1  0.63437850  0.20407446  0.40915436  1  0.489744  0  0.043489  0.092532  0  3.975571  0
C  C229  1  0.20406874  0.75253532  0.40920385  1  0.499111  0  0.043654  0.092679  0  3.973512  0
C  C230  1  0.28332127  0.73244072  0.79471638  1  -0.055044  0  -0.015264  -0.062929  0  3.987718  0
C  C231  1  0.18953236  0.28323376  0.79468070  1  -0.054515  0  -0.015486  -0.063195  0  3.984552  0
C  C232  1  0.73229144  0.18955701  0.79488646  1  -0.038411  0  -0.015256  -0.061906  0  3.985087  0
C  C233  1  0.71677147  0.81047138  0.20531197  1  -0.054267  0  -0.015447  -0.063171  0  3.984617  0
C  C234  1  0.81044340  0.26770592  0.20511572  1  -0.038459  0  -0.01523  -0.061812  0  3.985079  0
C  C235  1  0.26755757  0.71667290  0.20528756  1  -0.054597  0  -0.015278  -0.062984  0  3.987641  0
C  C236  1  0.31091370  0.78070032  0.81116874  1  -0.022902  0  -0.014025  0.060547  0  3.934789  0
C  C237  1  0.09720131  0.31098559  0.81111020  1  0.008851  0  -0.014054  0.059697  0  3.933647  0
C  C238  1  0.78060291  0.09724639  0.81129279  1  -0.011103  0  -0.01422  0.059365  0  3.936797  0
C  C239  1  0.68902007  0.90280168  0.18888351  1  0.009378  0  -0.01402  0.059696  0  3.9337  0
C  C240  1  0.90275179  0.21939417  0.18870905  1  -0.011425  0  -0.01427  0.059276  0  3.936907  0
C  C241  1  0.21930023  0.68908220  0.18883134  1  -0.023255  0  -0.014  0.060616  0  3.934949  0
C  C242  1  0.34695601  0.73822599  0.87776979  1  0.009928  0  -0.004692  0.10976  0  3.938446  0
C  C243  1  0.03704974  0.34694349  0.87777309  1  -0.017733  0  -0.004744  0.109716  0  3.938362  0
C  C244  1  0.73817596  0.03704167  0.87780939  1  -0.005312  0  -0.0045  0.109955  0  3.937796  0
C  C245  1  0.65305492  0.96295484  0.12222562  1  -0.017885  0  -0.004799  0.109678  0  3.93855  0
C  C246  1  0.96295877  0.26181884  0.12219188  1  -0.005514  0  -0.00446  0.109956  0  3.93769  0
C  C247  1  0.26177286  0.65304650  0.12223043  1  0.009779  0  -0.004624  0.109874  0  3.938557  0
C  C248  1  0.35932974  0.64704752  0.92537020  1  -0.636706  0  -0.008867  -0.255402  0  3.925782  0
C  C249  1  0.06828680  0.35931054  0.92535713  1  -0.640492  0  -0.008358  -0.254201  0  3.927518  0
C  C250  1  0.64697223  0.06822655  0.92540424  1  -0.612807  0  -0.008767  -0.255091  0  3.926716  0
C  C251  1  0.64069216  0.93171434  0.07464060  1  -0.640341  0  -0.008419  -0.254233  0  3.927522  0
C  C252  1  0.93177466  0.35302465  0.07459978  1  -0.612599  0  -0.008742  -0.255012  0  3.926729  0
C  C253  1  0.35295272  0.64067363  0.07462815  1  -0.636317  0  -0.008873  -0.255519  0  3.925745  0
C  C254  1  0.33516833  0.59859479  0.90471518  1  -0.031393  0  -0.007628  0.099337  0  3.946835  0
C  C255  1  0.16157783  0.33507018  0.90467642  1  0.028255  0  -0.008182  0.097585  0  3.949739  0
C  C256  1  0.59847745  0.16149565  0.90482196  1  -0.063  0  -0.007666  0.098869  0  3.947217  0
C  C257  1  0.66493319  0.83842366  0.09531838  1  0.027775  0  -0.008122  0.097604  0  3.949605  0
C  C258  1  0.83850724  0.40151886  0.09518146  1  -0.062714  0  -0.007662  0.098847  0  3.94727  0
C  C259  1  0.40140168  0.66483637  0.09528632  1  -0.031751  0  -0.007641  0.09945  0  3.94687  0
C  C260  1  0.29505092  0.64162893  0.84090508  1  -0.015028  0  -0.020312  0.040103  0  3.963923  0
C  C261  1  0.22247122  0.29490158  0.84088687  1  -0.0628  0  -0.020034  0.041579  0  3.959253  0
C  C262  1  0.64145212  0.22244564  0.84107654  1  -0.022774  0  -0.02029  0.040925  0  3.96043  0
C  C263  1  0.70510575  0.77752803  0.15910946  1  -0.062579  0  -0.020036  0.041602  0  3.959074  0
C  C264  1  0.77755559  0.35854640  0.15892248  1  -0.022903  0  -0.020293  0.040847  0  3.960476  0
C  C265  1  0.35837137  0.70494588  0.15909747  1  -0.014823  0  -0.020325  0.040158  0  3.963963  0
C  C266  1  0.26214384  0.59041722  0.82617380  1  -0.093441  0  -0.240797  -0.401754  0  3.977185  0
C  C267  1  0.32134896  0.26178184  0.82624978  1  -0.078014  0  -0.241777  -0.404448  0  3.975481  0
C  C268  1  0.59024404  0.32131617  0.82633811  1  -0.119791  0  -0.242393  -0.406124  0  3.977024  0
C  C269  1  0.73822258  0.67864846  0.17374885  1  -0.07829  0  -0.241842  -0.404598  0  3.975541  0
C  C270  1  0.67868664  0.40975107  0.17366431  1  -0.119501  0  -0.242405  -0.406088  0  3.977063  0
C  C271  1  0.40957923  0.73785294  0.17383311  1  -0.093442  0  -0.240787  -0.401804  0  3.977153  0
C  C272  1  0.34619118  0.50146544  0.95266913  1  -0.069975  0  -0.239393  -0.409479  0  3.973229  0
C  C273  1  0.19975039  0.34606793  0.95264076  1  -0.083365  0  -0.238592  -0.407291  0  3.974268  0
C  C274  1  0.50132236  0.19965978  0.95275595  1  -0.081909  0  -0.239292  -0.408943  0  3.973454  0
C  C275  1  0.65393173  0.80024816  0.04735909  1  -0.083724  0  -0.238637  -0.40732  0  3.974237  0
C  C276  1  0.80034024  0.49867686  0.04724471  1  -0.081898  0  -0.239306  -0.40895  0  3.973302  0
C  C277  1  0.49853182  0.65381063  0.04733300  1  -0.066138  0  -0.239404  -0.409551  0  3.973224  0
C  C278  1  0.37808704  0.79162797  0.89123312  1  -0.090011  0  -0.242374  -0.42176  0  3.987941  0
C  C279  1  0.93904733  0.37809268  0.89119093  1  -0.097599  0  -0.242364  -0.420826  0  3.987482  0
C  C280  1  0.79162243  0.93902046  0.89118775  1  -0.092271  0  -0.241624  -0.419558  0  3.986685  0
C  C281  1  0.62190418  0.06095210  0.10881029  1  -0.09817  0  -0.242315  -0.420727  0  3.987584  0
C  C282  1  0.06097944  0.20837660  0.10881494  1  -0.092166  0  -0.241641  -0.419419  0  3.986572  0
C  C283  1  0.20837456  0.62191194  0.10876921  1  -0.09009  0  -0.242401  -0.421805  0  3.988004  0
C  C284  1  0.30466434  0.87582922  0.75742319  1  -0.088461  0  -0.245614  -0.408353  0  3.977343  0
C  C285  1  0.06208930  0.30498745  0.75717689  1  -0.105024  0  -0.245668  -0.407489  0  3.976752  0
C  C286  1  0.87579982  0.06218817  0.75758782  1  -0.102348  0  -0.245616  -0.407717  0  3.977288  0
C  C287  1  0.69501011  0.93791504  0.24281947  1  -0.105315  0  -0.245784  -0.407551  0  3.976749  0
C  C288  1  0.93781023  0.12419669  0.24241537  1  -0.102603  0  -0.245657  -0.407824  0  3.977212  0
C  C289  1  0.12416850  0.69533536  0.24257938  1  -0.088624  0  -0.245621  -0.408343  0  3.977359  0
C  C290  1  0.85755650  0.18410772  0.03447992  1  0.461179  0  0.044595  0.090882  0  3.971045  0
C  C291  1  0.92383776  0.85767835  0.03439749  1  0.466841  0  0.044749  0.090864  0  3.970259  0
C  C292  1  0.18397794  0.92387649  0.03470054  1  0.474557  0  0.044804  0.091619  0  3.970042  0
C  C293  1  0.14231941  0.07616450  0.96560195  1  0.466962  0  0.044804  0.091007  0  3.970062  0
C  C294  1  0.07612723  0.81601862  0.96530177  1  0.474707  0  0.044771  0.091497  0  3.970313  0
C  C295  1  0.81589303  0.14243903  0.96552201  1  0.461621  0  0.044509  0.090739  0  3.971342  0
C  C296  1  0.78276844  0.26166792  0.03461377  1  -0.026662  0  -0.07822  -0.172011  0  3.922322  0
C  C297  1  0.92094555  0.78286041  0.03461251  1  -0.033927  0  -0.07805  -0.171004  0  3.922743  0
C  C298  1  0.26158094  0.92098020  0.03469530  1  -0.029136  0  -0.077824  -0.171009  0  3.923576  0
C  C299  1  0.21713557  0.07905799  0.96539220  1  -0.034033  0  -0.078153  -0.171198  0  3.92292  0
C  C300  1  0.07902206  0.73841234  0.96531577  1  -0.029449  0  -0.077789  -0.170991  0  3.923684  0
C  C301  1  0.73833875  0.21722850  0.96538158  1  -0.026327  0  -0.078097  -0.171886  0  3.922436  0
C  C302  1  0.72081417  0.27918580  0.99999784  1  -0.031919  0  0.026337  0.1522  0  3.962748  0
C  C303  1  0.99998864  0.72087150  0.00001276  1  -0.038264  0  0.02609  0.151661  0  3.962964  0
C  C304  1  0.27912227  0.00001582  0.99999422  1  -0.038597  0  0.026149  0.151757  0  3.963088  0
C  C305  1  0.63933956  0.36065975  0.99999892  1  -0.022677  0  -0.018905  -0.073731  0  3.98488  0
C  C306  1  0.00005613  0.63934680  0.00006518  1  -0.01033  0  -0.018782  -0.072299  0  3.982898  0
C  C307  1  0.36064563  0.99994870  0.99994135  1  -0.00985  0  -0.018874  -0.072669  0  3.983444  0
C  C308  1  0.56457960  0.35930299  0.07346568  1  -0.023278  0  -0.015658  0.058578  0  3.942861  0
C  C309  1  0.00282933  0.56459043  0.07350933  1  0.002175  0  -0.015444  0.058623  0  3.941927  0
C  C310  1  0.35931074  0.00261592  0.07339493  1  -0.026757  0  -0.015875  0.057591  0  3.943422  0
C  C311  1  0.43540393  0.99717379  0.92649687  1  0.002276  0  -0.01547  0.058673  0  3.941851  0
C  C312  1  0.99738975  0.64067904  0.92661519  1  -0.026542  0  -0.015958  0.057365  0  3.943489  0
C  C313  1  0.64069456  0.43541851  0.92653270  1  -0.023328  0  -0.015673  0.058565  0  3.942925  0
C  C314  1  0.48761126  0.43698975  0.07362263  1  0.007462  0  -0.00272  0.115422  0  3.928935  0
C  C315  1  0.00201555  0.48757955  0.07369942  1  -0.028567  0  -0.002879  0.114877  0  3.92847  0
C  C316  1  0.43702544  0.00171045  0.07350945  1  -0.037816  0  -0.002343  0.116446  0  3.928324  0
C  C317  1  0.51241393  0.99798977  0.92630594  1  -0.028761  0  -0.002771  0.114988  0  3.928627  0
C  C318  1  0.99829348  0.56296867  0.92649819  1  -0.038206  0  -0.002378  0.116471  0  3.928303  0
C  C319  1  0.56300851  0.51238732  0.92637463  1  0.00744  0  -0.00268  0.115486  0  3.928839  0
C  C320  1  0.48672682  0.51327211  0.99999903  1  -0.66234  0  -0.017255  -0.281  0  3.943697  0
C  C321  1  0.00015520  0.48667405  0.00011499  1  -0.625794  0  -0.017506  -0.281016  0  3.944118  0
C  C322  1  0.51331821  0.99984313  0.99989518  1  -0.625874  0  -0.017584  -0.280981  0  3.944182  0
C  C323  1  0.40482109  0.43846315  0.15012488  1  -0.062022  0  -0.241143  -0.409715  0  3.931168  0
C  C324  1  0.00680307  0.40483561  0.15024677  1  -0.072645  0  -0.240635  -0.408403  0  3.931286  0
C  C325  1  0.43851497  0.00648841  0.15001461  1  -0.055344  0  -0.241232  -0.410453  0  3.9316  0
C  C326  1  0.59515988  0.99319840  0.84976285  1  -0.071576  0  -0.240734  -0.408594  0  3.931556  0
C  C327  1  0.99351179  0.56147795  0.84999529  1  -0.056445  0  -0.241279  -0.410406  0  3.931742  0
C  C328  1  0.56153599  0.59517888  0.84987318  1  -0.062176  0  -0.241198  -0.409723  0  3.931216  0
C  C329  1  0.57168779  0.27425106  0.14743856  1  -0.077133  0  -0.248383  -0.405509  0  3.961131  0
C  C330  1  0.00676639  0.57178622  0.14745466  1  -0.075076  0  -0.248419  -0.40609  0  3.959906  0
C  C331  1  0.27429778  0.00654950  0.14739663  1  -0.060482  0  -0.248031  -0.405409  0  3.963396  0
C  C332  1  0.42821011  0.99323653  0.85255022  1  -0.075245  0  -0.248407  -0.406049  0  3.959989  0
C  C333  1  0.99344915  0.72569450  0.85261425  1  -0.060105  0  -0.248061  -0.405433  0  3.963089  0
C  C334  1  0.72574862  0.42831230  0.85255977  1  -0.077029  0  -0.248318  -0.405399  0  3.961205  0
C  C335  1  0.89895854  0.02027547  0.51225354  1  0.424886  0  0.04498  0.090034  0  3.954946  0
C  C336  1  0.56862927  0.89903329  0.51222905  1  0.459851  0  0.045347  0.09024  0  3.953129  0
C  C337  1  0.02022162  0.56846509  0.51217481  1  0.444861  0  0.044882  0.08961  0  3.953286  0
C  C338  1  0.10096669  0.43136142  0.48777745  1  0.459721  0  0.045309  0.090286  0  3.953205  0
C  C339  1  0.43152543  0.97978053  0.48782723  1  0.444874  0  0.044929  0.089601  0  3.953352  0
C  C340  1  0.97973212  0.10106561  0.48774469  1  0.425771  0  0.045017  0.090196  0  3.954324  0
C  C341  1  0.82168570  0.09536836  0.51138566  1  -0.023658  0  -0.076859  -0.161549  0  3.914858  0
C  C342  1  0.57172905  0.82175087  0.51134347  1  0.002485  0  -0.07702  -0.162725  0  3.914271  0
C  C343  1  0.09532115  0.57148437  0.51130646  1  -0.04542  0  -0.076948  -0.162222  0  3.914491  0
C  C344  1  0.17824926  0.42826070  0.48866105  1  0.001868  0  -0.077018  -0.162829  0  3.914348  0
C  C345  1  0.42851009  0.90467725  0.48869791  1  -0.045728  0  -0.076899  -0.162106  0  3.914366  0
C  C346  1  0.90463456  0.17833725  0.48861519  1  -0.026736  0  -0.077015  -0.161827  0  3.91454  0
C  C347  1  0.82331647  0.17668952  0.50000347  1  -0.007991  0  0.017246  0.129275  0  3.977188  0
C  C348  1  0.50012824  0.82336353  0.50000961  1  -0.041588  0  0.017294  0.130413  0  3.976486  0
C  C349  1  0.17663688  0.49986329  0.49999577  1  -0.041363  0  0.017349  0.130443  0  3.976449  0
C  C350  1  0.74217501  0.25782430  0.50000414  1  -0.016586  0  -0.014092  -0.066133  0  3.974431  0
C  C351  1  0.50010571  0.74225334  0.49999205  1  -0.005566  0  -0.014085  -0.06644  0  3.973412  0
C  C352  1  0.25774812  0.49988164  0.50001451  1  -0.006407  0  -0.014027  -0.066415  0  3.97357  0
C  C353  1  0.74564762  0.33774274  0.43254068  1  -0.021146  0  -0.013902  0.056142  0  3.940502  0
C  C354  1  0.48399699  0.74578441  0.43259918  1  -0.068221  0  -0.013591  0.056678  0  3.940197  0
C  C355  1  0.33771990  0.48384760  0.43259650  1  -0.008843  0  -0.013665  0.056147  0  3.941211  0
C  C356  1  0.25421476  0.51599935  0.56740280  1  -0.067794  0  -0.013543  0.056717  0  3.940394  0
C  C357  1  0.51613379  0.66228370  0.56741309  1  -0.009631  0  -0.013718  0.055906  0  3.941343  0
C  C358  1  0.66225984  0.25435562  0.56746401  1  -0.020839  0  -0.013879  0.056216  0  3.940592  0
C  C359  1  0.66945928  0.41601914  0.43549791  1  -0.054791  0  -0.009049  0.101157  0  3.942113  0
C  C360  1  0.47903541  0.66958213  0.43551226  1  -0.03972  0  -0.009589  0.10093  0  3.941533  0
C  C361  1  0.41593821  0.47897049  0.43549244  1  -0.015349  0  -0.008942  0.102092  0  3.94146  0
C  C362  1  0.33041329  0.52096531  0.56448922  1  -0.04024  0  -0.009634  0.100819  0  3.941664  0
C  C363  1  0.52101514  0.58406408  0.56451714  1  -0.01523  0  -0.008914  0.102184  0  3.941634  0
C  C364  1  0.58398273  0.33054389  0.56450393  1  -0.054788  0  -0.009037  0.101243  0  3.942229  0
C  C365  1  0.58697916  0.41302114  0.50000048  1  -0.590638  0  -0.012219  -0.259159  0  3.924842  0
C  C366  1  0.49995677  0.58711715  0.50004143  1  -0.616845  0  -0.012509  -0.259971  0  3.925278  0
C  C367  1  0.41288262  0.50004068  0.49996187  1  -0.61683  0  -0.012496  -0.25989  0  3.925005  0
C  C368  1  0.67780517  0.50047676  0.36406937  1  -0.046217  0  -0.243883  -0.417264  0  3.976706  0
C  C369  1  0.45769061  0.67790964  0.36407599  1  -0.063394  0  -0.243822  -0.417903  0  3.976303  0
C  C370  1  0.50038615  0.45758664  0.36405502  1  -0.087664  0  -0.244171  -0.418391  0  3.976941  0
C  C371  1  0.32208932  0.54230241  0.63592958  1  -0.067482  0  -0.243841  -0.417871  0  3.976205  0
C  C372  1  0.54240348  0.49961728  0.63594851  1  -0.087875  0  -0.244135  -0.41826  0  3.976855  0
C  C373  1  0.49952676  0.32219460  0.63592929  1  -0.046012  0  -0.244015  -0.417512  0  3.976819  0
C  C374  1  0.82739186  0.34062907  0.35557644  1  -0.118683  0  -0.248329  -0.419907  0  3.971587  0
C  C375  1  0.47595237  0.82761179  0.35575746  1  -0.139544  0  -0.248106  -0.419039  0  3.971577  0
C  C376  1  0.34073400  0.47590481  0.35573053  1  -0.072626  0  -0.248039  -0.419092  0  3.970617  0
C  C377  1  0.17238581  0.52404680  0.64424263  1  -0.139327  0  -0.248087  -0.418969  0  3.97154  0
C  C378  1  0.52407239  0.65927085  0.64428090  1  -0.072527  0  -0.248092  -0.419192  0  3.97059  0
C  C379  1  0.65937438  0.17261008  0.64442663  1  -0.118559  0  -0.248267  -0.419829  0  3.971521  0
Br  Br380  1  0.22430309  0.97703750  0.38656490  1  -0.668299  0  -0.384826  -0.581943  0  0.972696  0
Br  Br381  1  0.41251087  0.22482812  0.38670384  1  -0.667105  0  -0.384005  -0.581651  0  0.976493  0
Br  Br382  1  0.97671386  0.41208719  0.38638910  1  -0.665802  0  -0.383804  -0.580991  0  0.975408  0
Br  Br383  1  0.77513541  0.58744853  0.61335209  1  -0.667119  0  -0.384007  -0.581687  0  0.976302  0
Br  Br384  1  0.58789498  0.02327051  0.61362782  1  -0.665723  0  -0.383822  -0.580992  0  0.975449  0
Br  Br385  1  0.02297997  0.77567768  0.61343574  1  -0.668254  0  -0.38482  -0.581957  0  0.97255  0
Br  Br386  1  0.94263268  0.94244440  0.17163418  1  -0.659928  0  -0.375027  -0.573236  0  0.966606  0
Br  Br387  1  0.05755391  0.05737120  0.82836762  1  -0.659901  0  -0.375022  -0.573226  0  0.966605  0
N  N388  1  0.16576384  0.85926060  0.59884909  1  -1.244237  0  -0.338472  -0.230439  0  3.575047  0
N  N389  1  0.37611613  0.16562808  0.59887186  1  -1.23885  0  -0.338873  -0.230678  0  3.57578  0
N  N390  1  0.85917552  0.37601812  0.59891108  1  -1.231565  0  -0.338759  -0.23071  0  3.578623  0
N  N391  1  0.83437367  0.62387959  0.40112621  1  -1.238667  0  -0.338865  -0.230727  0  3.575796  0
N  N392  1  0.62397877  0.14082212  0.40108855  1  -1.231163  0  -0.33869  -0.230696  0  3.57878  0
N  N393  1  0.14074994  0.83424920  0.40114398  1  -1.241138  0  -0.338487  -0.230498  0  3.57525  0
N  N394  1  0.97672772  0.02329102  0.49999821  1  -1.248354  0  -0.343015  -0.231839  0  3.574772  0
N  N395  1  0.50005496  0.97679980  0.50005777  1  -1.242717  0  -0.342831  -0.231283  0  3.573226  0
N  N396  1  0.02320144  0.49993609  0.49994528  1  -1.242803  0  -0.342746  -0.231205  0  3.57322  0
N  N397  1  0.87422925  0.12576580  0.00000438  1  -1.247961  0  -0.343915  -0.23582  0  3.585924  0
N  N398  1  0.99998667  0.87435515  0.99980668  1  -1.259664  0  -0.344215  -0.235331  0  3.585879  0
N  N399  1  0.12564022  0.00001567  0.00019627  1  -1.259703  0  -0.344254  -0.235505  0  3.585751  0
