# generated using pymatgen
data_Zn3H32C52(NO6)2
_symmetry_space_group_name_H-M   'P 1'
_cell_length_a   14.24841202
_cell_length_b   18.11591820
_cell_length_c   25.93225269
_cell_angle_alpha   90.00060782
_cell_angle_beta   89.99979065
_cell_angle_gamma   90.00098982
_symmetry_Int_Tables_number   1
_chemical_formula_structural   Zn3H32C52(NO6)2
_chemical_formula_sum   'Zn12 H128 C208 N8 O48'
_cell_volume   6693.71258626
_cell_formula_units_Z   4
loop_
 _symmetry_equiv_pos_site_id
 _symmetry_equiv_pos_as_xyz
  1  'x, y, z'
loop_
 _atom_site_type_symbol
 _atom_site_label
 _atom_site_symmetry_multiplicity
 _atom_site_fract_x
 _atom_site_fract_y
 _atom_site_fract_z
 _atom_site_occupancy
 _atom_site_pbe_bader_charge
 _atom_site_pbe_bader_spin_density
 _atom_site_pbe_cm5_charge
 _atom_site_pbe_ddec_charge
 _atom_site_pbe_ddec_spin_density
 _atom_site_pbe_ddec_sum_bond_order
 _atom_site_pbe_magmom
Zn  Zn0  1  0.52966861  0.94125424  0.64711602  1  1.295828  0  0.683413  0.841839  0  2.329762  0
Zn  Zn1  1  0.97034528  0.44125711  0.85288450  1  1.295813  0  0.683455  0.841971  0  2.329619  0
Zn  Zn2  1  0.47032870  0.55873996  0.64711736  1  1.295559  0  0.683404  0.841926  0  2.329679  0
Zn  Zn3  1  0.02966365  0.05874840  0.85288406  1  1.295936  0  0.683442  0.841951  0  2.329538  0
Zn  Zn4  1  0.47033612  0.05874540  0.35288616  1  1.296004  0  0.683484  0.842051  0  2.329522  0
Zn  Zn5  1  0.02965244  0.55874529  0.14711536  1  1.295928  0  0.683488  0.84206  0  2.329447  0
Zn  Zn6  1  0.52966481  0.44125361  0.35288366  1  1.295924  0  0.683471  0.84203  0  2.329505  0
Zn  Zn7  1  0.97034390  0.94125510  0.14711619  1  1.295947  0  0.683481  0.842097  0  2.329422  0
Zn  Zn8  1  0.50000006  0.75000068  0.64601517  1  1.457156  0  0.70948  1.079246  0  2.288538  0
Zn  Zn9  1  0.99999983  0.24999956  0.85398548  1  1.457106  0  0.709537  1.07933  0  2.288367  0
Zn  Zn10  1  0.50000116  0.24999841  0.35398470  1  1.45701  0  0.709445  1.07919  0  2.288685  0
Zn  Zn11  1  0.99999915  0.75000084  0.14601104  1  1.45723  0  0.709425  1.079186  0  2.288564  0
H  H12  1  0.46308056  0.05803440  0.57434128  1  0.137956  0  0.121868  0.097217  0  1.010016  0
H  H13  1  0.03694195  0.55804084  0.92565474  1  0.138054  0  0.121927  0.097281  0  1.010052  0
H  H14  1  0.53693017  0.44196521  0.57435149  1  0.138323  0  0.121922  0.097235  0  1.010118  0
H  H15  1  0.96306198  0.94196754  0.92565289  1  0.138089  0  0.121882  0.09724  0  1.010055  0
H  H16  1  0.53693611  0.94196413  0.42565203  1  0.138094  0  0.121947  0.097283  0  1.010053  0
H  H17  1  0.96305576  0.44196322  0.07434821  1  0.138292  0  0.121961  0.097388  0  1.009961  0
H  H18  1  0.46306825  0.55803498  0.42565416  1  0.138049  0  0.121915  0.0973  0  1.010032  0
H  H19  1  0.03694907  0.05803541  0.07434235  1  0.138069  0  0.121868  0.097261  0  1.010029  0
H  H20  1  0.44849378  0.19628507  0.57173077  1  0.107696  0  0.112606  0.120223  0  1.006246  0
H  H21  1  0.05151631  0.69629396  0.92826704  1  0.107665  0  0.112607  0.12026  0  1.006334  0
H  H22  1  0.55151766  0.30371506  0.57173685  1  0.107702  0  0.112612  0.12021  0  1.006297  0
H  H23  1  0.94848901  0.80371667  0.92826844  1  0.107684  0  0.112623  0.12026  0  1.006196  0
H  H24  1  0.55151727  0.80371346  0.42826331  1  0.107717  0  0.112612  0.120164  0  1.006317  0
H  H25  1  0.94848422  0.30371010  0.07173437  1  0.107899  0  0.112635  0.120287  0  1.006135  0
H  H26  1  0.44848637  0.69628679  0.42826726  1  0.107582  0  0.112661  0.120354  0  1.006215  0
H  H27  1  0.05151783  0.19629070  0.07173181  1  0.107798  0  0.112595  0.120258  0  1.006277  0
H  H28  1  0.56317839  0.20030891  0.72618543  1  0.118194  0  0.112126  0.11994  0  1.008713  0
H  H29  1  0.93681410  0.70031408  0.77381947  1  0.118253  0  0.112081  0.119967  0  1.008732  0
H  H30  1  0.43681381  0.29968087  0.72618362  1  0.118034  0  0.11214  0.119967  0  1.008699  0
H  H31  1  0.06318099  0.79969032  0.77381611  1  0.118246  0  0.112136  0.119988  0  1.008573  0
H  H32  1  0.43681652  0.79968907  0.27381636  1  0.118232  0  0.112112  0.119913  0  1.008717  0
H  H33  1  0.06318502  0.29969273  0.22618155  1  0.118794  0  0.112089  0.119996  0  1.008717  0
H  H34  1  0.56318180  0.70031159  0.27381740  1  0.118265  0  0.112138  0.119962  0  1.008685  0
H  H35  1  0.93681813  0.20030987  0.22618259  1  0.118266  0  0.112137  0.119992  0  1.008688  0
H  H36  1  0.57542879  0.06240593  0.72122738  1  0.126959  0  0.129455  0.101978  0  0.961852  0
H  H37  1  0.92457332  0.56241211  0.77877034  1  0.127019  0  0.129483  0.102052  0  0.961696  0
H  H38  1  0.42456906  0.43758378  0.72123779  1  0.127003  0  0.129512  0.102115  0  0.961745  0
H  H39  1  0.07541823  0.93759403  0.77876836  1  0.126859  0  0.129482  0.101975  0  0.961776  0
H  H40  1  0.42457314  0.93759206  0.27876786  1  0.126869  0  0.129463  0.102044  0  0.961751  0
H  H41  1  0.07542089  0.43759415  0.22123261  1  0.126866  0  0.129493  0.102021  0  0.961713  0
H  H42  1  0.57542866  0.56241089  0.27876824  1  0.126904  0  0.129479  0.102068  0  0.961753  0
H  H43  1  0.92458370  0.06240616  0.22122958  1  0.126858  0  0.129511  0.102  0  0.961754  0
H  H44  1  0.61280560  0.51291384  0.50257773  1  0.09522  0  0.101921  0.104152  0  1.009208  0
H  H45  1  0.88719754  0.01291170  0.99742848  1  0.095417  0  0.101867  0.104112  0  1.00916  0
H  H46  1  0.38721019  0.98708147  0.50257548  1  0.09544  0  0.101869  0.104158  0  1.009277  0
H  H47  1  0.11280273  0.48707835  0.99742641  1  0.095639  0  0.101857  0.104191  0  1.009163  0
H  H48  1  0.38719422  0.48708746  0.49742251  1  0.095214  0  0.101892  0.104099  0  1.009261  0
H  H49  1  0.11279667  0.98709015  0.00257176  1  0.095365  0  0.101863  0.104116  0  1.009183  0
H  H50  1  0.61280507  0.01291651  0.49742631  1  0.095463  0  0.101868  0.104177  0  1.009322  0
H  H51  1  0.88719218  0.51291246  0.00256883  1  0.095104  0  0.101867  0.104131  0  1.009241  0
H  H52  1  0.70522108  0.51393284  0.42115741  1  0.068112  0  0.101036  0.109069  0  1.022896  0
H  H53  1  0.79478110  0.01393080  0.07884738  1  0.067966  0  0.101094  0.109143  0  1.023032  0
H  H54  1  0.29479032  0.98606785  0.42115765  1  0.068119  0  0.101074  0.109136  0  1.022889  0
H  H55  1  0.20521459  0.48606017  0.07884703  1  0.068167  0  0.101048  0.109019  0  1.022877  0
H  H56  1  0.29477734  0.48607287  0.57884129  1  0.068001  0  0.101108  0.10915  0  1.022983  0
H  H57  1  0.20520679  0.98607380  0.92114940  1  0.067816  0  0.101128  0.109159  0  1.022898  0
H  H58  1  0.70521511  0.01393123  0.57884645  1  0.06802  0  0.101062  0.109099  0  1.022914  0
H  H59  1  0.79477611  0.51393064  0.92115013  1  0.06786  0  0.101073  0.109126  0  1.022976  0
H  H60  1  0.75041949  0.74782924  0.43878030  1  0.064556  0  0.101352  0.101463  0  1.003551  0
H  H61  1  0.74956884  0.24781969  0.06122005  1  0.064064  0  0.101379  0.101536  0  1.003528  0
H  H62  1  0.24957145  0.75217835  0.43877852  1  0.06452  0  0.101417  0.101588  0  1.003531  0
H  H63  1  0.25041713  0.25216825  0.06122251  1  0.06491  0  0.101393  0.101602  0  1.003513  0
H  H64  1  0.24958033  0.25217702  0.56122226  1  0.064558  0  0.101426  0.101565  0  1.003512  0
H  H65  1  0.25042817  0.75217940  0.93877403  1  0.064078  0  0.10143  0.101568  0  1.00347  0
H  H66  1  0.75042557  0.24782516  0.56122597  1  0.064425  0  0.101388  0.101557  0  1.003505  0
H  H67  1  0.74956445  0.74782090  0.93878083  1  0.063971  0  0.10136  0.101575  0  1.003436  0
H  H68  1  0.65653436  0.74584754  0.52009110  1  0.086748  0  0.106825  0.116396  0  0.995785  0
H  H69  1  0.84345421  0.24584288  0.97990989  1  0.086418  0  0.106865  0.116543  0  0.995707  0
H  H70  1  0.34345746  0.75415190  0.52008683  1  0.08626  0  0.106854  0.116527  0  0.995763  0
H  H71  1  0.15653916  0.25414745  0.97991063  1  0.086116  0  0.106824  0.116425  0  0.995783  0
H  H72  1  0.34346476  0.25415321  0.47991146  1  0.086335  0  0.106858  0.116469  0  0.995772  0
H  H73  1  0.15654421  0.75415952  0.02008688  1  0.086425  0  0.106849  0.116476  0  0.99579  0
H  H74  1  0.65654587  0.24584773  0.47991226  1  0.086311  0  0.106875  0.116528  0  0.995692  0
H  H75  1  0.84345154  0.74584280  0.02009000  1  0.086407  0  0.106849  0.116513  0  0.995711  0
H  H76  1  0.85223420  0.52598983  0.38556572  1  0.063019  0  0.101912  0.101688  0  1.006504  0
H  H77  1  0.64776263  0.02598080  0.11443530  1  0.06297  0  0.101867  0.101551  0  1.006517  0
H  H78  1  0.14775638  0.97401143  0.38556926  1  0.062973  0  0.101898  0.10157  0  1.006592  0
H  H79  1  0.35223283  0.47400685  0.11443649  1  0.063116  0  0.101899  0.101671  0  1.00657  0
H  H80  1  0.14775930  0.47401368  0.61443145  1  0.06293  0  0.101896  0.101542  0  1.006583  0
H  H81  1  0.35223299  0.97402271  0.88556687  1  0.062879  0  0.101905  0.101568  0  1.006561  0
H  H82  1  0.85223713  0.02598986  0.61443253  1  0.063003  0  0.101895  0.101615  0  1.006564  0
H  H83  1  0.64776348  0.52598395  0.88556106  1  0.063121  0  0.101884  0.10163  0  1.006522  0
H  H84  1  0.73511833  0.74042781  0.35314600  1  0.049946  0  0.095725  0.093537  0  1.020896  0
H  H85  1  0.76487967  0.24042419  0.14685622  1  0.050132  0  0.095718  0.093592  0  1.020878  0
H  H86  1  0.26488649  0.75958013  0.35314501  1  0.050043  0  0.095715  0.093532  0  1.020846  0
H  H87  1  0.23510505  0.25957058  0.14685954  1  0.049842  0  0.09573  0.093541  0  1.02087  0
H  H88  1  0.26488710  0.25958176  0.64685656  1  0.050082  0  0.095729  0.09356  0  1.020871  0
H  H89  1  0.23511945  0.75958263  0.85313979  1  0.050193  0  0.09574  0.093618  0  1.020841  0
H  H90  1  0.73511894  0.24042503  0.64685948  1  0.05011  0  0.095713  0.093584  0  1.020823  0
H  H91  1  0.76487863  0.74042354  0.85314380  1  0.050101  0  0.095738  0.093624  0  1.02098  0
H  H92  1  0.83987697  0.93059145  0.68632359  1  0.082392  0  0.103702  0.107556  0  1.035292  0
H  H93  1  0.66012686  0.43059335  0.81367646  1  0.082474  0  0.103779  0.10767  0  1.03518  0
H  H94  1  0.16012079  0.56941052  0.68631949  1  0.082623  0  0.103627  0.10749  0  1.035377  0
H  H95  1  0.33987530  0.06940881  0.81367507  1  0.082492  0  0.103672  0.107513  0  1.035166  0
H  H96  1  0.16012636  0.06940432  0.31368514  1  0.082754  0  0.103645  0.107407  0  1.035333  0
H  H97  1  0.33986594  0.56940629  0.18631607  1  0.082477  0  0.103618  0.107375  0  1.035361  0
H  H98  1  0.83987202  0.43058249  0.31367652  1  0.082645  0  0.103635  0.107491  0  1.035373  0
H  H99  1  0.66012873  0.93058752  0.18632402  1  0.082465  0  0.103654  0.1075  0  1.035276  0
H  H100  1  0.99919936  0.87408095  0.69089783  1  0.05351  0  0.098612  0.094685  0  1.021821  0
H  H101  1  0.50080394  0.37408005  0.80910181  1  0.053612  0  0.098592  0.094559  0  1.02183  0
H  H102  1  0.00080048  0.62592385  0.69089987  1  0.053291  0  0.098599  0.094636  0  1.021839  0
H  H103  1  0.49920176  0.12592149  0.80910128  1  0.053253  0  0.098586  0.094651  0  1.021841  0
H  H104  1  0.00080117  0.12591317  0.30910898  1  0.053719  0  0.098633  0.094651  0  1.021886  0
H  H105  1  0.49919167  0.62591738  0.19089459  1  0.053799  0  0.098586  0.094553  0  1.021805  0
H  H106  1  0.99919794  0.37407413  0.30910269  1  0.05346  0  0.09861  0.094643  0  1.021744  0
H  H107  1  0.50080368  0.87407760  0.19089666  1  0.053327  0  0.098603  0.094602  0  1.021857  0
H  H108  1  0.88295133  0.66707065  0.63901893  1  0.060955  0  0.103288  0.105303  0  0.99858  0
H  H109  1  0.61705026  0.16707324  0.86098033  1  0.060738  0  0.103297  0.1053  0  0.998624  0
H  H110  1  0.11704603  0.83293281  0.63901725  1  0.060851  0  0.103297  0.105313  0  0.99852  0
H  H111  1  0.38295791  0.33293240  0.86097964  1  0.060828  0  0.103242  0.105261  0  0.998512  0
H  H112  1  0.11704709  0.33293009  0.36098093  1  0.060917  0  0.103254  0.105248  0  0.998614  0
H  H113  1  0.38295448  0.83293137  0.13902069  1  0.060863  0  0.103273  0.105272  0  0.998577  0
H  H114  1  0.88294677  0.16706407  0.36098377  1  0.060752  0  0.103226  0.105191  0  0.998582  0
H  H115  1  0.61704542  0.66706669  0.13901983  1  0.060831  0  0.103257  0.105278  0  0.99849  0
H  H116  1  0.72430201  0.72450632  0.63499227  1  0.143509  0  0.108691  0.121947  0  1.01088  0
H  H117  1  0.77569732  0.22451224  0.86500895  1  0.143658  0  0.10869  0.121958  0  1.010977  0
H  H118  1  0.27569468  0.77549598  0.63498675  1  0.143656  0  0.108685  0.121989  0  1.010843  0
H  H119  1  0.22430521  0.27549567  0.86500431  1  0.143488  0  0.108711  0.121969  0  1.010907  0
H  H120  1  0.27569290  0.27549498  0.36501183  1  0.143711  0  0.108656  0.121917  0  1.010894  0
H  H121  1  0.22430250  0.77549679  0.13498821  1  0.143625  0  0.108649  0.121959  0  1.010856  0
H  H122  1  0.72430093  0.22449759  0.36501118  1  0.143701  0  0.108742  0.122153  0  1.011163  0
H  H123  1  0.77569532  0.72450342  0.13499516  1  0.143475  0  0.108697  0.121906  0  1.010941  0
H  H124  1  0.93678780  0.52958605  0.30135121  1  0.090135  0  0.101222  0.102524  0  1.013979  0
H  H125  1  0.56320771  0.02957935  0.19865022  1  0.089905  0  0.1013  0.102551  0  1.014038  0
H  H126  1  0.06319841  0.97041117  0.30135528  1  0.090096  0  0.101271  0.102546  0  1.013907  0
H  H127  1  0.43679211  0.47040958  0.19864697  1  0.090188  0  0.101213  0.1025  0  1.013886  0
H  H128  1  0.06320009  0.47041635  0.69864595  1  0.089946  0  0.101276  0.102528  0  1.01402  0
H  H129  1  0.43680054  0.97042636  0.80135465  1  0.089706  0  0.101316  0.102617  0  1.013904  0
H  H130  1  0.93680492  0.02958957  0.69864419  1  0.09005  0  0.101248  0.10254  0  1.014009  0
H  H131  1  0.56320490  0.52958012  0.80134711  1  0.08989  0  0.101247  0.102551  0  1.013978  0
H  H132  1  0.82167775  0.74326229  0.26961635  1  0.100037  0  0.105397  0.11328  0  1.00071  0
H  H133  1  0.67831750  0.24325655  0.23038666  1  0.100063  0  0.105425  0.113347  0  1.000597  0
H  H134  1  0.17832551  0.75674217  0.26961591  1  0.099993  0  0.105417  0.113263  0  1.000729  0
H  H135  1  0.32167650  0.25673728  0.23038631  1  0.099953  0  0.105422  0.113258  0  1.000779  0
H  H136  1  0.17832207  0.25674783  0.73038544  1  0.100158  0  0.105456  0.113392  0  1.00065  0
H  H137  1  0.32169285  0.75674861  0.76961397  1  0.099951  0  0.105439  0.113295  0  1.000703  0
H  H138  1  0.82169256  0.24326299  0.73038550  1  0.100151  0  0.105368  0.113214  0  1.000719  0
H  H139  1  0.67831490  0.74326015  0.76961471  1  0.100144  0  0.105376  0.113289  0  1.000766  0
C  C140  1  0.48425091  0.09240236  0.60677551  1  0.492782  0  0.055883  0.103148  0  3.937939  0
C  C141  1  0.01576393  0.59240856  0.89322230  1  0.492916  0  0.055788  0.102935  0  3.938135  0
C  C142  1  0.51575610  0.40759830  0.60678397  1  0.49286  0  0.055703  0.102934  0  3.937991  0
C  C143  1  0.98423740  0.90759987  0.89322169  1  0.492796  0  0.055742  0.102907  0  3.938046  0
C  C144  1  0.51575874  0.90759949  0.39321857  1  0.492993  0  0.055757  0.102939  0  3.938199  0
C  C145  1  0.98423870  0.40759770  0.10678142  1  0.492898  0  0.055687  0.102755  0  3.938232  0
C  C146  1  0.48424161  0.59240355  0.39322168  1  0.492873  0  0.055825  0.102978  0  3.938  0
C  C147  1  0.01576733  0.09240529  0.10677701  1  0.492687  0  0.055874  0.102946  0  3.938085  0
C  C148  1  0.47659896  0.16874124  0.60575275  1  -0.008954  0  -0.075635  -0.167401  0  3.936312  0
C  C149  1  0.02341053  0.66875419  0.89424447  1  -0.009152  0  -0.075667  -0.167445  0  3.936599  0
C  C150  1  0.52340735  0.33125168  0.60575986  1  -0.00931  0  -0.07576  -0.167519  0  3.936249  0
C  C151  1  0.97659431  0.83125812  0.89424563  1  -0.009325  0  -0.075636  -0.167333  0  3.936459  0
C  C152  1  0.52340507  0.83125674  0.39424325  1  -0.009757  0  -0.07565  -0.1673  0  3.936457  0
C  C153  1  0.97659421  0.33125152  0.10575655  1  -0.009727  0  -0.07576  -0.167566  0  3.936489  0
C  C154  1  0.47659247  0.66874796  0.39424386  1  -0.008881  0  -0.075712  -0.167566  0  3.936473  0
C  C155  1  0.02341253  0.16874869  0.10575501  1  -0.009224  0  -0.075722  -0.167531  0  3.936596  0
C  C156  1  0.50376790  0.20942918  0.64925045  1  0.008569  0  0.016861  0.105885  0  3.98205  0
C  C157  1  0.99623531  0.70943744  0.85074913  1  -0.061605  0  0.016999  0.106158  0  3.982427  0
C  C158  1  0.49623321  0.29056219  0.64925191  1  -0.061101  0  0.017018  0.106095  0  3.982105  0
C  C159  1  0.00377051  0.79057256  0.85075007  1  0.008761  0  0.016892  0.105832  0  3.982525  0
C  C160  1  0.49622700  0.79056770  0.35075057  1  0.009016  0  0.016888  0.106031  0  3.982179  0
C  C161  1  0.00377223  0.29056717  0.14924996  1  0.008729  0  0.016955  0.106119  0  3.982359  0
C  C162  1  0.50376450  0.70943248  0.35074795  1  -0.061326  0  0.016996  0.106046  0  3.982229  0
C  C163  1  0.99623703  0.20943316  0.14925172  1  -0.061454  0  0.017026  0.106145  0  3.982263  0
C  C164  1  0.53913339  0.17095143  0.69195693  1  -0.065348  0  -0.074636  -0.169424  0  3.937011  0
C  C165  1  0.96086547  0.67095856  0.80804506  1  -0.065371  0  -0.074555  -0.16951  0  3.937245  0
C  C166  1  0.46086534  0.32903949  0.69195991  1  -0.065477  0  -0.074611  -0.169507  0  3.936875  0
C  C167  1  0.03913220  0.82904858  0.80804544  1  -0.065327  0  -0.074624  -0.169502  0  3.937269  0
C  C168  1  0.46086643  0.82904379  0.30804370  1  -0.065421  0  -0.074634  -0.169523  0  3.937065  0
C  C169  1  0.03913435  0.32904439  0.19195519  1  -0.065918  0  -0.074585  -0.169638  0  3.937279  0
C  C170  1  0.53913167  0.67095353  0.30804265  1  -0.065427  0  -0.074665  -0.169475  0  3.93709  0
C  C171  1  0.96086902  0.17095492  0.19195520  1  -0.065327  0  -0.074618  -0.169572  0  3.937107  0
C  C172  1  0.54630600  0.09454628  0.68946592  1  0.466482  0  0.062737  0.112906  0  3.920464  0
C  C173  1  0.95370102  0.59454948  0.81053242  1  0.466693  0  0.062818  0.113019  0  3.920296  0
C  C174  1  0.45369416  0.40544681  0.68947488  1  0.467133  0  0.062783  0.112879  0  3.92033  0
C  C175  1  0.04629523  0.90545548  0.81053026  1  0.466449  0  0.062856  0.113144  0  3.920279  0
C  C176  1  0.45369733  0.90545336  0.31053009  1  0.466514  0  0.062817  0.112919  0  3.920355  0
C  C177  1  0.04629739  0.40545457  0.18947053  1  0.46653  0  0.062781  0.113058  0  3.920205  0
C  C178  1  0.54630215  0.59454621  0.31053077  1  0.466435  0  0.062753  0.112826  0  3.920429  0
C  C179  1  0.95370740  0.09454526  0.18946767  1  0.466596  0  0.062739  0.113052  0  3.920094  0
C  C180  1  0.62866754  0.62963792  0.51616548  1  -0.092516  0  -0.025324  -0.050319  0  3.988218  0
C  C181  1  0.87131989  0.12963480  0.98383891  1  -0.098386  0  -0.025322  -0.050162  0  3.98847  0
C  C182  1  0.37133693  0.87035926  0.51616008  1  -0.098379  0  -0.02529  -0.050217  0  3.988289  0
C  C183  1  0.12867204  0.37035448  0.98383748  1  -0.098449  0  -0.02524  -0.050178  0  3.988475  0
C  C184  1  0.37133088  0.37036172  0.48383786  1  -0.098381  0  -0.025324  -0.050176  0  3.988484  0
C  C185  1  0.12867080  0.87036594  0.01615749  1  -0.098398  0  -0.025268  -0.050223  0  3.988561  0
C  C186  1  0.62867763  0.12964369  0.48383747  1  -0.098257  0  -0.025212  -0.050107  0  3.988392  0
C  C187  1  0.87132567  0.62963301  0.01615776  1  -0.09849  0  -0.02525  -0.050116  0  3.98871  0
C  C188  1  0.64367280  0.56417549  0.48857525  1  -0.022062  0  -0.086978  -0.09183  0  3.997817  0
C  C189  1  0.85632416  0.06417050  0.01142991  1  -0.016842  0  -0.087002  -0.091864  0  3.997583  0
C  C190  1  0.35633536  0.93582347  0.48857075  1  -0.016358  0  -0.086913  -0.091845  0  3.998103  0
C  C191  1  0.14367126  0.43581668  0.01142893  1  -0.016704  0  -0.08697  -0.092052  0  3.998011  0
C  C192  1  0.35632702  0.43582746  0.51142693  1  -0.016284  0  -0.086936  -0.091736  0  3.997774  0
C  C193  1  0.14367005  0.93583134  0.98856841  1  -0.01675  0  -0.086895  -0.091692  0  3.997719  0
C  C194  1  0.64367288  0.06417286  0.51143027  1  -0.016817  0  -0.086953  -0.091955  0  3.997591  0
C  C195  1  0.85632295  0.56417302  0.98856785  1  -0.018008  0  -0.0869  -0.091768  0  3.997838  0
C  C196  1  0.69617986  0.56470487  0.44325519  1  -0.049866  0  -0.091906  -0.136025  0  3.965736  0
C  C197  1  0.80381712  0.06470207  0.05675152  1  -0.049164  0  -0.091811  -0.135924  0  3.965731  0
C  C198  1  0.30382719  0.93529671  0.44325426  1  -0.050194  0  -0.091859  -0.135975  0  3.965809  0
C  C199  1  0.19617660  0.43528691  0.05675004  1  -0.050371  0  -0.091804  -0.135719  0  3.965605  0
C  C200  1  0.30381786  0.43529918  0.55674622  1  -0.049618  0  -0.091922  -0.136079  0  3.965941  0
C  C201  1  0.19617358  0.93530088  0.94324835  1  -0.04984  0  -0.091871  -0.136013  0  3.965589  0
C  C202  1  0.69618105  0.06470458  0.55674868  1  -0.049716  0  -0.091886  -0.135991  0  3.96574  0
C  C203  1  0.80381409  0.56469837  0.94324673  1  -0.048085  0  -0.091832  -0.135928  0  3.965403  0
C  C204  1  0.73421786  0.63096771  0.42411321  1  0.015849  0  -0.003795  0.07596  0  3.993974  0
C  C205  1  0.76577775  0.13096522  0.07588897  1  0.015159  0  -0.003945  0.075844  0  3.99421  0
C  C206  1  0.26578370  0.86903469  0.42411419  1  0.015943  0  -0.003879  0.075961  0  3.993993  0
C  C207  1  0.23421585  0.36902460  0.07589040  1  0.016355  0  -0.003951  0.075857  0  3.994203  0
C  C208  1  0.26578196  0.36903745  0.57588781  1  0.015569  0  -0.003917  0.075836  0  3.994086  0
C  C209  1  0.23421927  0.86903938  0.92410935  1  0.016367  0  -0.004026  0.075768  0  3.99425  0
C  C210  1  0.73421753  0.13096550  0.57589262  1  0.016152  0  -0.003919  0.075954  0  3.993953  0
C  C211  1  0.76577415  0.63096400  0.92410984  1  0.015684  0  -0.004043  0.075681  0  3.99415  0
C  C212  1  0.71901609  0.69637825  0.45222788  1  -0.100802  0  -0.094786  -0.143415  0  4.005617  0
C  C213  1  0.78097323  0.19637499  0.04777518  1  -0.099796  0  -0.094661  -0.143277  0  4.005672  0
C  C214  1  0.28097897  0.80362292  0.45222448  1  -0.100806  0  -0.094771  -0.143472  0  4.005801  0
C  C215  1  0.21901564  0.30361496  0.04777769  1  -0.101058  0  -0.094833  -0.143618  0  4.00583  0
C  C216  1  0.28098303  0.30362194  0.54777661  1  -0.100748  0  -0.094714  -0.143251  0  4.005361  0
C  C217  1  0.21902168  0.80362686  0.95222044  1  -0.100701  0  -0.094712  -0.143287  0  4.005556  0
C  C218  1  0.71902225  0.19637948  0.54777847  1  -0.100817  0  -0.094737  -0.143377  0  4.005579  0
C  C219  1  0.78096874  0.69637364  0.95222332  1  -0.099821  0  -0.094586  -0.143287  0  4.005433  0
C  C220  1  0.66731614  0.69572522  0.49759730  1  0.0159  0  -0.087677  -0.093538  0  4.002855  0
C  C221  1  0.83267527  0.19572088  0.00240151  1  0.016102  0  -0.087785  -0.093918  0  4.003187  0
C  C222  1  0.33268284  0.80427167  0.49759534  1  0.016423  0  -0.087778  -0.093843  0  4.002976  0
C  C223  1  0.16731529  0.30426783  0.00240414  1  0.016212  0  -0.087672  -0.093582  0  4.002765  0
C  C224  1  0.33268789  0.30427662  0.50240449  1  0.01641  0  -0.087806  -0.093888  0  4.003054  0
C  C225  1  0.16731613  0.80427821  0.99759334  1  0.0166  0  -0.087805  -0.093846  0  4.002953  0
C  C226  1  0.66732330  0.19572411  0.50240606  1  0.016113  0  -0.087829  -0.093915  0  4.003323  0
C  C227  1  0.83267541  0.69572133  0.99759727  1  0.0163  0  -0.087818  -0.093913  0  4.002773  0
C  C228  1  0.78720359  0.63278985  0.37527668  1  -0.036726  0  -0.005025  0.072126  0  3.996085  0
C  C229  1  0.71279557  0.13278684  0.12472629  1  -0.036554  0  -0.005115  0.072  0  3.995978  0
C  C230  1  0.21279758  0.86721346  0.37527698  1  -0.03676  0  -0.005137  0.071984  0  3.99597  0
C  C231  1  0.28720052  0.36720925  0.12472605  1  -0.03638  0  -0.00503  0.071998  0  3.996148  0
C  C232  1  0.21279904  0.36721420  0.62472473  1  -0.036794  0  -0.005079  0.071987  0  3.996072  0
C  C233  1  0.28719864  0.86721943  0.87527319  1  -0.037138  0  -0.005064  0.071997  0  3.995933  0
C  C234  1  0.78720505  0.13279004  0.62472713  1  -0.036529  0  -0.005064  0.071979  0  3.996128  0
C  C235  1  0.71279368  0.63278984  0.87527381  1  -0.036646  0  -0.005093  0.072073  0  3.996049  0
C  C236  1  0.84469010  0.57354500  0.36013579  1  -0.013318  0  -0.087797  -0.12339  0  3.97591  0
C  C237  1  0.65530917  0.07353590  0.13986751  1  -0.013568  0  -0.087709  -0.123139  0  3.975693  0
C  C238  1  0.15530415  0.92645643  0.36013742  1  -0.013269  0  -0.087723  -0.12319  0  3.97583  0
C  C239  1  0.34468753  0.42645489  0.13986566  1  -0.013267  0  -0.087746  -0.123259  0  3.97596  0
C  C240  1  0.15530621  0.42646127  0.63986291  1  -0.013352  0  -0.087728  -0.123077  0  3.97568  0
C  C241  1  0.34469066  0.92646705  0.86013390  1  -0.013241  0  -0.087736  -0.123054  0  3.975846  0
C  C242  1  0.84469427  0.07354431  0.63986398  1  -0.013204  0  -0.087692  -0.123122  0  3.975862  0
C  C243  1  0.65530738  0.57353923  0.86013189  1  -0.013628  0  -0.087673  -0.123146  0  3.975662  0
C  C244  1  0.78027799  0.69433377  0.34234572  1  -0.013155  0  -0.095213  -0.140146  0  4.004379  0
C  C245  1  0.71971690  0.19432804  0.15765847  1  -0.013077  0  -0.095277  -0.140466  0  4.004767  0
C  C246  1  0.21972200  0.80567456  0.34234440  1  -0.013062  0  -0.095176  -0.140181  0  4.004389  0
C  C247  1  0.28027336  0.30566634  0.15765780  1  -0.013089  0  -0.095286  -0.140348  0  4.004589  0
C  C248  1  0.21972184  0.30567580  0.65765607  1  -0.013063  0  -0.09524  -0.140242  0  4.004606  0
C  C249  1  0.28028362  0.80567602  0.84233946  1  -0.012936  0  -0.09529  -0.140468  0  4.004455  0
C  C250  1  0.78028554  0.19433115  0.65765817  1  -0.013157  0  -0.095288  -0.140505  0  4.004672  0
C  C251  1  0.71971734  0.69432999  0.84234361  1  -0.01316  0  -0.095306  -0.140486  0  4.004804  0
C  C252  1  0.68098079  0.86791651  0.65360943  1  1.540924  0  0.207713  0.581796  0  4.170951  0
C  C253  1  0.81902939  0.36791555  0.84639054  1  1.541241  0  0.207886  0.582082  0  4.171037  0
C  C254  1  0.31901718  0.63208607  0.65360238  1  1.541109  0  0.208019  0.582308  0  4.170193  0
C  C255  1  0.18097677  0.13209151  0.84638763  1  1.541245  0  0.207833  0.58184  0  4.171245  0
C  C256  1  0.31902254  0.13208921  0.34639776  1  1.541395  0  0.207951  0.582249  0  4.170626  0
C  C257  1  0.18097113  0.63208850  0.15360392  1  1.540937  0  0.207888  0.5821  0  4.171088  0
C  C258  1  0.68097422  0.36790639  0.34639363  1  1.541088  0  0.20782  0.581983  0  4.170887  0
C  C259  1  0.81902726  0.86791088  0.15361069  1  1.541016  0  0.207933  0.582181  0  4.170818  0
C  C260  1  0.77338365  0.83128366  0.65982154  1  0.014983  0  -0.018568  -0.034892  0  3.982158  0
C  C261  1  0.72662012  0.33128576  0.84017739  1  0.014901  0  -0.018714  -0.035167  0  3.982406  0
C  C262  1  0.22661217  0.66871902  0.65981727  1  0.015588  0  -0.018676  -0.035189  0  3.982629  0
C  C263  1  0.27338538  0.16871735  0.84017571  1  0.015587  0  -0.018556  -0.034834  0  3.98222  0
C  C264  1  0.22661407  0.16871709  0.34018295  1  0.01512  0  -0.018591  -0.035064  0  3.982502  0
C  C265  1  0.27337690  0.66871719  0.15981669  1  0.014821  0  -0.018566  -0.034968  0  3.982449  0
C  C266  1  0.77337993  0.33127676  0.34018144  1  0.015734  0  -0.018573  -0.03491  0  3.982312  0
C  C267  1  0.72662216  0.83128284  0.15982068  1  0.015055  0  -0.018635  -0.035107  0  3.982414  0
C  C268  1  0.85085514  0.87299735  0.67599607  1  -0.120433  0  -0.084505  -0.089303  0  3.983441  0
C  C269  1  0.64915094  0.37299760  0.82400394  1  -0.120288  0  -0.084543  -0.089338  0  3.983202  0
C  C270  1  0.14914409  0.62700778  0.67599434  1  -0.120833  0  -0.084431  -0.089133  0  3.983516  0
C  C271  1  0.35085186  0.12700913  0.82400218  1  -0.120654  0  -0.08449  -0.089196  0  3.983395  0
C  C272  1  0.14914538  0.12700284  0.32400919  1  -0.12054  0  -0.084489  -0.089069  0  3.983552  0
C  C273  1  0.35084678  0.62700480  0.17599284  1  -0.120007  0  -0.084449  -0.089133  0  3.983369  0
C  C274  1  0.85085082  0.37298744  0.32400398  1  -0.120594  0  -0.084454  -0.089153  0  3.98333  0
C  C275  1  0.64915007  0.87299327  0.17599652  1  -0.120199  0  -0.08442  -0.089159  0  3.983309  0
C  C276  1  0.93934675  0.84111551  0.67835971  1  0.041711  0  -0.096025  -0.145554  0  4.007621  0
C  C277  1  0.56065793  0.34111341  0.82164045  1  0.041401  0  -0.096108  -0.145516  0  4.007295  0
C  C278  1  0.06065035  0.65889075  0.67835879  1  0.04176  0  -0.096116  -0.145736  0  4.007511  0
C  C279  1  0.43934699  0.15888776  0.82163874  1  0.041612  0  -0.096051  -0.145684  0  4.007504  0
C  C280  1  0.06065517  0.15888192  0.32164593  1  0.041186  0  -0.096085  -0.14561  0  4.007483  0
C  C281  1  0.43934049  0.65888457  0.17835517  1  0.041127  0  -0.096069  -0.145437  0  4.007207  0
C  C282  1  0.93934315  0.34110336  0.32164339  1  0.041641  0  -0.096144  -0.145735  0  4.007522  0
C  C283  1  0.56065705  0.84111409  0.17835919  1  0.041685  0  -0.096108  -0.14558  0  4.007577  0
C  C284  1  0.95267589  0.76651978  0.66499306  1  -0.037182  0  -0.007177  0.065192  0  4.01617  0
C  C285  1  0.54732506  0.26651660  0.83500617  1  -0.037214  0  -0.007066  0.065344  0  4.016208  0
C  C286  1  0.04732552  0.73348573  0.66499310  1  -0.086288  0  -0.00705  0.065445  0  4.016273  0
C  C287  1  0.45267977  0.23348588  0.83500653  1  -0.085719  0  -0.007114  0.065342  0  4.016179  0
C  C288  1  0.04732463  0.23347765  0.33501066  1  -0.036964  0  -0.007161  0.0652  0  4.016115  0
C  C289  1  0.45267686  0.73348249  0.16499138  1  -0.085936  0  -0.007066  0.065281  0  4.016062  0
C  C290  1  0.95267360  0.26651115  0.33500831  1  -0.085831  0  -0.00704  0.065425  0  4.016024  0
C  C291  1  0.54732707  0.76651762  0.16499256  1  -0.037319  0  -0.007108  0.065316  0  4.016225  0
C  C292  1  0.87375791  0.72462007  0.65033826  1  -0.031015  0  -0.090409  -0.137422  0  3.971901  0
C  C293  1  0.62624283  0.22462260  0.84966220  1  -0.0308  0  -0.090379  -0.137395  0  3.971956  0
C  C294  1  0.12623867  0.77538191  0.65033613  1  -0.03151  0  -0.09048  -0.137492  0  3.972003  0
C  C295  1  0.37376331  0.27538121  0.84966110  1  -0.031497  0  -0.090391  -0.137439  0  3.971917  0
C  C296  1  0.12623980  0.27538178  0.34966122  1  -0.03134  0  -0.090357  -0.137289  0  3.971796  0
C  C297  1  0.37376051  0.77537869  0.15033612  1  -0.03124  0  -0.090427  -0.137382  0  3.971945  0
C  C298  1  0.87375553  0.22461221  0.34966296  1  -0.031836  0  -0.090327  -0.13719  0  3.971531  0
C  C299  1  0.62624072  0.72461899  0.15033837  1  -0.030959  0  -0.090345  -0.137389  0  3.971842  0
C  C300  1  0.78500241  0.75645829  0.64754812  1  -0.072997  0  -0.07624  -0.071353  0  3.942513  0
C  C301  1  0.71499972  0.25645932  0.85245218  1  -0.073118  0  -0.076251  -0.071344  0  3.942584  0
C  C302  1  0.21499700  0.74354254  0.64754211  1  -0.072733  0  -0.076087  -0.071218  0  3.942667  0
C  C303  1  0.28500359  0.24354674  0.85244950  1  -0.07292  0  -0.07627  -0.071388  0  3.942496  0
C  C304  1  0.21499741  0.24354246  0.35245637  1  -0.073094  0  -0.076186  -0.071333  0  3.942643  0
C  C305  1  0.28500080  0.74354418  0.14754421  1  -0.072913  0  -0.076188  -0.071393  0  3.94262  0
C  C306  1  0.78499580  0.25645102  0.35245660  1  -0.073232  0  -0.076346  -0.071786  0  3.94319  0
C  C307  1  0.71499833  0.75645566  0.14754921  1  -0.072953  0  -0.076261  -0.07127  0  3.94269  0
C  C308  1  0.93084960  0.63767879  0.22890862  1  1.564511  0  0.219422  0.60629  0  4.172902  0
C  C309  1  0.56914265  0.13766721  0.27108937  1  1.564631  0  0.219299  0.606249  0  4.173162  0
C  C310  1  0.06914901  0.86232229  0.22891343  1  1.564179  0  0.219396  0.606229  0  4.173077  0
C  C311  1  0.43086092  0.36232283  0.27108571  1  1.56443  0  0.219406  0.606146  0  4.173105  0
C  C312  1  0.06914952  0.36232968  0.77109008  1  1.564462  0  0.219401  0.606258  0  4.173151  0
C  C313  1  0.43086630  0.86233078  0.72891319  1  1.564463  0  0.219306  0.606193  0  4.173323  0
C  C314  1  0.93086274  0.13768121  0.77108721  1  1.564614  0  0.21932  0.606041  0  4.173429  0
C  C315  1  0.56913820  0.63767902  0.72891145  1  1.564428  0  0.219408  0.606178  0  4.173199  0
C  C316  1  0.88325254  0.63617686  0.28032726  1  0.016085  0  -0.020544  -0.038595  0  3.973556  0
C  C317  1  0.61674038  0.13616680  0.21967612  1  0.016274  0  -0.0206  -0.03878  0  3.973393  0
C  C318  1  0.11674504  0.86382942  0.28032774  1  0.016088  0  -0.020632  -0.038828  0  3.973654  0
C  C319  1  0.38326001  0.36382466  0.21967257  1  0.016158  0  -0.020683  -0.03889  0  3.973759  0
C  C320  1  0.11674237  0.36383492  0.71967299  1  0.016576  0  -0.020645  -0.03878  0  3.97337  0
C  C321  1  0.38326505  0.86384001  0.78032683  1  0.016986  0  -0.020552  -0.03872  0  3.973357  0
C  C322  1  0.88326601  0.13617353  0.71967213  1  0.01669  0  -0.020657  -0.038826  0  3.973599  0
C  C323  1  0.61673841  0.63617057  0.78032536  1  0.016343  0  -0.020638  -0.038776  0  3.973481  0
C  C324  1  0.89207731  0.57528597  0.31327827  1  -0.075614  0  -0.085582  -0.090242  0  3.990029  0
C  C325  1  0.60791919  0.07527971  0.18672273  1  -0.07551  0  -0.085615  -0.09025  0  3.99012  0
C  C326  1  0.10791584  0.92471198  0.31327999  1  -0.075775  0  -0.085633  -0.090223  0  3.990074  0
C  C327  1  0.39208001  0.42471070  0.18672039  1  -0.075922  0  -0.08555  -0.090125  0  3.989997  0
C  C328  1  0.10791549  0.42471753  0.68672043  1  -0.075682  0  -0.08561  -0.090256  0  3.990271  0
C  C329  1  0.39208274  0.92472600  0.81327945  1  -0.075528  0  -0.085644  -0.090423  0  3.990163  0
C  C330  1  0.89209030  0.07528766  0.68671795  1  -0.07592  0  -0.085638  -0.090323  0  3.990107  0
C  C331  1  0.60791771  0.57528232  0.81327639  1  -0.075438  0  -0.085584  -0.090261  0  3.989973  0
C  C332  1  0.82764063  0.69614706  0.29553679  1  -0.08472  0  -0.085199  -0.086473  0  3.986815  0
C  C333  1  0.67235570  0.19614139  0.20446781  1  -0.084872  0  -0.085033  -0.086114  0  3.986218  0
C  C334  1  0.17236176  0.80385559  0.29553362  1  -0.084539  0  -0.085127  -0.086233  0  3.98635  0
C  C335  1  0.32763706  0.30384983  0.20446663  1  -0.084709  0  -0.085076  -0.086078  0  3.986581  0
C  C336  1  0.17235990  0.30386086  0.70446693  1  -0.085051  0  -0.085127  -0.086379  0  3.986191  0
C  C337  1  0.32765043  0.80386597  0.79553244  1  -0.085345  0  -0.085112  -0.086115  0  3.986409  0
C  C338  1  0.82765069  0.19614571  0.70446624  1  -0.08543  0  -0.084972  -0.085896  0  3.986217  0
C  C339  1  0.67235504  0.69614539  0.79553323  1  -0.085035  0  -0.085037  -0.086181  0  3.986353  0
C  C340  1  0.57405992  0.63162623  0.56547903  1  1.56753  0  0.217268  0.600744  0  4.177289  0
C  C341  1  0.92593388  0.13162642  0.93452421  1  1.56816  0  0.217286  0.60061  0  4.177584  0
C  C342  1  0.42594143  0.86836673  0.56547621  1  1.568207  0  0.217373  0.600709  0  4.177311  0
C  C343  1  0.07406329  0.36836433  0.93452442  1  1.568554  0  0.217426  0.600787  0  4.177311  0
C  C344  1  0.42593640  0.36837397  0.43452314  1  1.567562  0  0.217273  0.600527  0  4.1778  0
C  C345  1  0.07406805  0.86837211  0.06547489  1  1.568126  0  0.217276  0.600478  0  4.177885  0
C  C346  1  0.57406822  0.13162794  0.43452636  1  1.567985  0  0.21735  0.600724  0  4.17757  0
C  C347  1  0.92593653  0.63162427  0.06547082  1  1.568059  0  0.217257  0.600532  0  4.177585  0
N  N348  1  0.51863947  0.05588585  0.64785546  1  -1.237432  0  -0.319294  -0.223203  0  3.535494  0
N  N349  1  0.98137303  0.55589062  0.85214066  1  -1.237211  0  -0.319453  -0.223398  0  3.53584  0
N  N350  1  0.48136306  0.44410881  0.64786619  1  -1.237852  0  -0.319298  -0.223085  0  3.535805  0
N  N351  1  0.01862857  0.94411664  0.85213924  1  -1.237395  0  -0.319353  -0.223262  0  3.535521  0
N  N352  1  0.48136456  0.94411268  0.35213978  1  -1.237459  0  -0.319349  -0.22319  0  3.535739  0
N  N353  1  0.01862469  0.44411399  0.14786190  1  -1.237483  0  -0.319279  -0.223155  0  3.53572  0
N  N354  1  0.51863325  0.55588917  0.35214100  1  -1.237311  0  -0.319351  -0.223223  0  3.535704  0
N  N355  1  0.98137897  0.05588742  0.14785793  1  -1.237214  0  -0.319388  -0.223281  0  3.535541  0
O  O356  1  0.67447204  0.93786604  0.66023504  1  -1.175297  0  -0.321654  -0.546722  0  2.215327  0
O  O357  1  0.82553827  0.43786950  0.83976584  1  -1.175402  0  -0.321777  -0.54694  0  2.215149  0
O  O358  1  0.32552098  0.56213332  0.66022398  1  -1.175334  0  -0.32175  -0.546883  0  2.214913  0
O  O359  1  0.17446793  0.06213582  0.83976242  1  -1.175199  0  -0.321712  -0.546828  0  2.215162  0
O  O360  1  0.32552849  0.06213194  0.33977215  1  -1.175331  0  -0.321778  -0.547006  0  2.214837  0
O  O361  1  0.17445734  0.56213566  0.16023094  1  -1.175187  0  -0.321868  -0.547006  0  2.215092  0
O  O362  1  0.67446902  0.43786135  0.33976200  1  -1.174945  0  -0.321707  -0.546901  0  2.214977  0
O  O363  1  0.82554101  0.93786327  0.16024014  1  -1.175226  0  -0.321751  -0.546961  0  2.215101  0
O  O364  1  0.97120858  0.57752799  0.21462807  1  -1.173329  0  -0.331627  -0.565884  0  2.344553  0
O  O365  1  0.52877323  0.07752546  0.28537024  1  -1.17361  0  -0.331666  -0.565846  0  2.344967  0
O  O366  1  0.02879153  0.92246846  0.21462916  1  -1.173263  0  -0.331626  -0.565897  0  2.344808  0
O  O367  1  0.47121690  0.42246866  0.28537158  1  -1.173413  0  -0.331624  -0.565799  0  2.344985  0
O  O368  1  0.02878774  0.42247551  0.78536909  1  -1.173576  0  -0.331652  -0.565786  0  2.344752  0
O  O369  1  0.47122729  0.92248026  0.71463155  1  -1.173414  0  -0.33168  -0.565812  0  2.344833  0
O  O370  1  0.97121741  0.07753118  0.78536993  1  -1.173416  0  -0.33163  -0.565805  0  2.344857  0
O  O371  1  0.52877099  0.57753043  0.71463021  1  -1.173299  0  -0.331756  -0.565954  0  2.344786  0
O  O372  1  0.53526400  0.57085300  0.58017136  1  -1.180372  0  -0.32856  -0.566519  0  2.350561  0
O  O373  1  0.96473268  0.07085185  0.91983644  1  -1.181025  0  -0.328641  -0.566567  0  2.350579  0
O  O374  1  0.46473795  0.92914184  0.58016621  1  -1.180854  0  -0.328685  -0.566574  0  2.350571  0
O  O375  1  0.03527301  0.42913978  0.91983178  1  -1.18116  0  -0.328667  -0.566574  0  2.350566  0
O  O376  1  0.46473371  0.42914554  0.41983313  1  -1.180508  0  -0.328622  -0.566492  0  2.350783  0
O  O377  1  0.03527206  0.92914779  0.08016689  1  -1.180898  0  -0.328732  -0.566636  0  2.350664  0
O  O378  1  0.53527380  0.07085670  0.41983250  1  -1.180825  0  -0.328726  -0.566667  0  2.350795  0
O  O379  1  0.96472611  0.57085103  0.08016345  1  -1.181011  0  -0.32866  -0.566601  0  2.350777  0
O  O380  1  0.57149671  0.69249164  0.58891841  1  -1.185345  0  -0.305407  -0.558564  0  2.390402  0
O  O381  1  0.92849771  0.19248876  0.91108142  1  -1.185173  0  -0.305353  -0.558474  0  2.390553  0
O  O382  1  0.42850098  0.80750278  0.58891667  1  -1.18549  0  -0.305445  -0.558523  0  2.390383  0
O  O383  1  0.07149680  0.30749998  0.91108389  1  -1.185542  0  -0.305514  -0.558566  0  2.390379  0
O  O384  1  0.42849469  0.30750745  0.41107952  1  -1.185154  0  -0.305377  -0.558434  0  2.390482  0
O  O385  1  0.07150632  0.80751144  0.08891613  1  -1.185192  0  -0.305349  -0.558324  0  2.390741  0
O  O386  1  0.57150165  0.19249576  0.41108589  1  -1.185229  0  -0.305372  -0.558428  0  2.390268  0
O  O387  1  0.92850934  0.69249193  0.08891251  1  -1.18514  0  -0.305409  -0.558421  0  2.390276  0
O  O388  1  0.60862009  0.83121724  0.63998850  1  -1.193519  0  -0.314656  -0.578023  0  2.40863  0
O  O389  1  0.89138438  0.33121970  0.86001043  1  -1.193686  0  -0.314617  -0.57805  0  2.408843  0
O  O390  1  0.39137937  0.66878347  0.63998581  1  -1.193597  0  -0.314791  -0.578273  0  2.40854  0
O  O391  1  0.10862240  0.16878261  0.86000794  1  -1.193881  0  -0.314702  -0.578037  0  2.409018  0
O  O392  1  0.39137903  0.16878295  0.36001985  1  -1.194001  0  -0.31472  -0.578176  0  2.408966  0
O  O393  1  0.10861263  0.66878491  0.13998480  1  -1.193492  0  -0.314613  -0.578106  0  2.408932  0
O  O394  1  0.60861834  0.33121948  0.36001984  1  -1.194044  0  -0.314657  -0.578019  0  2.409002  0
O  O395  1  0.89138164  0.83121482  0.13998382  1  -1.193799  0  -0.314726  -0.578156  0  2.408618  0
O  O396  1  0.92613752  0.69697614  0.20345329  1  -1.189278  0  -0.309572  -0.568312  0  2.376587  0
O  O397  1  0.57386163  0.19696666  0.29654938  1  -1.189164  0  -0.3095  -0.568379  0  2.376588  0
O  O398  1  0.07385142  0.80302180  0.20345764  1  -1.189129  0  -0.309571  -0.56825  0  2.376465  0
O  O399  1  0.42615721  0.30301327  0.29654144  1  -1.189085  0  -0.309608  -0.568292  0  2.376298  0
O  O400  1  0.07385879  0.30303123  0.79654542  1  -1.189074  0  -0.309599  -0.568387  0  2.376677  0
O  O401  1  0.42615152  0.80303463  0.70345549  1  -1.189101  0  -0.309503  -0.568299  0  2.376856  0
O  O402  1  0.92615331  0.19697950  0.79654260  1  -1.189329  0  -0.309501  -0.568155  0  2.376702  0
O  O403  1  0.57385314  0.69697588  0.70345495  1  -1.189312  0  -0.309486  -0.568177  0  2.376666  0
