# generated using pymatgen
data_Pr2Cu5H32C42I4N7O16
_symmetry_space_group_name_H-M   'P 1'
_cell_length_a   9.26553050
_cell_length_b   20.92912688
_cell_length_c   30.41785743
_cell_angle_alpha   90.00014862
_cell_angle_beta   89.99985249
_cell_angle_gamma   89.99962693
_symmetry_Int_Tables_number   1
_chemical_formula_structural   Pr2Cu5H32C42I4N7O16
_chemical_formula_sum   'Pr8 Cu20 H128 C168 I16 N28 O64'
_cell_volume   5898.61458920
_cell_formula_units_Z   4
loop_
 _symmetry_equiv_pos_site_id
 _symmetry_equiv_pos_as_xyz
  1  'x, y, z'
loop_
 _atom_site_type_symbol
 _atom_site_label
 _atom_site_symmetry_multiplicity
 _atom_site_fract_x
 _atom_site_fract_y
 _atom_site_fract_z
 _atom_site_occupancy
 _atom_site_pbe_bader_charge
 _atom_site_pbe_bader_spin_density
 _atom_site_pbe_cm5_charge
 _atom_site_pbe_ddec_charge
 _atom_site_pbe_ddec_spin_density
 _atom_site_pbe_ddec_sum_bond_order
 _atom_site_pbe_magmom
Pr  Pr0  1  0.99973936  0.08801366  0.99338687  1  2.300124  0  1.503931  2.231021  0  2.042088  0
Pr  Pr1  1  0.50027668  0.91198474  0.49338382  1  2.300115  0  1.503867  2.231055  0  2.042437  0
Pr  Pr2  1  0.00027310  0.58801450  0.50661280  1  2.300137  0  1.503926  2.231037  0  2.042429  0
Pr  Pr3  1  0.49972225  0.41198494  0.00661306  1  2.30017  0  1.50394  2.231068  0  2.042123  0
Pr  Pr4  1  0.47287031  0.10595402  0.99558055  1  2.301383  0  1.487244  2.223615  0  1.987551  0
Pr  Pr5  1  0.02712634  0.89404632  0.49558368  1  2.301226  0  1.487257  2.22361  0  1.987069  0
Pr  Pr6  1  0.52710843  0.60595285  0.50441686  1  2.301282  0  1.487253  2.223655  0  1.987156  0
Pr  Pr7  1  0.97288472  0.39404467  0.00441612  1  2.301323  0  1.487276  2.223626  0  1.987438  0
Cu  Cu8  1  0.52824244  0.36858887  0.73492236  1  0.545187  0  0.377751  0.234738  0  2.495824  0
Cu  Cu9  1  0.97175741  0.63141525  0.23491843  1  0.545221  0  0.377723  0.234727  0  2.495483  0
Cu  Cu10  1  0.47176697  0.86858263  0.76507814  1  0.545273  0  0.37776  0.234698  0  2.49581  0
Cu  Cu11  1  0.02824564  0.13141684  0.26508058  1  0.545205  0  0.377745  0.234693  0  2.495757  0
Cu  Cu12  1  0.29480247  0.29384506  0.74292525  1  0.370764  0  0.238822  0.132093  0  2.818684  0
Cu  Cu13  1  0.20520061  0.70615193  0.24292331  1  0.370859  0  0.238821  0.132168  0  2.818672  0
Cu  Cu14  1  0.70520697  0.79384242  0.75707314  1  0.370769  0  0.238863  0.132077  0  2.818882  0
Cu  Cu15  1  0.79479594  0.20615175  0.25707484  1  0.37084  0  0.238828  0.132177  0  2.818628  0
Cu  Cu16  1  0.26855420  0.25167644  0.66452884  1  0.496233  0  0.364775  0.206164  0  2.769836  0
Cu  Cu17  1  0.23144198  0.74831786  0.16452893  1  0.496298  0  0.364775  0.206179  0  2.769877  0
Cu  Cu18  1  0.73145477  0.75168119  0.83547441  1  0.495993  0  0.36475  0.206082  0  2.769784  0
Cu  Cu19  1  0.76854964  0.24831853  0.33547226  1  0.496266  0  0.364736  0.206064  0  2.769956  0
Cu  Cu20  1  0.22776570  0.17527687  0.72481837  1  0.256832  0  0.152086  0.095771  0  2.736575  0
Cu  Cu21  1  0.27225048  0.82471814  0.22482152  1  0.257067  0  0.152075  0.095769  0  2.736464  0
Cu  Cu22  1  0.77223253  0.67527745  0.77518277  1  0.256996  0  0.152105  0.095801  0  2.73653  0
Cu  Cu23  1  0.72775944  0.32472061  0.27518145  1  0.257038  0  0.15205  0.095714  0  2.736574  0
Cu  Cu24  1  0.02299119  0.09033718  0.73172452  1  0.537422  0  0.387117  0.21686  0  2.442668  0
Cu  Cu25  1  0.47701522  0.90966264  0.23172766  1  0.537456  0  0.387212  0.216943  0  2.44275  0
Cu  Cu26  1  0.97701261  0.59034192  0.76827286  1  0.537541  0  0.387079  0.216817  0  2.442648  0
Cu  Cu27  1  0.52299345  0.40966281  0.26827448  1  0.537438  0  0.387142  0.216894  0  2.442653  0
H  H28  1  0.98961574  0.15821565  0.89035634  1  0.155487  0  0.112744  0.1168  0  1.073798  0
H  H29  1  0.51040225  0.84177855  0.39036006  1  0.15548  0  0.112711  0.116841  0  1.073706  0
H  H30  1  0.01039030  0.65821923  0.60963984  1  0.155425  0  0.112685  0.116776  0  1.073768  0
H  H31  1  0.48960850  0.34178156  0.10963867  1  0.155363  0  0.112708  0.116842  0  1.073666  0
H  H32  1  0.10335172  0.14556552  0.81566668  1  0.119863  0  0.100945  0.070231  0  1.048924  0
H  H33  1  0.39665723  0.85442363  0.31567076  1  0.119494  0  0.100993  0.070223  0  1.048922  0
H  H34  1  0.89665342  0.64557352  0.68432948  1  0.119426  0  0.101016  0.070235  0  1.048953  0
H  H35  1  0.60335118  0.35442850  0.18432831  1  0.119364  0  0.101004  0.070259  0  1.048948  0
H  H36  1  0.72298132  0.07273636  0.76383727  1  0.096542  0  0.105281  0.08403  0  1.014445  0
H  H37  1  0.77702369  0.92725593  0.26383567  1  0.096523  0  0.105209  0.083997  0  1.014455  0
H  H38  1  0.27702057  0.57274108  0.73616435  1  0.096599  0  0.105205  0.083963  0  1.014459  0
H  H39  1  0.22298581  0.42725780  0.23616354  1  0.096632  0  0.105249  0.084039  0  1.014352  0
H  H40  1  0.59587327  0.08339598  0.83558400  1  0.080981  0  0.10934  0.118823  0  1.018252  0
H  H41  1  0.90412790  0.91660231  0.33558195  1  0.080651  0  0.109297  0.118817  0  1.018214  0
H  H42  1  0.40413278  0.58340150  0.66441829  1  0.080658  0  0.109309  0.118846  0  1.018248  0
H  H43  1  0.09587204  0.41659901  0.16441921  1  0.080723  0  0.109307  0.118797  0  1.018219  0
H  H44  1  0.92844766  0.94886510  0.91266666  1  0.137301  0  0.115712  0.132349  0  1.031283  0
H  H45  1  0.57155719  0.05114351  0.41266991  1  0.137571  0  0.115713  0.132275  0  1.031218  0
H  H46  1  0.07153252  0.44885299  0.58733201  1  0.137342  0  0.115778  0.132348  0  1.03113  0
H  H47  1  0.42842869  0.55114246  0.08733060  1  0.137716  0  0.115675  0.132203  0  1.031288  0
H  H48  1  0.92533054  0.85906336  0.85659492  1  0.106668  0  0.100829  0.074801  0  1.03571  0
H  H49  1  0.57467369  0.14094075  0.35659865  1  0.106794  0  0.100877  0.074854  0  1.035783  0
H  H50  1  0.07466066  0.35905049  0.64340327  1  0.10684  0  0.100843  0.074723  0  1.035847  0
H  H51  1  0.42530655  0.64094183  0.14340103  1  0.107011  0  0.100887  0.07491  0  1.035724  0
H  H52  1  0.52119529  0.79964969  0.89777741  1  0.097604  0  0.108999  0.080258  0  0.999499  0
H  H53  1  0.97880537  0.20035314  0.39777698  1  0.097496  0  0.10896  0.080216  0  0.999583  0
H  H54  1  0.47881730  0.29964840  0.60222724  1  0.097317  0  0.109036  0.080311  0  0.999384  0
H  H55  1  0.02117940  0.70035427  0.10222149  1  0.097284  0  0.109004  0.080236  0  0.999555  0
H  H56  1  0.50401783  0.88937740  0.95286192  1  0.141707  0  0.11747  0.130659  0  0.976112  0
H  H57  1  0.99598776  0.11062706  0.45286066  1  0.141708  0  0.11743  0.130635  0  0.976086  0
H  H58  1  0.49597833  0.38937777  0.54714355  1  0.141898  0  0.117417  0.130519  0  0.976197  0
H  H59  1  0.00399185  0.61062709  0.04713930  1  0.14147  0  0.117432  0.130645  0  0.975974  0
H  H60  1  0.85583988  0.95399913  0.11669709  1  0.091004  0  0.110758  0.118362  0  1.017121  0
H  H61  1  0.64415017  0.04599403  0.61670266  1  0.090758  0  0.110807  0.118451  0  1.017119  0
H  H62  1  0.14414655  0.45400273  0.38330085  1  0.090659  0  0.110785  0.118437  0  1.017111  0
H  H63  1  0.35584780  0.54599957  0.88330220  1  0.090941  0  0.110756  0.118417  0  1.017159  0
H  H64  1  0.73507635  0.89357884  0.17748210  1  0.089828  0  0.107039  0.079147  0  1.011473  0
H  H65  1  0.76490456  0.10641073  0.67748899  1  0.090007  0  0.106992  0.079051  0  1.011561  0
H  H66  1  0.26490666  0.39358521  0.32251441  1  0.089994  0  0.107005  0.079065  0  1.011491  0
H  H67  1  0.23509036  0.60641256  0.82251367  1  0.089968  0  0.107002  0.079021  0  1.011562  0
H  H68  1  0.38666020  0.01815773  0.17748902  1  0.121717  0  0.105391  0.079886  0  1.019039  0
H  H69  1  0.11333803  0.98184666  0.67748773  1  0.121818  0  0.105384  0.079855  0  1.018979  0
H  H70  1  0.61333480  0.51815655  0.32250913  1  0.121872  0  0.105384  0.079925  0  1.018974  0
H  H71  1  0.88666541  0.48184599  0.82251067  1  0.12186  0  0.105409  0.079932  0  1.018972  0
H  H72  1  0.49242728  0.08194941  0.11525093  1  0.129474  0  0.11526  0.120913  0  1.029544  0
H  H73  1  0.00756931  0.91805331  0.61525059  1  0.129502  0  0.115287  0.120944  0  1.029553  0
H  H74  1  0.50755815  0.58194592  0.38474668  1  0.129665  0  0.115301  0.120964  0  1.029581  0
H  H75  1  0.99242750  0.41805256  0.88474934  1  0.129473  0  0.115257  0.120906  0  1.029522  0
H  H76  1  0.43533230  0.16594967  0.87935481  1  0.160467  0  0.114738  0.134118  0  1.039209  0
H  H77  1  0.06466533  0.83405118  0.37935156  1  0.159461  0  0.114744  0.134129  0  1.039207  0
H  H78  1  0.56465959  0.66595265  0.62064336  1  0.160727  0  0.114704  0.134071  0  1.039305  0
H  H79  1  0.93533043  0.33404960  0.12064748  1  0.159459  0  0.114756  0.134166  0  1.039254  0
H  H80  1  0.45687454  0.20548005  0.80137104  1  0.084363  0  0.098805  0.073849  0  1.037886  0
H  H81  1  0.04313560  0.79451335  0.30136906  1  0.08397  0  0.098822  0.073866  0  1.037949  0
H  H82  1  0.54312324  0.70548577  0.69862654  1  0.084204  0  0.09886  0.073878  0  1.03789  0
H  H83  1  0.95686720  0.29451534  0.19863024  1  0.083954  0  0.098792  0.073817  0  1.037917  0
H  H84  1  0.10607771  0.32605513  0.81621092  1  0.078048  0  0.103749  0.078767  0  1.021424  0
H  H85  1  0.39393879  0.67394167  0.31620943  1  0.078007  0  0.103724  0.078707  0  1.021192  0
H  H86  1  0.89392802  0.82605262  0.68378687  1  0.077649  0  0.103788  0.078833  0  1.02138  0
H  H87  1  0.60607011  0.17394271  0.18378801  1  0.078215  0  0.103737  0.078691  0  1.021397  0
H  H88  1  0.06103653  0.28773984  0.89358618  1  0.161002  0  0.11373  0.136963  0  1.034507  0
H  H89  1  0.43896745  0.71226155  0.39358505  1  0.161041  0  0.113732  0.136987  0  1.034502  0
H  H90  1  0.93895788  0.78773786  0.60641188  1  0.161102  0  0.113703  0.13689  0  1.034559  0
H  H91  1  0.56103117  0.21226291  0.10641410  1  0.161015  0  0.113703  0.136978  0  1.034507  0
H  H92  1  0.83809753  0.27333910  0.85746793  1  0.10549  0  0.107862  0.116377  0  1.023302  0
H  H93  1  0.66192936  0.72667218  0.35746836  1  0.105352  0  0.107889  0.116434  0  1.023354  0
H  H94  1  0.16192732  0.77333663  0.64252977  1  0.10551  0  0.10787  0.116451  0  1.023319  0
H  H95  1  0.33806905  0.22667049  0.14252983  1  0.105394  0  0.107919  0.11643  0  1.02331  0
H  H96  1  0.73895721  0.28198208  0.78146887  1  0.083351  0  0.097197  0.077153  0  1.030613  0
H  H97  1  0.76105413  0.71803082  0.28146822  1  0.08316  0  0.09719  0.077294  0  1.030437  0
H  H98  1  0.26106103  0.78197484  0.71852950  1  0.083379  0  0.097177  0.077202  0  1.030618  0
H  H99  1  0.23894117  0.21803019  0.21852963  1  0.08318  0  0.097152  0.077231  0  1.030497  0
H  H100  1  0.47763577  0.43473853  0.81625624  1  0.10804  0  0.10061  0.075422  0  1.035983  0
H  H101  1  0.02233863  0.56525969  0.31624926  1  0.10808  0  0.100665  0.075513  0  1.036034  0
H  H102  1  0.52236620  0.93473566  0.68374536  1  0.108037  0  0.10063  0.075442  0  1.036109  0
H  H103  1  0.97765351  0.06526014  0.18374864  1  0.108161  0  0.100644  0.075499  0  1.035916  0
H  H104  1  0.56076833  0.43054918  0.89408319  1  0.158034  0  0.116478  0.128562  0  1.041986  0
H  H105  1  0.93923235  0.56944885  0.39408049  1  0.158135  0  0.116526  0.128613  0  1.04183  0
H  H106  1  0.43924341  0.93055008  0.60591611  1  0.157856  0  0.116459  0.128627  0  1.041962  0
H  H107  1  0.06076189  0.06945165  0.10591841  1  0.158086  0  0.116503  0.128595  0  1.041956  0
H  H108  1  0.93694397  0.46960140  0.64818245  1  0.090233  0  0.111356  0.123335  0  1.004117  0
H  H109  1  0.56305229  0.53040000  0.14818097  1  0.090169  0  0.111392  0.12334  0  1.004201  0
H  H110  1  0.06306612  0.96960193  0.85181757  1  0.090414  0  0.111352  0.123286  0  1.004028  0
H  H111  1  0.43695440  0.03040312  0.35181688  1  0.090077  0  0.111373  0.123363  0  1.004287  0
H  H112  1  0.82491719  0.40070630  0.70579037  1  0.065338  0  0.107361  0.082252  0  1.003231  0
H  H113  1  0.67507427  0.59929197  0.20579089  1  0.065251  0  0.107355  0.08222  0  1.003219  0
H  H114  1  0.17509391  0.90070772  0.79420821  1  0.065404  0  0.10735  0.0823  0  1.003334  0
H  H115  1  0.32493141  0.09929807  0.29420707  1  0.065008  0  0.10739  0.082383  0  1.003164  0
H  H116  1  0.41216355  0.44678805  0.66382805  1  0.08366  0  0.097201  0.077657  0  1.050246  0
H  H117  1  0.08783696  0.55320530  0.16383119  1  0.083788  0  0.097222  0.077632  0  1.050322  0
H  H118  1  0.58784796  0.94678366  0.83617127  1  0.083456  0  0.097189  0.077572  0  1.050293  0
H  H119  1  0.91217371  0.05321320  0.33617031  1  0.083796  0  0.097188  0.077688  0  1.050161  0
H  H120  1  0.50941084  0.51500564  0.60249831  1  0.156239  0  0.114673  0.123484  0  1.046824  0
H  H121  1  0.99059228  0.48498746  0.10249970  1  0.157024  0  0.114722  0.12359  0  1.04676  0
H  H122  1  0.49060378  0.01500305  0.89750123  1  0.156347  0  0.114698  0.123519  0  1.046939  0
H  H123  1  0.00941744  0.98499453  0.39750093  1  0.156364  0  0.114634  0.123411  0  1.046817  0
H  H124  1  0.47895398  0.07914224  0.56543254  1  0.125562  0  0.118917  0.130929  0  0.997148  0
H  H125  1  0.02105382  0.92085647  0.06543671  1  0.125636  0  0.118827  0.130774  0  0.997324  0
H  H126  1  0.52104242  0.57914988  0.93456778  1  0.126457  0  0.118943  0.130955  0  0.997204  0
H  H127  1  0.97894606  0.42085930  0.43456445  1  0.125652  0  0.118822  0.130753  0  0.997248  0
H  H128  1  0.48129402  0.16991679  0.62079845  1  0.125628  0  0.099683  0.073842  0  1.028698  0
H  H129  1  0.01871224  0.83007974  0.12080181  1  0.125512  0  0.099722  0.073957  0  1.028574  0
H  H130  1  0.51870321  0.66992709  0.87920433  1  0.125512  0  0.099771  0.074093  0  1.028571  0
H  H131  1  0.98128789  0.33008187  0.37919952  1  0.125546  0  0.0997  0.073876  0  1.028687  0
H  H132  1  0.03540370  0.17126389  0.62764132  1  0.105326  0  0.099534  0.072154  0  1.036187  0
H  H133  1  0.46460574  0.82873648  0.12764564  1  0.105086  0  0.099616  0.072304  0  1.036079  0
H  H134  1  0.96459782  0.67126094  0.87236080  1  0.105184  0  0.099554  0.072213  0  1.036257  0
H  H135  1  0.53539117  0.32873749  0.37235602  1  0.105096  0  0.099616  0.072281  0  1.036128  0
H  H136  1  0.01644401  0.07783470  0.57537688  1  0.103404  0  0.112737  0.123616  0  1.001629  0
H  H137  1  0.48357558  0.92216787  0.07538201  1  0.103223  0  0.112762  0.123505  0  1.001471  0
H  H138  1  0.98355134  0.57783046  0.92462442  1  0.103384  0  0.112737  0.123583  0  1.001618  0
H  H139  1  0.51641887  0.42216960  0.42461982  1  0.103114  0  0.112775  0.123604  0  1.001514  0
H  H140  1  0.90222391  0.22600629  0.03791902  1  0.647636  0  0.308063  0.418024  0  0.906438  0
H  H141  1  0.59778083  0.77399183  0.53791539  1  0.647646  0  0.308099  0.418162  0  0.906225  0
H  H142  1  0.09777343  0.72600952  0.46208213  1  0.647597  0  0.308083  0.418094  0  0.906298  0
H  H143  1  0.40222458  0.27399165  0.96208231  1  0.647616  0  0.308126  0.418166  0  0.906225  0
H  H144  1  0.80156847  0.16452132  0.04473572  1  0.645182  0  0.302026  0.382041  0  0.962761  0
H  H145  1  0.69843298  0.83547444  0.54473410  1  0.645263  0  0.302083  0.382164  0  0.962598  0
H  H146  1  0.19842654  0.66452041  0.45526565  1  0.645235  0  0.302071  0.382052  0  0.962754  0
H  H147  1  0.30156937  0.33547738  0.95526634  1  0.645254  0  0.302044  0.382027  0  0.962769  0
H  H148  1  0.70970336  0.20543415  0.97941833  1  0.638402  0  0.319153  0.41031  0  0.906794  0
H  H149  1  0.79030633  0.79456660  0.47941845  1  0.638231  0  0.319161  0.410374  0  0.906723  0
H  H150  1  0.29028471  0.70543611  0.52057991  1  0.638425  0  0.319164  0.410413  0  0.906664  0
H  H151  1  0.20970080  0.29456625  0.02058085  1  0.638413  0  0.319194  0.410396  0  0.906676  0
H  H152  1  0.60568929  0.25106122  0.00798411  1  0.652601  0  0.316023  0.412545  0  0.910496  0
H  H153  1  0.89432757  0.74894013  0.50798547  1  0.652863  0  0.315977  0.412521  0  0.910559  0
H  H154  1  0.39430660  0.75105988  0.49201610  1  0.652535  0  0.315993  0.412509  0  0.910539  0
H  H155  1  0.10568361  0.24893805  0.99201548  1  0.652856  0  0.315971  0.412484  0  0.910567  0
C  C156  1  0.72130421  0.12393993  0.91448271  1  1.574877  0  0.233405  0.620147  0  4.168604  0
C  C157  1  0.77873192  0.87606057  0.41447937  1  1.574731  0  0.233523  0.620567  0  4.168281  0
C  C158  1  0.27871635  0.62393834  0.58551966  1  1.574685  0  0.233508  0.620683  0  4.168096  0
C  C159  1  0.22127509  0.37606092  0.08552106  1  1.574771  0  0.233548  0.620597  0  4.168578  0
C  C160  1  0.78517988  0.12081969  0.86899624  1  0.01754  0  0.006508  0.013416  0  3.90699  0
C  C161  1  0.71483180  0.87917729  0.36899394  1  0.017497  0  0.006594  0.013184  0  3.907089  0
C  C162  1  0.21483102  0.62082564  0.63100546  1  0.017167  0  0.006472  0.013134  0  3.907243  0
C  C163  1  0.28517084  0.37918049  0.13100485  1  0.017434  0  0.006461  0.013067  0  3.906904  0
C  C164  1  0.92846569  0.13950587  0.86271469  1  -0.124463  0  -0.075377  -0.128461  0  3.939403  0
C  C165  1  0.57154605  0.86048679  0.36271543  1  -0.123963  0  -0.075394  -0.128499  0  3.939501  0
C  C166  1  0.07153846  0.63951130  0.63728507  1  -0.123915  0  -0.075268  -0.128349  0  3.939074  0
C  C167  1  0.42847197  0.36049103  0.13728431  1  -0.124726  0  -0.075305  -0.128394  0  3.9391  0
C  C168  1  0.99104193  0.13264111  0.82161808  1  0.491355  0  0.036248  0.086763  0  3.920997  0
C  C169  1  0.50897016  0.86735044  0.32162053  1  0.491554  0  0.036314  0.087008  0  3.920953  0
C  C170  1  0.00895261  0.63264305  0.67838102  1  0.492188  0  0.036267  0.086925  0  3.920832  0
C  C171  1  0.49104669  0.36735609  0.17837792  1  0.492908  0  0.036274  0.086853  0  3.920928  0
C  C172  1  0.77893037  0.09199657  0.79245532  1  0.436963  0  0.035725  0.081791  0  3.927744  0
C  C173  1  0.72107440  0.90799726  0.29245209  1  0.436981  0  0.035829  0.081934  0  3.927511  0
C  C174  1  0.22107988  0.59200422  0.70754633  1  0.436213  0  0.035785  0.081864  0  3.927192  0
C  C175  1  0.27893429  0.40799933  0.20754610  1  0.43685  0  0.035756  0.081706  0  3.927018  0
C  C176  1  0.70837510  0.09789714  0.83266398  1  0.015175  0  -0.077023  -0.130699  0  3.921332  0
C  C177  1  0.79163149  0.90210019  0.33266001  1  0.015302  0  -0.077021  -0.130636  0  3.921155  0
C  C178  1  0.29163505  0.59790252  0.66733539  1  0.015733  0  -0.07701  -0.130623  0  3.921335  0
C  C179  1  0.20837082  0.40209897  0.16733750  1  0.014862  0  -0.07701  -0.130467  0  3.921113  0
C  C180  1  0.71127128  0.98189365  0.96676296  1  1.603218  0  0.235317  0.643618  0  4.186712  0
C  C181  1  0.78875578  0.01811039  0.46676138  1  1.603231  0  0.234977  0.643076  0  4.187623  0
C  C182  1  0.28873107  0.48188835  0.53323938  1  1.603852  0  0.235062  0.643156  0  4.187328  0
C  C183  1  0.21125001  0.51810737  0.03323677  1  1.602791  0  0.234972  0.643006  0  4.187359  0
C  C184  1  0.71644476  0.92497291  0.93672726  1  -0.018424  0  0.006985  0.015609  0  3.922763  0
C  C185  1  0.78355125  0.07503484  0.43672743  1  -0.018615  0  0.006959  0.015733  0  3.922604  0
C  C186  1  0.28354116  0.42496726  0.56327498  1  -0.01831  0  0.007005  0.01556  0  3.92269  0
C  C187  1  0.21641593  0.57503335  0.06327214  1  0.036918  0  0.007032  0.016018  0  3.922526  0
C  C188  1  0.83725508  0.91615627  0.90986338  1  0.028394  0  -0.074403  -0.135347  0  3.913389  0
C  C189  1  0.66275087  0.08385090  0.40986267  1  0.028024  0  -0.07437  -0.135051  0  3.913317  0
C  C190  1  0.16273206  0.41614677  0.59013753  1  0.028087  0  -0.074537  -0.135229  0  3.913511  0
C  C191  1  0.33722697  0.58385013  0.09013625  1  -0.02698  0  -0.074309  -0.135168  0  3.913332  0
C  C192  1  0.83597339  0.86691240  0.87931878  1  0.435034  0  0.03594  0.080682  0  3.947924  0
C  C193  1  0.66402849  0.13309370  0.37932111  1  0.435697  0  0.035933  0.080537  0  3.948347  0
C  C194  1  0.16401554  0.36690301  0.62067974  1  0.435372  0  0.036043  0.080833  0  3.948107  0
C  C195  1  0.33594970  0.63309018  0.12067987  1  0.434326  0  0.03595  0.08064  0  3.948199  0
C  C196  1  0.60927308  0.83361515  0.90233986  1  0.452591  0  0.037148  0.080284  0  3.942938  0
C  C197  1  0.89072861  0.16638817  0.40233944  1  0.452637  0  0.037092  0.080204  0  3.943267  0
C  C198  1  0.39072929  0.33361267  0.59766518  1  0.452357  0  0.036934  0.079985  0  3.94292  0
C  C199  1  0.10925018  0.66638664  0.09766226  1  0.452477  0  0.037076  0.080306  0  3.942995  0
C  C200  1  0.60037294  0.88277447  0.93285192  1  -0.088208  0  -0.076581  -0.139921  0  3.963226  0
C  C201  1  0.89963605  0.11723040  0.43285042  1  -0.088135  0  -0.076442  -0.139862  0  3.963088  0
C  C202  1  0.39962871  0.38277136  0.56715223  1  -0.088221  0  -0.07631  -0.139453  0  3.962656  0
C  C203  1  0.10034670  0.61723070  0.06714889  1  -0.088197  0  -0.076534  -0.140006  0  3.962974  0
C  C204  1  0.74907133  0.05785384  0.07288260  1  1.58135  0  0.235112  0.624595  0  4.15857  0
C  C205  1  0.75094067  0.94214107  0.57288047  1  1.581034  0  0.235038  0.624607  0  4.15832  0
C  C206  1  0.25092524  0.55785745  0.42711891  1  1.58173  0  0.235003  0.624456  0  4.158355  0
C  C207  1  0.24906443  0.44214789  0.92711852  1  1.581296  0  0.235192  0.624769  0  4.158194  0
C  C208  1  0.68210818  0.02238907  0.11081853  1  -0.025712  0  0.007365  0.011169  0  3.90888  0
C  C209  1  0.81788191  0.97760741  0.61081839  1  -0.025698  0  0.007422  0.011358  0  3.908842  0
C  C210  1  0.31787704  0.52239283  0.38918061  1  -0.026087  0  0.007422  0.011404  0  3.908909  0
C  C211  1  0.18210971  0.47760997  0.88918165  1  -0.025666  0  0.007352  0.011154  0  3.908982  0
C  C212  1  0.75110206  0.96913085  0.12911387  1  -0.064652  0  -0.076664  -0.133319  0  3.943256  0
C  C213  1  0.74889220  0.03086427  0.62911439  1  -0.064303  0  -0.07671  -0.133578  0  3.943449  0
C  C214  1  0.24888739  0.46913219  0.37088476  1  -0.063966  0  -0.076622  -0.133548  0  3.943404  0
C  C215  1  0.25111138  0.53087102  0.87089077  1  -0.064824  0  -0.076587  -0.133425  0  3.943432  0
C  C216  1  0.68486958  0.93585346  0.16306398  1  0.481857  0  0.034066  0.071871  0  3.945775  0
C  C217  1  0.81512224  0.06414418  0.66306353  1  0.481487  0  0.034123  0.072123  0  3.946008  0
C  C218  1  0.31512036  0.43585353  0.33693820  1  0.481402  0  0.034064  0.07211  0  3.946084  0
C  C219  1  0.18488086  0.56414525  0.83693873  1  0.481637  0  0.03415  0.072223  0  3.946075  0
C  C220  1  0.49062418  0.00566730  0.16300735  1  0.408089  0  0.039237  0.084562  0  3.923889  0
C  C221  1  0.00936769  0.99432939  0.66300682  1  0.408041  0  0.039208  0.084542  0  3.923924  0
C  C222  1  0.50936776  0.50567078  0.33699111  1  0.407923  0  0.039222  0.084441  0  3.923653  0
C  C223  1  0.99063124  0.49433372  0.83699522  1  0.407895  0  0.039052  0.084262  0  3.924198  0
C  C224  1  0.54932982  0.04081912  0.12861736  1  0.027727  0  -0.068161  -0.12177  0  3.926434  0
C  C225  1  0.95066660  0.95918508  0.62861477  1  0.027569  0  -0.068252  -0.121909  0  3.926727  0
C  C226  1  0.45065728  0.54081334  0.37138543  1  0.027448  0  -0.068227  -0.121866  0  3.926836  0
C  C227  1  0.04933069  0.45918987  0.87138523  1  0.027522  0  -0.068109  -0.121699  0  3.926883  0
C  C228  1  0.22506647  0.19822854  0.93750596  1  1.58343  0  0.241726  0.618734  0  4.185688  0
C  C229  1  0.27492527  0.80176919  0.43750512  1  1.583278  0  0.241778  0.618816  0  4.185667  0
C  C230  1  0.77493682  0.69822974  0.56249062  1  1.583429  0  0.241809  0.61875  0  4.185728  0
C  C231  1  0.72506772  0.30177181  0.06249419  1  1.58342  0  0.241798  0.618803  0  4.185655  0
C  C232  1  0.24368603  0.22264703  0.89156651  1  -0.076772  0  0.00537  0.014789  0  3.919751  0
C  C233  1  0.25631797  0.77734957  0.39156532  1  -0.078152  0  0.005298  0.014718  0  3.919933  0
C  C234  1  0.75632013  0.72264798  0.60843143  1  -0.07652  0  0.005425  0.015073  0  3.919311  0
C  C235  1  0.74367754  0.27735136  0.10843362  1  -0.076907  0  0.005389  0.014939  0  3.919584  0
C  C236  1  0.35874609  0.20046386  0.86601106  1  0.04472  0  -0.07505  -0.133032  0  3.895254  0
C  C237  1  0.14125380  0.79953169  0.36601033  1  0.046307  0  -0.075004  -0.132971  0  3.895159  0
C  C238  1  0.64124961  0.70046953  0.63398552  1  0.044352  0  -0.075096  -0.133172  0  3.894939  0
C  C239  1  0.85874462  0.29953325  0.13398931  1  0.045881  0  -0.075063  -0.133171  0  3.895113  0
C  C240  1  0.37188405  0.22270071  0.82322075  1  0.429292  0  0.034328  0.081494  0  3.939376  0
C  C241  1  0.12812807  0.77729802  0.32321900  1  0.430073  0  0.034319  0.081444  0  3.93939  0
C  C242  1  0.62811024  0.72270467  0.67677653  1  0.42924  0  0.034246  0.08139  0  3.939242  0
C  C243  1  0.87187391  0.27729493  0.17678093  1  0.429717  0  0.034345  0.081539  0  3.939304  0
C  C244  1  0.17375132  0.28951316  0.83138123  1  0.486769  0  0.037619  0.087326  0  3.91603  0
C  C245  1  0.32625210  0.71048321  0.33138117  1  0.486224  0  0.037695  0.087484  0  3.915691  0
C  C246  1  0.82624523  0.78951509  0.66861683  1  0.487  0  0.0376  0.087111  0  3.91595  0
C  C247  1  0.67374762  0.21048304  0.16861732  1  0.486006  0  0.037698  0.087493  0  3.915985  0
C  C248  1  0.14971813  0.26834374  0.87404991  1  -0.043487  0  -0.077448  -0.142648  0  3.910235  0
C  C249  1  0.35028277  0.73165423  0.37404790  1  -0.042907  0  -0.077426  -0.142687  0  3.910485  0
C  C250  1  0.85027333  0.76834687  0.62594713  1  -0.043378  0  -0.077494  -0.14263  0  3.910383  0
C  C251  1  0.64971448  0.23165684  0.12595063  1  -0.043371  0  -0.077436  -0.142724  0  3.910536  0
C  C252  1  0.76888961  0.35131726  0.92815118  1  1.586009  0  0.222313  0.614741  0  4.193482  0
C  C253  1  0.73110971  0.64868663  0.42815043  1  1.586132  0  0.222274  0.614693  0  4.19381  0
C  C254  1  0.23111034  0.85131624  0.57184765  1  1.585173  0  0.222264  0.614572  0  4.193497  0
C  C255  1  0.26887906  0.14868822  0.07184795  1  1.585596  0  0.22234  0.614727  0  4.193825  0
C  C256  1  0.70828885  0.35178646  0.88230675  1  -0.052665  0  0.007419  0.019395  0  3.908456  0
C  C257  1  0.79172057  0.64822442  0.38230595  1  -0.052193  0  0.007441  0.019456  0  3.908514  0
C  C258  1  0.29173053  0.85178019  0.61769142  1  -0.052412  0  0.007449  0.019418  0  3.908506  0
C  C259  1  0.20827252  0.14822589  0.11769177  1  -0.052138  0  0.007378  0.019234  0  3.908934  0
C  C260  1  0.75812130  0.30978983  0.84978994  1  -0.000725  0  -0.080222  -0.139186  0  3.934137  0
C  C261  1  0.74187975  0.69021759  0.34978827  1  -0.0005  0  -0.08034  -0.139273  0  3.934523  0
C  C262  1  0.24188790  0.80978717  0.65020684  1  -0.000515  0  -0.080346  -0.139339  0  3.93417  0
C  C263  1  0.25811487  0.19021664  0.15020920  1  -0.000483  0  -0.080284  -0.139083  0  3.934468  0
C  C264  1  0.70361836  0.31459653  0.80732675  1  0.423798  0  0.031866  0.07681  0  3.936957  0
C  C265  1  0.79639384  0.68541360  0.30732667  1  0.424064  0  0.031886  0.076513  0  3.937115  0
C  C266  1  0.29640049  0.81459100  0.69267102  1  0.423973  0  0.031895  0.076727  0  3.937106  0
C  C267  1  0.20360517  0.18541297  0.19267145  1  0.424138  0  0.031864  0.076552  0  3.937091  0
C  C268  1  0.55778898  0.39979527  0.82686048  1  0.451695  0  0.03618  0.088588  0  3.919776  0
C  C269  1  0.94220687  0.60020633  0.32685914  1  0.45217  0  0.036071  0.088307  0  3.919809  0
C  C270  1  0.44223401  0.89978972  0.67313975  1  0.452286  0  0.036161  0.088455  0  3.919714  0
C  C271  1  0.05778692  0.10020796  0.17313849  1  0.452239  0  0.036141  0.08844  0  3.919385  0
C  C272  1  0.60524535  0.39735036  0.87012649  1  -0.017725  0  -0.07252  -0.127944  0  3.901854  0
C  C273  1  0.89475013  0.60265475  0.37012454  1  -0.018399  0  -0.072433  -0.127804  0  3.901779  0
C  C274  1  0.39476472  0.89734575  0.62987341  1  -0.01827  0  -0.072449  -0.127927  0  3.901764  0
C  C275  1  0.10524794  0.10265607  0.12987212  1  -0.018562  0  -0.072443  -0.127811  0  3.902009  0
C  C276  1  0.79182201  0.53595734  0.58291466  1  1.57422  0  0.227335  0.62518  0  4.175205  0
C  C277  1  0.70816940  0.46403999  0.08291689  1  1.574362  0  0.227422  0.625358  0  4.174642  0
C  C278  1  0.20819877  0.03595372  0.91708591  1  1.57424  0  0.227204  0.625095  0  4.175622  0
C  C279  1  0.29183091  0.96403772  0.41708337  1  1.574415  0  0.227555  0.62541  0  4.174926  0
C  C280  1  0.73096216  0.49667444  0.61994684  1  -0.026945  0  0.003569  0.011969  0  3.913883  0
C  C281  1  0.76903650  0.50332207  0.11994745  1  -0.027108  0  0.003602  0.012148  0  3.913739  0
C  C282  1  0.26905617  0.99667257  0.88005159  1  -0.027174  0  0.003629  0.012001  0  3.913878  0
C  C283  1  0.23098246  0.00332828  0.38005133  1  -0.026566  0  0.003571  0.012136  0  3.91377  0
C  C284  1  0.82012177  0.46456410  0.64986769  1  -0.01786  0  -0.078577  -0.134096  0  3.937661  0
C  C285  1  0.67987017  0.53543444  0.14986842  1  -0.017968  0  -0.078584  -0.134188  0  3.937809  0
C  C286  1  0.17989380  0.96456333  0.85013101  1  -0.017715  0  -0.078548  -0.133978  0  3.937569  0
C  C287  1  0.32013753  0.03543933  0.35013042  1  -0.018058  0  -0.078585  -0.134238  0  3.938143  0
C  C288  1  0.75798947  0.42664294  0.68227660  1  0.460059  0  0.032559  0.077795  0  3.943484  0
C  C289  1  0.74199679  0.57335477  0.18227637  1  0.459981  0  0.032419  0.077767  0  3.943848  0
C  C290  1  0.24202125  0.92664234  0.81772203  1  0.46009  0  0.032569  0.07773  0  3.943814  0
C  C291  1  0.25800387  0.07336258  0.31772385  1  0.460061  0  0.032459  0.077659  0  3.943808  0
C  C292  1  0.52790757  0.45233182  0.65853014  1  0.451081  0  0.032063  0.079937  0  3.934074  0
C  C293  1  0.97209076  0.54766388  0.15853231  1  0.45003  0  0.032034  0.079972  0  3.933912  0
C  C294  1  0.47210493  0.95232779  0.84147183  1  0.451327  0  0.032048  0.080107  0  3.933983  0
C  C295  1  0.02791675  0.04767101  0.34146886  1  0.45075  0  0.032058  0.079915  0  3.933634  0
C  C296  1  0.58184282  0.49036385  0.62496500  1  0.009397  0  -0.076539  -0.13523  0  3.940032  0
C  C297  1  0.91815255  0.50963126  0.12496550  1  0.008682  0  -0.076618  -0.135458  0  3.940068  0
C  C298  1  0.41816912  0.99036296  0.87503375  1  0.008953  0  -0.076542  -0.135246  0  3.94026  0
C  C299  1  0.08185876  0.00963931  0.37503527  1  0.009272  0  -0.07651  -0.135242  0  3.939835  0
C  C300  1  0.24332640  0.01426691  0.53779914  1  1.606491  0  0.234663  0.639315  0  4.176938  0
C  C301  1  0.25665464  0.98573122  0.03780291  1  1.606486  0  0.234826  0.639508  0  4.176657  0
C  C302  1  0.75664289  0.51426872  0.96220402  1  1.606172  0  0.234621  0.639127  0  4.177341  0
C  C303  1  0.74332593  0.48573244  0.46219936  1  1.606563  0  0.234774  0.639298  0  4.177046  0
C  C304  1  0.24733103  0.07187089  0.56714478  1  -0.050403  0  0.006605  0.015974  0  3.925636  0
C  C305  1  0.25268108  0.92812830  0.06715010  1  -0.05123  0  0.006566  0.015893  0  3.925338  0
C  C306  1  0.75265793  0.57187356  0.93285684  1  -0.051485  0  0.006651  0.016091  0  3.925725  0
C  C307  1  0.74731653  0.42812701  0.43285174  1  -0.0508  0  0.006632  0.01597  0  3.925441  0
C  C308  1  0.37965132  0.09870366  0.57914198  1  0.016311  0  -0.074975  -0.136414  0  3.939805  0
C  C309  1  0.12035313  0.90129271  0.07914670  1  0.016705  0  -0.074805  -0.136063  0  3.939726  0
C  C310  1  0.62033940  0.59871383  0.92085772  1  0.015905  0  -0.075005  -0.136402  0  3.940022  0
C  C311  1  0.87964379  0.40129434  0.42085641  1  0.016559  0  -0.074883  -0.136136  0  3.939718  0
C  C312  1  0.38081212  0.14882382  0.60894327  1  0.389115  0  0.032967  0.076335  0  3.953011  0
C  C313  1  0.11920071  0.85117362  0.10894757  1  0.389968  0  0.032922  0.076049  0  3.953246  0
C  C314  1  0.61919189  0.64883340  0.89105783  1  0.38966  0  0.032872  0.075914  0  3.953623  0
C  C315  1  0.88080018  0.35117274  0.39105512  1  0.389653  0  0.033027  0.076304  0  3.953209  0
C  C316  1  0.13084908  0.14933209  0.61302616  1  0.449369  0  0.035201  0.083204  0  3.938641  0
C  C317  1  0.36917020  0.85066966  0.11302895  1  0.449334  0  0.0351  0.082886  0  3.938397  0
C  C318  1  0.86915709  0.64932852  0.88697723  1  0.449439  0  0.035214  0.083027  0  3.938607  0
C  C319  1  0.63083071  0.35066901  0.38697176  1  0.44938  0  0.035153  0.082949  0  3.938724  0
C  C320  1  0.12067638  0.09812399  0.58425092  1  0.009776  0  -0.076364  -0.129238  0  3.940613  0
C  C321  1  0.37933234  0.90188434  0.08425905  1  0.00976  0  -0.076432  -0.128934  0  3.940192  0
C  C322  1  0.87931542  0.59812002  0.91575173  1  0.009931  0  -0.076418  -0.129218  0  3.940801  0
C  C323  1  0.62066026  0.40188097  0.41574438  1  0.009739  0  -0.076516  -0.129195  0  3.940458  0
I  I324  1  0.52402463  0.24262226  0.70536165  1  -0.378475  0  -0.161082  -0.298294  0  2.06172  0
I  I325  1  0.97597331  0.75737936  0.20536222  1  -0.378524  0  -0.161073  -0.298319  0  2.061709  0
I  I326  1  0.47599095  0.74261421  0.79463534  1  -0.378361  0  -0.16108  -0.298264  0  2.06175  0
I  I327  1  0.02401493  0.25738106  0.29463701  1  -0.378438  0  -0.161059  -0.298252  0  2.06178  0
I  I328  1  0.25191142  0.41641258  0.74178723  1  -0.48798  0  -0.244176  -0.406066  0  1.705676  0
I  I329  1  0.24810246  0.58358966  0.24178208  1  -0.487948  0  -0.24418  -0.406098  0  1.705661  0
I  I330  1  0.74810377  0.91640743  0.75821237  1  -0.488073  0  -0.244181  -0.406077  0  1.705752  0
I  I331  1  0.75191316  0.08358531  0.25821619  1  -0.487902  0  -0.244192  -0.40613  0  1.705676  0
I  I332  1  0.01565432  0.24794573  0.71093260  1  -0.358637  0  -0.154821  -0.260608  0  1.960056  0
I  I333  1  0.48434039  0.75203394  0.21092789  1  -0.358761  0  -0.154827  -0.260645  0  1.960094  0
I  I334  1  0.98434607  0.74794623  0.78907032  1  -0.358653  0  -0.154846  -0.260632  0  1.960126  0
I  I335  1  0.51565549  0.25204424  0.28907166  1  -0.358739  0  -0.154818  -0.260637  0  1.960136  0
I  I336  1  0.30342642  0.06574714  0.74346322  1  -0.403825  0  -0.209102  -0.298331  0  1.837561  0
I  I337  1  0.19657989  0.93424746  0.24346202  1  -0.403762  0  -0.209123  -0.298334  0  1.837595  0
I  I338  1  0.69658205  0.56574452  0.75654102  1  -0.403895  0  -0.209116  -0.29832  0  1.837527  0
I  I339  1  0.80342194  0.43425156  0.25653885  1  -0.403863  0  -0.209076  -0.29829  0  1.837645  0
N  N340  1  0.91913379  0.10816425  0.78682372  1  -1.207875  0  -0.365235  -0.185565  0  3.672275  0
N  N341  1  0.58087102  0.89182812  0.28682320  1  -1.208174  0  -0.365328  -0.185809  0  3.672139  0
N  N342  1  0.08086758  0.60817472  0.71317533  1  -1.208093  0  -0.365281  -0.185701  0  3.671985  0
N  N343  1  0.41914223  0.39182790  0.21317463  1  -1.207986  0  -0.365246  -0.185571  0  3.671408  0
N  N344  1  0.72426397  0.82593043  0.87560058  1  -1.223971  0  -0.366325  -0.18278  0  3.671009  0
N  N345  1  0.77573363  0.17407518  0.37560257  1  -1.224768  0  -0.366364  -0.182802  0  3.671345  0
N  N346  1  0.27573096  0.32592360  0.62440050  1  -1.224334  0  -0.366395  -0.182945  0  3.671182  0
N  N347  1  0.22425152  0.67407533  0.12439816  1  -1.223499  0  -0.366455  -0.183052  0  3.671339  0
N  N348  1  0.55554705  0.95329253  0.18006393  1  -1.199639  0  -0.367123  -0.192253  0  3.692344  0
N  N349  1  0.94443599  0.04670135  0.68006499  1  -1.199325  0  -0.367134  -0.192312  0  3.692434  0
N  N350  1  0.44442968  0.45329551  0.31993433  1  -1.199149  0  -0.367135  -0.192343  0  3.692336  0
N  N351  1  0.05557383  0.54670560  0.81993823  1  -1.199107  0  -0.36707  -0.192251  0  3.692386  0
N  N352  1  0.28092301  0.26631992  0.80593657  1  -1.230424  0  -0.363708  -0.172371  0  3.650783  0
N  N353  1  0.21908710  0.73367683  0.30593401  1  -1.230074  0  -0.363797  -0.172462  0  3.650607  0
N  N354  1  0.71908252  0.76631605  0.69406309  1  -1.230318  0  -0.363668  -0.172116  0  3.650675  0
N  N355  1  0.78091444  0.23367597  0.19406485  1  -1.230131  0  -0.363831  -0.172493  0  3.650703  0
N  N356  1  0.60501714  0.35913602  0.79543184  1  -1.209073  0  -0.362434  -0.191137  0  3.659325  0
N  N357  1  0.89497789  0.64086929  0.29543095  1  -1.209361  0  -0.36239  -0.190916  0  3.658984  0
N  N358  1  0.39499241  0.85913312  0.70456798  1  -1.209283  0  -0.362371  -0.190908  0  3.659224  0
N  N359  1  0.10501422  0.14087042  0.20456742  1  -1.209344  0  -0.362376  -0.190983  0  3.658811  0
N  N360  1  0.61337501  0.41999261  0.68681182  1  -1.213215  0  -0.364196  -0.187731  0  3.663667  0
N  N361  1  0.88661014  0.58000416  0.18681312  1  -1.211985  0  -0.364087  -0.187614  0  3.663488  0
N  N362  1  0.38663797  0.91999110  0.81318779  1  -1.213272  0  -0.364204  -0.187841  0  3.663618  0
N  N363  1  0.11338719  0.08000854  0.31318612  1  -1.212803  0  -0.364129  -0.187638  0  3.663449  0
N  N364  1  0.25865480  0.17387142  0.62586958  1  -1.222855  0  -0.363357  -0.18151  0  3.651987  0
N  N365  1  0.24135357  0.82612752  0.12587242  1  -1.222929  0  -0.363381  -0.181524  0  3.651774  0
N  N366  1  0.74135208  0.67387485  0.87413386  1  -1.22277  0  -0.363398  -0.181333  0  3.651903  0
N  N367  1  0.75864445  0.32612884  0.37412890  1  -1.222886  0  -0.3634  -0.181498  0  3.651944  0
O  O368  1  0.80650041  0.13593033  0.94648001  1  -1.210494  0  -0.381043  -0.698554  0  2.334675  0
O  O369  1  0.69352790  0.86406933  0.44648263  1  -1.209821  0  -0.381228  -0.699002  0  2.334253  0
O  O370  1  0.19350703  0.63592171  0.55351646  1  -1.209703  0  -0.381139  -0.698987  0  2.334083  0
O  O371  1  0.30648252  0.36406884  0.05351975  1  -1.209973  0  -0.38118  -0.698974  0  2.334386  0
O  O372  1  0.58709500  0.11433581  0.91896959  1  -1.184814  0  -0.35269  -0.622571  0  2.283415  0
O  O373  1  0.91292058  0.88566471  0.41896846  1  -1.185213  0  -0.352633  -0.622502  0  2.283618  0
O  O374  1  0.41290736  0.61434051  0.58103276  1  -1.185275  0  -0.352659  -0.622629  0  2.28383  0
O  O375  1  0.08708628  0.38566542  0.08103001  1  -1.185124  0  -0.352695  -0.622616  0  2.283889  0
O  O376  1  0.83164389  0.00471991  0.97833847  1  -1.200009  0  -0.406932  -0.673055  0  2.348145  0
O  O377  1  0.66833451  0.99527271  0.47834036  1  -1.199249  0  -0.407089  -0.673242  0  2.347288  0
O  O378  1  0.16831907  0.50471650  0.52166237  1  -1.199792  0  -0.40703  -0.67315  0  2.347692  0
O  O379  1  0.33162758  0.49527249  0.02165831  1  -1.199759  0  -0.406938  -0.672966  0  2.347992  0
O  O380  1  0.58789100  0.00341538  0.97689238  1  -1.191583  0  -0.38581  -0.659601  0  2.287828  0
O  O381  1  0.91208633  0.99659300  0.47688322  1  -1.191974  0  -0.385301  -0.658904  0  2.289347  0
O  O382  1  0.41207090  0.50341127  0.52311602  1  -1.192056  0  -0.385473  -0.659057  0  2.288645  0
O  O383  1  0.08787466  0.49658919  0.02311775  1  -1.191256  0  -0.38547  -0.659126  0  2.288327  0
O  O384  1  0.88015299  0.04688184  0.06422940  1  -1.17962  0  -0.349739  -0.614335  0  2.263061  0
O  O385  1  0.61983642  0.95312259  0.56422476  1  -1.179528  0  -0.349752  -0.614492  0  2.262352  0
O  O386  1  0.11982756  0.54687917  0.43577406  1  -1.17965  0  -0.349759  -0.614384  0  2.262508  0
O  O387  1  0.38015772  0.45312428  0.93576965  1  -1.179527  0  -0.349808  -0.614475  0  2.262763  0
O  O388  1  0.67026938  0.09780445  0.05172832  1  -1.211915  0  -0.379787  -0.706616  0  2.335012  0
O  O389  1  0.82973417  0.90219945  0.55173000  1  -1.211717  0  -0.379683  -0.706462  0  2.335539  0
O  O390  1  0.32970718  0.59780075  0.44827359  1  -1.212301  0  -0.379722  -0.706473  0  2.335492  0
O  O391  1  0.17027583  0.40220610  0.94827780  1  -1.211941  0  -0.37987  -0.706675  0  2.335305  0
O  O392  1  0.90053412  0.17874154  0.03762277  1  -1.297296  0  -0.649271  -0.863158  0  2.08515  0
O  O393  1  0.59946846  0.82125849  0.53761890  1  -1.297391  0  -0.649357  -0.863431  0  2.084912  0
O  O394  1  0.09946391  0.67874238  0.46238027  1  -1.297303  0  -0.649343  -0.863264  0  2.085052  0
O  O395  1  0.40053410  0.32125736  0.96237955  1  -1.297315  0  -0.649333  -0.863276  0  2.085097  0
O  O396  1  0.09864633  0.18500460  0.95094219  1  -1.193692  0  -0.348151  -0.635712  0  2.29597  0
O  O397  1  0.40136688  0.81499032  0.45094423  1  -1.193696  0  -0.348331  -0.635958  0  2.295462  0
O  O398  1  0.90136902  0.68500777  0.54905536  1  -1.19388  0  -0.348251  -0.635822  0  2.296001  0
O  O399  1  0.59864642  0.31499182  0.04905675  1  -1.193661  0  -0.348242  -0.635827  0  2.295902  0
O  O400  1  0.33864003  0.19493540  0.96085108  1  -1.208756  0  -0.379639  -0.66872  0  2.383765  0
O  O401  1  0.16137418  0.80506098  0.46084738  1  -1.208601  0  -0.379484  -0.668545  0  2.38421  0
O  O402  1  0.66137517  0.69493732  0.53914681  1  -1.208749  0  -0.379566  -0.668725  0  2.384005  0
O  O403  1  0.83863927  0.30506128  0.03915095  1  -1.20865  0  -0.379607  -0.668705  0  2.383846  0
O  O404  1  0.61318208  0.21026251  0.99210861  1  -1.279876  0  -0.630309  -0.838391  0  2.080074  0
O  O405  1  0.88682534  0.78973733  0.49210832  1  -1.279938  0  -0.630283  -0.838421  0  2.080006  0
O  O406  1  0.38681131  0.71026415  0.50789325  1  -1.279814  0  -0.63031  -0.838466  0  2.079848  0
O  O407  1  0.11318078  0.28973769  0.00789097  1  -1.280145  0  -0.630314  -0.838392  0  2.080028  0
O  O408  1  0.69312356  0.37337712  0.95964194  1  -1.219027  0  -0.408077  -0.741729  0  2.43624  0
O  O409  1  0.80686795  0.62661830  0.45963813  1  -1.219277  0  -0.408127  -0.741844  0  2.436564  0
O  O410  1  0.30688039  0.87338006  0.54035758  1  -1.218652  0  -0.408067  -0.741706  0  2.436026  0
O  O411  1  0.19313733  0.12662046  0.04035955  1  -1.219049  0  -0.408156  -0.741827  0  2.43692  0
O  O412  1  0.89805449  0.33259915  0.93375374  1  -1.185018  0  -0.351649  -0.611689  0  2.195041  0
O  O413  1  0.60194910  0.66740668  0.43375214  1  -1.185208  0  -0.351587  -0.61165  0  2.195148  0
O  O414  1  0.10195222  0.83259896  0.56624735  1  -1.184978  0  -0.351642  -0.611585  0  2.195158  0
O  O415  1  0.39804262  0.16741361  0.06624693  1  -1.185055  0  -0.351589  -0.611609  0  2.194798  0
O  O416  1  0.92813691  0.53953731  0.57931179  1  -1.171104  0  -0.367403  -0.636531  0  2.25485  0
O  O417  1  0.57185129  0.46046287  0.07931182  1  -1.171347  0  -0.367354  -0.636578  0  2.254638  0
O  O418  1  0.07189353  0.03953649  0.92069076  1  -1.170629  0  -0.367264  -0.636454  0  2.255155  0
O  O419  1  0.42816095  0.96046547  0.42068646  1  -1.171513  0  -0.367442  -0.636656  0  2.254524  0
O  O420  1  0.70482312  0.56346979  0.55654106  1  -1.216342  0  -0.392352  -0.712492  0  2.36195  0
O  O421  1  0.79516420  0.43652410  0.05654252  1  -1.216225  0  -0.392432  -0.712719  0  2.361889  0
O  O422  1  0.29519941  0.06347223  0.94345988  1  -1.216641  0  -0.39249  -0.712602  0  2.36225  0
O  O423  1  0.20484840  0.93652456  0.44345638  1  -1.216002  0  -0.392493  -0.712761  0  2.362388  0
O  O424  1  0.35640375  0.00292987  0.51564137  1  -1.19729  0  -0.395034  -0.663406  0  2.286429  0
O  O425  1  0.14360986  0.99706435  0.01564559  1  -1.197594  0  -0.395092  -0.663539  0  2.287145  0
O  O426  1  0.64358190  0.50293639  0.98435881  1  -1.197381  0  -0.39498  -0.663336  0  2.287016  0
O  O427  1  0.85638890  0.49707011  0.48435670  1  -1.197586  0  -0.395014  -0.663355  0  2.286962  0
O  O428  1  0.12811812  0.98161465  0.53856341  1  -1.189013  0  -0.386933  -0.65345  0  2.315877  0
O  O429  1  0.37188235  0.01839543  0.03856800  1  -1.18869  0  -0.386943  -0.653497  0  2.31501  0
O  O430  1  0.87186697  0.48160976  0.96143828  1  -1.188569  0  -0.386877  -0.653338  0  2.31566  0
O  O431  1  0.62810833  0.51838853  0.46143574  1  -1.188787  0  -0.387035  -0.653519  0  2.315505  0
