# generated using pymatgen
data_TbH15C24(NO)6
_symmetry_space_group_name_H-M   'P 1'
_cell_length_a   15.05065117
_cell_length_b   22.80947441
_cell_length_c   28.68337685
_cell_angle_alpha   89.99994611
_cell_angle_beta   103.44673799
_cell_angle_gamma   90.00002913
_symmetry_Int_Tables_number   1
_chemical_formula_structural   TbH15C24(NO)6
_chemical_formula_sum   'Tb8 H120 C192 N48 O48'
_cell_volume   9576.99120598
_cell_formula_units_Z   8
loop_
 _symmetry_equiv_pos_site_id
 _symmetry_equiv_pos_as_xyz
  1  'x, y, z'
loop_
 _atom_site_type_symbol
 _atom_site_label
 _atom_site_symmetry_multiplicity
 _atom_site_fract_x
 _atom_site_fract_y
 _atom_site_fract_z
 _atom_site_occupancy
 _atom_site_pbe_bader_charge
 _atom_site_pbe_bader_spin_density
 _atom_site_pbe_cm5_charge
 _atom_site_pbe_ddec_charge
 _atom_site_pbe_ddec_spin_density
 _atom_site_pbe_ddec_sum_bond_order
 _atom_site_pbe_magmom
Tb  Tb0  1  0.67761715  0.75110202  0.76525494  1  2.169438  0  1.543329  2.081298  0  2.220633  0
Tb  Tb1  1  0.82238268  0.25110223  0.23474442  1  2.169453  0  1.543289  2.081246  0  2.220672  0
Tb  Tb2  1  0.32238290  0.24889868  0.23474458  1  2.169434  0  1.543313  2.081254  0  2.22064  0
Tb  Tb3  1  0.17761668  0.74889846  0.76525537  1  2.169416  0  1.543349  2.081328  0  2.220585  0
Tb  Tb4  1  0.40879481  0.73697190  0.73302653  1  2.16886  0  1.52917  2.074579  0  2.158305  0
Tb  Tb5  1  0.09120613  0.23697068  0.26697394  1  2.168915  0  1.529163  2.07455  0  2.158381  0
Tb  Tb6  1  0.59120660  0.26302836  0.26697420  1  2.168879  0  1.529182  2.074597  0  2.158331  0
Tb  Tb7  1  0.90879528  0.76302870  0.73302610  1  2.168909  0  1.529224  2.074656  0  2.158269  0
H  H8  1  0.66424680  0.90376879  0.85814264  1  0.096694  0  0.110913  0.11575  0  0.985025  0
H  H9  1  0.83575583  0.40376868  0.14185834  1  0.096859  0  0.11095  0.115792  0  0.985007  0
H  H10  1  0.33575256  0.09623191  0.14185680  1  0.096793  0  0.110941  0.115781  0  0.984978  0
H  H11  1  0.16424490  0.59623202  0.85814161  1  0.096861  0  0.110953  0.115784  0  0.984974  0
H  H12  1  0.64105643  0.97876916  0.91737030  1  0.05783  0  0.09998  0.104918  0  1.000162  0
H  H13  1  0.85894554  0.47876957  0.08263089  1  0.057886  0  0.099957  0.104866  0  1.000293  0
H  H14  1  0.35894293  0.02123154  0.08262879  1  0.057813  0  0.099993  0.104929  0  1.000165  0
H  H15  1  0.14105450  0.52123113  0.91736932  1  0.057885  0  0.1  0.104937  0  1.000206  0
H  H16  1  0.34993662  0.97017798  0.85934267  1  0.130854  0  0.101066  0.112752  0  1.067312  0
H  H17  1  0.15006579  0.47017781  0.14065815  1  0.130824  0  0.101111  0.112838  0  1.067272  0
H  H18  1  0.65006274  0.02982184  0.14065746  1  0.130859  0  0.101069  0.112756  0  1.067288  0
H  H19  1  0.84993426  0.52982377  0.85934276  1  0.130812  0  0.101095  0.112813  0  1.067336  0
H  H20  1  0.37455231  0.89614781  0.80050004  1  0.110143  0  0.106936  0.111263  0  1.014702  0
H  H21  1  0.12545143  0.39614713  0.19950135  1  0.110103  0  0.106949  0.111283  0  1.014663  0
H  H22  1  0.62544705  0.10385113  0.19950009  1  0.11017  0  0.10694  0.11127  0  1.014681  0
H  H23  1  0.87454930  0.60385357  0.80049929  1  0.110382  0  0.106942  0.111232  0  1.014703  0
H  H24  1  0.54713838  0.13657666  0.02011826  1  0.117797  0  0.096823  0.107576  0  1.059837  0
H  H25  1  0.95286072  0.63657716  0.97988109  1  0.117803  0  0.096787  0.107556  0  1.059846  0
H  H26  1  0.45286098  0.86342316  0.97988257  1  0.117742  0  0.096779  0.107523  0  1.059866  0
H  H27  1  0.04713934  0.36342266  0.02011773  1  0.117753  0  0.096795  0.107539  0  1.059859  0
H  H28  1  0.67616966  0.17891651  0.08149913  1  0.106781  0  0.105253  0.106542  0  1.001375  0
H  H29  1  0.82383082  0.67891879  0.91850001  1  0.106819  0  0.105258  0.106499  0  1.001371  0
H  H30  1  0.32382902  0.82108331  0.91850161  1  0.106764  0  0.105231  0.106487  0  1.001397  0
H  H31  1  0.17616991  0.32108279  0.08149855  1  0.106782  0  0.105253  0.106571  0  1.001341  0
H  H32  1  0.48413681  0.26642656  0.14790454  1  0.129846  0  0.111921  0.117017  0  1.050284  0
H  H33  1  0.01586415  0.76642663  0.85209486  1  0.129931  0  0.111919  0.117017  0  1.050325  0
H  H34  1  0.51586119  0.73357414  0.85209542  1  0.129863  0  0.111839  0.116911  0  1.050373  0
H  H35  1  0.98413727  0.23357363  0.14790448  1  0.129841  0  0.111835  0.116841  0  1.050447  0
H  H36  1  0.35699018  0.22636647  0.08717908  1  0.073943  0  0.109198  0.121362  0  0.995088  0
H  H37  1  0.14300940  0.72636738  0.91281948  1  0.073935  0  0.109226  0.121427  0  0.995107  0
H  H38  1  0.64300713  0.77363379  0.91282045  1  0.073994  0  0.10919  0.121354  0  0.99505  0
H  H39  1  0.85699203  0.27363332  0.08717916  1  0.073981  0  0.109206  0.12137  0  0.99507  0
H  H40  1  0.24706985  0.92920767  0.91164933  1  0.08608  0  0.104584  0.114015  0  1.021001  0
H  H41  1  0.25292981  0.42920848  0.08835084  1  0.086072  0  0.104576  0.113975  0  1.021018  0
H  H42  1  0.75292951  0.07079083  0.08835045  1  0.086057  0  0.104588  0.113992  0  1.020996  0
H  H43  1  0.74706955  0.57079222  0.91164964  1  0.086096  0  0.104595  0.114023  0  1.021012  0
H  H44  1  0.17973812  0.84758065  0.85755327  1  0.12647  0  0.111333  0.115419  0  1.035323  0
H  H45  1  0.32026082  0.34758010  0.14244722  1  0.126467  0  0.111339  0.11543  0  1.035294  0
H  H46  1  0.82026056  0.15241961  0.14244677  1  0.126478  0  0.111331  0.115384  0  1.035303  0
H  H47  1  0.67973786  0.65241929  0.85755318  1  0.126473  0  0.111333  0.11541  0  1.035326  0
H  H48  1  0.96028800  0.95989336  0.78692266  1  0.080471  0  0.112197  0.119317  0  0.984542  0
H  H49  1  0.53971056  0.45989439  0.21307778  1  0.080487  0  0.112205  0.119365  0  0.984484  0
H  H50  1  0.03971068  0.04010558  0.21307808  1  0.080479  0  0.112201  0.119356  0  0.984486  0
H  H51  1  0.46028812  0.54010631  0.78692192  1  0.080457  0  0.112192  0.119343  0  0.984502  0
H  H52  1  0.02739912  0.04248273  0.84102352  1  0.074259  0  0.102965  0.10836  0  0.997522  0
H  H53  1  0.47259969  0.54248377  0.15897579  1  0.073975  0  0.102934  0.108268  0  0.997552  0
H  H54  1  0.97259956  0.95751578  0.15897618  1  0.073961  0  0.102923  0.108266  0  0.997548  0
H  H55  1  0.52739968  0.45751649  0.84102330  1  0.074284  0  0.10295  0.108342  0  0.997521  0
H  H56  1  0.83364090  0.64786870  0.65105692  1  0.148784  0  0.112165  0.122272  0  1.035053  0
H  H57  1  0.66635888  0.14786828  0.34894320  1  0.148599  0  0.112183  0.122316  0  1.03502  0
H  H58  1  0.16635914  0.35213069  0.34894260  1  0.148797  0  0.112177  0.122316  0  1.035016  0
H  H59  1  0.33364117  0.85213110  0.65105701  1  0.148791  0  0.112171  0.122308  0  1.035025  0
H  H60  1  0.84524653  0.56150988  0.60035109  1  0.079071  0  0.103866  0.112467  0  1.028355  0
H  H61  1  0.65475457  0.06150984  0.39964961  1  0.079053  0  0.103857  0.112461  0  1.028357  0
H  H62  1  0.15475420  0.43848907  0.39964886  1  0.079068  0  0.10386  0.112478  0  1.028359  0
H  H63  1  0.34524547  0.93848998  0.60035096  1  0.079075  0  0.103852  0.112454  0  1.028419  0
H  H64  1  0.69255437  0.45865254  0.68100141  1  0.057036  0  0.103873  0.109399  0  0.996382  0
H  H65  1  0.80744555  0.95865202  0.31899919  1  0.057032  0  0.103897  0.10943  0  0.996354  0
H  H66  1  0.30744567  0.54134772  0.31899915  1  0.057046  0  0.103898  0.109441  0  0.996344  0
H  H67  1  0.19255449  0.04134736  0.68100137  1  0.05704  0  0.10388  0.109397  0  0.99638  0
H  H68  1  0.68196634  0.54586627  0.73201965  1  0.107998  0  0.111349  0.117253  0  0.9882  0
H  H69  1  0.81803339  0.04586557  0.26798054  1  0.108012  0  0.111349  0.117277  0  0.988225  0
H  H70  1  0.31803234  0.45413487  0.26797935  1  0.108027  0  0.111362  0.117291  0  0.988207  0
H  H71  1  0.18196665  0.95413381  0.73201967  1  0.10799  0  0.11138  0.117304  0  0.988212  0
H  H72  1  0.76534058  0.26476968  0.42418442  1  0.091015  0  0.1094  0.120289  0  0.987955  0
H  H73  1  0.73465857  0.76476839  0.57581554  1  0.091012  0  0.109433  0.120304  0  0.987986  0
H  H74  1  0.23465946  0.73523058  0.57581580  1  0.091007  0  0.109405  0.120289  0  0.987977  0
H  H75  1  0.26534148  0.23523099  0.42418432  1  0.091027  0  0.109422  0.12032  0  0.987945  0
H  H76  1  0.82845092  0.23023627  0.35751298  1  0.120952  0  0.113371  0.118895  0  1.023943  0
H  H77  1  0.67154958  0.73023532  0.64248752  1  0.120911  0  0.113351  0.11888  0  1.023908  0
H  H78  1  0.17154980  0.76976399  0.64248732  1  0.120933  0  0.113369  0.118849  0  1.023977  0
H  H79  1  0.32845183  0.26976406  0.35751321  1  0.120953  0  0.113371  0.118877  0  1.023954  0
H  H80  1  0.07672407  0.32558684  0.41420224  1  0.078923  0  0.105655  0.107551  0  1.000495  0
H  H81  1  0.42327691  0.82558692  0.58579921  1  0.078874  0  0.105647  0.107534  0  1.000481  0
H  H82  1  0.92327598  0.67441342  0.58579797  1  0.078936  0  0.10566  0.107557  0  1.00049  0
H  H83  1  0.57672450  0.17441246  0.41420222  1  0.078911  0  0.105649  0.107548  0  1.000546  0
H  H84  1  0.01325500  0.36122987  0.48162954  1  0.131229  0  0.096975  0.106628  0  1.07237  0
H  H85  1  0.48674530  0.86123093  0.51837180  1  0.131247  0  0.096999  0.106663  0  1.072338  0
H  H86  1  0.98674572  0.63877039  0.51837111  1  0.131252  0  0.096989  0.106671  0  1.072351  0
H  H87  1  0.51325474  0.13876977  0.48162946  1  0.131219  0  0.096975  0.106627  0  1.072387  0
H  H88  1  0.20797620  0.51723477  0.56402132  1  0.045611  0  0.100188  0.104969  0  0.999683  0
H  H89  1  0.29202463  0.01723430  0.43597930  1  0.045635  0  0.10019  0.104944  0  0.999702  0
H  H90  1  0.79202452  0.48276462  0.43597897  1  0.04553  0  0.100205  0.104972  0  0.99967  0
H  H91  1  0.70797541  0.98276509  0.56402092  1  0.045608  0  0.100203  0.104967  0  0.999674  0
H  H92  1  0.29567755  0.59590119  0.61534970  1  0.102577  0  0.109275  0.114073  0  0.985578  0
H  H93  1  0.20432264  0.09590075  0.38465113  1  0.102572  0  0.109271  0.114081  0  0.985605  0
H  H94  1  0.70432318  0.40409864  0.38465060  1  0.102587  0  0.109283  0.114093  0  0.985586  0
H  H95  1  0.79567740  0.90409908  0.61534943  1  0.102583  0  0.109278  0.114083  0  0.985595  0
H  H96  1  0.09025176  0.60356415  0.69672188  1  0.079519  0  0.113407  0.118917  0  0.986131  0
H  H97  1  0.40974843  0.10356387  0.30327825  1  0.07952  0  0.113406  0.118911  0  0.986136  0
H  H98  1  0.90974828  0.39643524  0.30327833  1  0.079517  0  0.113406  0.118921  0  0.986121  0
H  H99  1  0.59025229  0.89643595  0.69672205  1  0.079516  0  0.113418  0.118927  0  0.986119  0
H  H100  1  0.00055829  0.52603585  0.64542419  1  0.104775  0  0.10207  0.11479  0  1.05829  0
H  H101  1  0.49944188  0.02603555  0.35457564  1  0.104763  0  0.102055  0.114797  0  1.058297  0
H  H102  1  0.99944244  0.47396441  0.35457610  1  0.104775  0  0.102072  0.114791  0  1.058287  0
H  H103  1  0.50055817  0.97396428  0.64542423  1  0.104771  0  0.102066  0.114787  0  1.058297  0
H  H104  1  0.54643155  0.03655408  0.94736381  1  0.471232  0  0.330515  0.283102  0  0.911158  0
H  H105  1  0.95356818  0.53655392  0.05263708  1  0.471248  0  0.330522  0.283107  0  0.911137  0
H  H106  1  0.45356782  0.96344531  0.05263597  1  0.471211  0  0.330501  0.283071  0  0.911164  0
H  H107  1  0.04643118  0.46344721  0.94736340  1  0.471265  0  0.330543  0.283116  0  0.911147  0
H  H108  1  0.30568073  0.16765186  0.02343905  1  0.474395  0  0.331118  0.285772  0  0.9097  0
H  H109  1  0.19431950  0.66765228  0.97655999  1  0.474412  0  0.331062  0.285657  0  0.909822  0
H  H110  1  0.69431864  0.83234796  0.97656003  1  0.474422  0  0.331082  0.285682  0  0.9098  0
H  H111  1  0.80568123  0.33234798  0.02343927  1  0.474405  0  0.331097  0.285686  0  0.909803  0
H  H112  1  0.12532718  0.06662574  0.91774826  1  0.461431  0  0.330864  0.287366  0  0.906991  0
H  H113  1  0.37467300  0.56662552  0.08225155  1  0.461443  0  0.330876  0.287409  0  0.90695  0
H  H114  1  0.87467218  0.93337408  0.08225152  1  0.461426  0  0.330857  0.287357  0  0.907002  0
H  H115  1  0.62532636  0.43337430  0.91774823  1  0.461421  0  0.330864  0.28736  0  0.90697  0
H  H116  1  0.71518100  0.42677154  0.60441850  1  0.447763  0  0.331337  0.288062  0  0.907187  0
H  H117  1  0.78481959  0.92677180  0.39558221  1  0.447763  0  0.331348  0.288076  0  0.907187  0
H  H118  1  0.28481973  0.57322784  0.39558215  1  0.447767  0  0.331355  0.288078  0  0.907183  0
H  H119  1  0.21518114  0.07322802  0.60441809  1  0.447774  0  0.331359  0.288079  0  0.907199  0
H  H120  1  0.08730781  0.45693394  0.54673670  1  0.451689  0  0.330487  0.282571  0  0.913172  0
H  H121  1  0.41269255  0.95693329  0.45326319  1  0.451682  0  0.33048  0.282527  0  0.913201  0
H  H122  1  0.91269223  0.54306588  0.45326317  1  0.451771  0  0.330489  0.282555  0  0.913187  0
H  H123  1  0.58730750  0.04306609  0.54673668  1  0.451682  0  0.330474  0.282546  0  0.913198  0
H  H124  1  0.77820814  0.32270039  0.49100820  1  0.466563  0  0.331468  0.286888  0  0.908177  0
H  H125  1  0.72179103  0.82269962  0.50899207  1  0.466574  0  0.331464  0.286864  0  0.908115  0
H  H126  1  0.22179258  0.67729943  0.50899210  1  0.466745  0  0.331466  0.286845  0  0.908202  0
H  H127  1  0.27820901  0.17729976  0.49100850  1  0.466574  0  0.331467  0.286849  0  0.908126  0
C  C128  1  0.53426883  0.84672014  0.79320534  1  1.56212  0  0.233088  0.650461  0  4.177371  0
C  C129  1  0.96573309  0.34671956  0.20679525  1  1.562177  0  0.233022  0.650313  0  4.177493  0
C  C130  1  0.46573122  0.15327968  0.20679487  1  1.562264  0  0.233082  0.650393  0  4.177369  0
C  C131  1  0.03426764  0.65328070  0.79320435  1  1.562188  0  0.233052  0.650381  0  4.177317  0
C  C132  1  0.52078892  0.89487818  0.82565341  1  0.015649  0  -0.026512  -0.070915  0  3.989067  0
C  C133  1  0.97921370  0.39487808  0.17434723  1  0.015668  0  -0.026481  -0.070828  0  3.989042  0
C  C134  1  0.47920976  0.10512165  0.17434629  1  0.015636  0  -0.026522  -0.070887  0  3.988979  0
C  C135  1  0.02078634  0.60512262  0.82565264  1  0.015671  0  -0.026529  -0.070937  0  3.988951  0
C  C136  1  0.59578605  0.91897474  0.85856628  1  -0.042924  0  -0.080909  -0.065994  0  3.996218  0
C  C137  1  0.90421522  0.41897597  0.14143522  1  -0.043057  0  -0.080967  -0.066059  0  3.996325  0
C  C138  1  0.40421263  0.08102509  0.14143411  1  -0.043135  0  -0.080942  -0.066042  0  3.996134  0
C  C139  1  0.09578483  0.58102473  0.85856465  1  -0.043068  0  -0.080936  -0.065982  0  3.996174  0
C  C140  1  0.58252492  0.96058330  0.89153327  1  -0.007753  0  -0.105646  -0.208512  0  4.013285  0
C  C141  1  0.91747705  0.46058282  0.10846759  1  -0.007804  0  -0.105576  -0.208451  0  4.01341  0
C  C142  1  0.41747376  0.03941784  0.10846643  1  -0.007701  0  -0.105687  -0.20857  0  4.013277  0
C  C143  1  0.08252368  0.53941788  0.89153271  1  -0.007805  0  -0.105659  -0.208563  0  4.013308  0
C  C144  1  0.49363781  0.97898967  0.89262892  1  0.304525  0  0.102423  0.256054  0  4.027649  0
C  C145  1  0.00636529  0.47898862  0.10737164  1  0.304695  0  0.102473  0.256152  0  4.027376  0
C  C146  1  0.50636156  0.02101147  0.10737052  1  0.304421  0  0.102527  0.256266  0  4.027409  0
C  C147  1  0.99363544  0.52101208  0.89262866  1  0.304686  0  0.1025  0.256171  0  4.027419  0
C  C148  1  0.41852329  0.95611366  0.85889447  1  -0.002243  0  -0.101581  -0.190037  0  3.961971  0
C  C149  1  0.08147980  0.45611347  0.14110575  1  -0.002317  0  -0.101689  -0.19023  0  3.961919  0
C  C150  1  0.58147540  0.04388616  0.14110488  1  -0.00225  0  -0.101606  -0.190096  0  3.961924  0
C  C151  1  0.91852024  0.54388811  0.85889446  1  -0.00236  0  -0.101621  -0.190139  0  3.961932  0
C  C152  1  0.43288933  0.91458971  0.82601185  1  -0.079953  0  -0.076217  -0.05427  0  3.966325  0
C  C153  1  0.06711305  0.41458947  0.17398866  1  -0.080009  0  -0.076198  -0.054261  0  3.966232  0
C  C154  1  0.56710935  0.08541012  0.17398784  1  -0.079927  0  -0.076187  -0.054276  0  3.966238  0
C  C155  1  0.93288699  0.58541167  0.82601155  1  -0.080192  0  -0.076246  -0.054261  0  3.966182  0
C  C156  1  0.41205544  0.04374405  0.94039358  1  1.558304  0  0.348413  0.543633  0  4.138649  0
C  C157  1  0.08794405  0.54374421  0.05960546  1  1.558732  0  0.34842  0.543719  0  4.138516  0
C  C158  1  0.58794461  0.95625621  0.05960594  1  1.558309  0  0.348425  0.543699  0  4.138548  0
C  C159  1  0.91205600  0.45625693  0.94039406  1  1.55829  0  0.348393  0.543638  0  4.138652  0
C  C160  1  0.26059458  0.05287050  0.93287008  1  1.568357  0  0.34445  0.549507  0  4.154922  0
C  C161  1  0.23940560  0.55286982  0.06712834  1  1.568274  0  0.344407  0.549442  0  4.155001  0
C  C162  1  0.73940478  0.94713020  0.06712901  1  1.568346  0  0.344457  0.549462  0  4.154927  0
C  C163  1  0.76059445  0.44713000  0.93287083  1  1.568632  0  0.344464  0.54947  0  4.154923  0
C  C164  1  0.35806866  0.11096696  0.98455873  1  1.507829  0  0.343638  0.554923  0  4.126192  0
C  C165  1  0.14193154  0.61096718  0.01544069  1  1.508262  0  0.343623  0.5549  0  4.12617  0
C  C166  1  0.64193207  0.88903330  0.01544052  1  1.508154  0  0.343589  0.55484  0  4.126222  0
C  C167  1  0.85806850  0.38903395  0.98455952  1  1.507725  0  0.343604  0.5549  0  4.126061  0
C  C168  1  0.44367364  0.17823651  0.04957268  1  0.344189  0  0.108801  0.263126  0  4.026939  0
C  C169  1  0.05632523  0.67823603  0.95042618  1  0.344175  0  0.108804  0.263133  0  4.026785  0
C  C170  1  0.55632504  0.82176419  0.95042736  1  0.344313  0  0.108786  0.263119  0  4.02693  0
C  C171  1  0.94367482  0.32176335  0.04957229  1  0.344333  0  0.108836  0.263148  0  4.026895  0
C  C172  1  0.53440426  0.16573908  0.04771435  1  0.0409  0  -0.104316  -0.190395  0  3.975305  0
C  C173  1  0.96559554  0.66573918  0.95228471  1  0.040939  0  -0.104295  -0.190407  0  3.975304  0
C  C174  1  0.46559442  0.83426118  0.95228639  1  0.041249  0  -0.104294  -0.190433  0  3.975352  0
C  C175  1  0.03440589  0.33426064  0.04771358  1  0.04123  0  -0.104293  -0.190371  0  3.975328  0
C  C176  1  0.60578580  0.18937881  0.08208714  1  -0.118481  0  -0.079188  -0.066732  0  3.992766  0
C  C177  1  0.89421400  0.68937981  0.91791226  1  -0.118485  0  -0.079178  -0.066679  0  3.992709  0
C  C178  1  0.39421356  0.81062101  0.91791334  1  -0.118845  0  -0.079142  -0.066578  0  3.992798  0
C  C179  1  0.10578605  0.31062089  0.08208622  1  -0.118846  0  -0.079157  -0.066721  0  3.992821  0
C  C180  1  0.58948224  0.22506177  0.11907994  1  -0.017722  0  -0.028324  -0.070969  0  4.008762  0
C  C181  1  0.91051759  0.72506281  0.88091908  1  -0.017175  0  -0.02827  -0.070871  0  4.008684  0
C  C182  1  0.41051576  0.77493849  0.88092002  1  -0.017632  0  -0.028247  -0.070939  0  4.008867  0
C  C183  1  0.08948315  0.27493745  0.11907982  1  -0.01756  0  -0.028358  -0.071011  0  4.008847  0
C  C184  1  0.49896599  0.23898755  0.11967791  1  0.00406  0  -0.077714  -0.064402  0  3.968155  0
C  C185  1  0.00103427  0.73898889  0.88032073  1  0.003973  0  -0.077775  -0.064464  0  3.968243  0
C  C186  1  0.50103132  0.76101272  0.88032162  1  0.00417  0  -0.077705  -0.064364  0  3.968315  0
C  C187  1  0.99896715  0.26101181  0.11967826  1  0.004222  0  -0.077664  -0.06422  0  3.968184  0
C  C188  1  0.42704399  0.21634828  0.08525552  1  -0.055375  0  -0.094379  -0.195071  0  3.968608  0
C  C189  1  0.07295558  0.71634916  0.91474340  1  -0.055512  0  -0.094394  -0.195152  0  3.968652  0
C  C190  1  0.57295401  0.78365198  0.91474409  1  -0.055564  0  -0.094344  -0.195018  0  3.968616  0
C  C191  1  0.92704516  0.28365110  0.08525516  1  -0.055675  0  -0.094372  -0.195094  0  3.968621  0
C  C192  1  0.66720260  0.24316959  0.15779749  1  1.484842  0  0.213394  0.622689  0  4.162312  0
C  C193  1  0.83279723  0.74317021  0.84220187  1  1.484368  0  0.213322  0.62257  0  4.162423  0
C  C194  1  0.33279608  0.75682980  0.84220256  1  1.484853  0  0.213364  0.622587  0  4.162484  0
C  C195  1  0.16720350  0.25683005  0.15779738  1  1.484847  0  0.213359  0.622558  0  4.16251  0
C  C196  1  0.02127538  0.85071752  0.78730897  1  1.502167  0  0.214605  0.613501  0  4.168963  0
C  C197  1  0.47872424  0.35071825  0.21269126  1  1.5021  0  0.214608  0.613513  0  4.168947  0
C  C198  1  0.97872398  0.14928099  0.21269081  1  1.502138  0  0.214612  0.613516  0  4.168967  0
C  C199  1  0.52127512  0.64928201  0.78730922  1  1.502074  0  0.214601  0.613531  0  4.168977  0
C  C200  1  0.14096659  0.99094342  0.88021575  1  0.345719  0  0.101972  0.254123  0  4.039889  0
C  C201  1  0.35903378  0.49094247  0.11978376  1  0.345701  0  0.101981  0.254112  0  4.03995  0
C  C202  1  0.85903345  0.00905728  0.11978377  1  0.34572  0  0.101986  0.254  0  4.040051  0
C  C203  1  0.64096969  0.50905647  0.88021548  1  0.345782  0  0.101944  0.254145  0  4.039865  0
C  C204  1  0.18432297  0.93591673  0.88444190  1  -0.02237  0  -0.095055  -0.184487  0  3.967848  0
C  C205  1  0.31567670  0.43591665  0.11555757  1  -0.022389  0  -0.095025  -0.184341  0  3.967862  0
C  C206  1  0.81567708  0.06408353  0.11555797  1  -0.022363  0  -0.095053  -0.184379  0  3.967914  0
C  C207  1  0.68432472  0.56408317  0.88444177  1  -0.022438  0  -0.095067  -0.184515  0  3.967878  0
C  C208  1  0.14655657  0.89035278  0.85405531  1  -0.023853  0  -0.070732  -0.054708  0  3.94199  0
C  C209  1  0.35344240  0.39035355  0.14594446  1  -0.023864  0  -0.070729  -0.054834  0  3.942007  0
C  C210  1  0.85344280  0.10964616  0.14594447  1  -0.023867  0  -0.070711  -0.054706  0  3.94201  0
C  C211  1  0.64655628  0.60964715  0.85405524  1  -0.02383  0  -0.070723  -0.054685  0  3.942009  0
C  C212  1  0.06551015  0.89872080  0.81895762  1  -0.051605  0  -0.020521  -0.050855  0  3.975239  0
C  C213  1  0.43448881  0.39872112  0.18104283  1  -0.05157  0  -0.020532  -0.050753  0  3.975226  0
C  C214  1  0.93448921  0.10127814  0.18104285  1  -0.051593  0  -0.020511  -0.050779  0  3.975256  0
C  C215  1  0.56550986  0.60128002  0.81895722  1  -0.051618  0  -0.020522  -0.050872  0  3.975237  0
C  C216  1  0.02288978  0.95384000  0.81451025  1  0.033283  0  -0.076886  -0.066056  0  3.983961  0
C  C217  1  0.47710783  0.45384033  0.18549034  1  0.033247  0  -0.076901  -0.066212  0  3.983985  0
C  C218  1  0.97710821  0.04615982  0.18549041  1  0.033226  0  -0.076905  -0.066195  0  3.984043  0
C  C219  1  0.52288948  0.54615993  0.81450988  1  0.033291  0  -0.076879  -0.066117  0  3.983919  0
C  C220  1  0.06016139  0.99948856  0.84474306  1  -0.055107  0  -0.102952  -0.207529  0  4.016489  0
C  C221  1  0.43983694  0.49948891  0.15525724  1  -0.054802  0  -0.102927  -0.207351  0  4.016411  0
C  C222  1  0.93983729  0.00051082  0.15525768  1  -0.054791  0  -0.102944  -0.207365  0  4.016537  0
C  C223  1  0.56016242  0.50051135  0.84474289  1  -0.055035  0  -0.102953  -0.207507  0  4.016428  0
C  C224  1  0.74662017  0.65390560  0.72399879  1  1.499482  0  0.211525  0.60484  0  4.188121  0
C  C225  1  0.75337962  0.15390575  0.27600098  1  1.499553  0  0.211582  0.604853  0  4.188084  0
C  C226  1  0.25337988  0.34609378  0.27600073  1  1.499537  0  0.211443  0.604643  0  4.188241  0
C  C227  1  0.24662111  0.84609408  0.72400001  1  1.499579  0  0.211452  0.604616  0  4.188325  0
C  C228  1  0.75680333  0.60230689  0.69466032  1  0.031654  0  -0.021728  -0.055843  0  3.986082  0
C  C229  1  0.74319643  0.10230655  0.30533949  1  0.031565  0  -0.021678  -0.055687  0  3.985976  0
C  C230  1  0.24319672  0.39769293  0.30533850  1  0.031574  0  -0.021601  -0.055529  0  3.986005  0
C  C231  1  0.25680224  0.89769327  0.69466091  1  0.031569  0  -0.021683  -0.055733  0  3.98597  0
C  C232  1  0.80283900  0.60630745  0.65750942  1  -0.056898  0  -0.072864  -0.061249  0  3.941442  0
C  C233  1  0.69716145  0.10630662  0.34249081  1  -0.056784  0  -0.072897  -0.061348  0  3.941435  0
C  C234  1  0.19716174  0.39369325  0.34249018  1  -0.05684  0  -0.072946  -0.061431  0  3.941563  0
C  C235  1  0.30283791  0.89369277  0.65750932  1  -0.056864  0  -0.072909  -0.061384  0  3.941437  0
C  C236  1  0.80924401  0.55805866  0.62895120  1  0.03246  0  -0.095776  -0.18187  0  3.972298  0
C  C237  1  0.69075641  0.05805867  0.37104942  1  0.032546  0  -0.095811  -0.181902  0  3.972341  0
C  C238  1  0.19075536  0.44194160  0.37104893  1  0.032437  0  -0.095805  -0.181943  0  3.972334  0
C  C239  1  0.30924363  0.94194116  0.62895114  1  0.032378  0  -0.095774  -0.181848  0  3.972367  0
C  C240  1  0.76871369  0.50453089  0.63689946  1  0.28028  0  0.104053  0.254668  0  4.03462  0
C  C241  1  0.73128671  0.00453092  0.36310085  1  0.280283  0  0.104025  0.254654  0  4.034619  0
C  C242  1  0.23128704  0.49546806  0.36310049  1  0.280268  0  0.104008  0.254671  0  4.03468  0
C  C243  1  0.26871265  0.99546846  0.63689998  1  0.280407  0  0.104  0.254598  0  4.034664  0
C  C244  1  0.72298605  0.50037951  0.67436482  1  -0.024113  0  -0.100722  -0.204141  0  4.003737  0
C  C245  1  0.77701503  0.00037917  0.32563557  1  -0.024074  0  -0.100733  -0.204121  0  4.003699  0
C  C246  1  0.27701400  0.49962075  0.32563539  1  -0.024148  0  -0.100717  -0.204158  0  4.003783  0
C  C247  1  0.22298501  0.99962022  0.67436464  1  -0.02416  0  -0.100707  -0.204085  0  4.003781  0
C  C248  1  0.71727813  0.54870547  0.70295432  1  -0.041891  0  -0.07526  -0.060029  0  3.973794  0
C  C249  1  0.78272160  0.04870516  0.29704587  1  -0.041955  0  -0.075284  -0.060161  0  3.973865  0
C  C250  1  0.28272123  0.45129523  0.29704546  1  -0.04192  0  -0.075226  -0.060092  0  3.973765  0
C  C251  1  0.21727707  0.95129467  0.70295452  1  -0.041902  0  -0.075236  -0.060039  0  3.973744  0
C  C252  1  0.83033895  0.43936985  0.58170247  1  1.569625  0  0.345308  0.552285  0  4.138087  0
C  C253  1  0.66966233  0.93937004  0.41829866  1  1.569617  0  0.345337  0.552323  0  4.138027  0
C  C254  1  0.16966178  0.56062997  0.41829817  1  1.56964  0  0.345321  0.552291  0  4.13799  0
C  C255  1  0.33033976  0.06063022  0.58170215  1  1.569642  0  0.345308  0.552232  0  4.138089  0
C  C256  1  0.86864516  0.38088367  0.52594763  1  1.549441  0  0.344556  0.555737  0  4.127894  0
C  C257  1  0.63135473  0.88088334  0.47405199  1  1.549524  0  0.344571  0.555822  0  4.12774  0
C  C258  1  0.13135557  0.61911703  0.47405302  1  1.549448  0  0.344538  0.55563  0  4.12805  0
C  C259  1  0.36864532  0.11911692  0.52594753  1  1.549511  0  0.344523  0.55562  0  4.12794  0
C  C260  1  0.88511179  0.31591860  0.45753259  1  0.374519  0  0.107047  0.260351  0  4.020696  0
C  C261  1  0.61488943  0.81591863  0.54246828  1  0.3746  0  0.107115  0.260418  0  4.020475  0
C  C262  1  0.11488894  0.68408166  0.54246771  1  0.374563  0  0.107092  0.260435  0  4.020584  0
C  C263  1  0.38511198  0.18408163  0.45753280  1  0.374323  0  0.107063  0.260353  0  4.020586  0
C  C264  1  0.83467929  0.27741093  0.42280016  1  -0.03726  0  -0.094246  -0.195397  0  3.967782  0
C  C265  1  0.66532123  0.77741006  0.57720030  1  -0.037368  0  -0.094288  -0.195464  0  3.967819  0
C  C266  1  0.16532144  0.72258977  0.57720013  1  -0.037377  0  -0.094251  -0.195442  0  3.967827  0
C  C267  1  0.33467949  0.22258977  0.42280000  1  -0.037255  0  -0.094252  -0.19544  0  3.96775  0
C  C268  1  0.87016648  0.25795019  0.38499946  1  -0.037801  0  -0.074918  -0.060363  0  3.964198  0
C  C269  1  0.62983472  0.75794925  0.61500110  1  -0.037719  0  -0.07485  -0.060212  0  3.964086  0
C  C270  1  0.12983425  0.74205008  0.61500084  1  -0.037718  0  -0.074877  -0.060205  0  3.96423  0
C  C271  1  0.37016738  0.24205013  0.38499936  1  -0.0378  0  -0.074889  -0.060246  0  3.964184  0
C  C272  1  0.95732064  0.27601068  0.38116135  1  -0.015129  0  -0.027451  -0.072876  0  4.009981  0
C  C273  1  0.54267988  0.77601059  0.61883947  1  -0.015116  0  -0.02749  -0.07298  0  4.010096  0
C  C274  1  0.04268008  0.72398914  0.61883895  1  -0.015142  0  -0.027468  -0.072953  0  4.010089  0
C  C275  1  0.45732153  0.22398923  0.38116126  1  -0.015142  0  -0.027478  -0.072983  0  4.010067  0
C  C276  1  0.00881913  0.31203632  0.41710598  1  0.022618  0  -0.079613  -0.065237  0  4.000464  0
C  C277  1  0.49118253  0.81203730  0.58289487  1  0.022816  0  -0.079595  -0.065153  0  4.000458  0
C  C278  1  0.99118228  0.68796350  0.58289475  1  0.022629  0  -0.079593  -0.065169  0  4.000473  0
C  C279  1  0.50881888  0.18796296  0.41710551  1  0.022617  0  -0.079638  -0.065242  0  4.000558  0
C  C280  1  0.97411325  0.33199527  0.45482709  1  -0.106771  0  -0.105961  -0.191831  0  3.98678  0
C  C281  1  0.52588798  0.83199526  0.54517342  1  -0.106953  0  -0.106006  -0.191912  0  3.986707  0
C  C282  1  0.02588747  0.66800499  0.54517320  1  -0.106806  0  -0.105999  -0.191946  0  3.986722  0
C  C283  1  0.47411344  0.16800412  0.45482696  1  -0.106549  0  -0.105943  -0.191832  0  3.986768  0
C  C284  1  0.99621490  0.26186527  0.33993903  1  1.505463  0  0.217028  0.620735  0  4.167591  0
C  C285  1  0.50378562  0.76186512  0.66006215  1  1.505489  0  0.216998  0.620637  0  4.16774  0
C  C286  1  0.00378583  0.73813367  0.66006197  1  1.505492  0  0.217015  0.620724  0  4.167697  0
C  C287  1  0.49621511  0.23813382  0.33993850  1  1.505468  0  0.217032  0.620814  0  4.167551  0
C  C288  1  0.96762035  0.44938064  0.56426584  1  1.572444  0  0.34923  0.544325  0  4.145598  0
C  C289  1  0.53238025  0.94938032  0.43573486  1  1.572448  0  0.349212  0.54429  0  4.145548  0
C  C290  1  0.03237970  0.55061962  0.43573437  1  1.572465  0  0.349247  0.54437  0  4.145434  0
C  C291  1  0.46762048  0.05061994  0.56426579  1  1.572465  0  0.349207  0.544302  0  4.145511  0
C  C292  1  0.09783376  0.51713740  0.60103170  1  0.356977  0  0.102223  0.256796  0  4.034622  0
C  C293  1  0.40216708  0.01713701  0.39896858  1  0.356995  0  0.10231  0.256853  0  4.034595  0
C  C294  1  0.90216561  0.48286286  0.39896843  1  0.356979  0  0.102256  0.25682  0  4.034612  0
C  C295  1  0.59783433  0.98286325  0.60103181  1  0.357002  0  0.102247  0.256811  0  4.034618  0
C  C296  1  0.18211451  0.53642370  0.59318259  1  -0.083105  0  -0.106161  -0.208855  0  4.015424  0
C  C297  1  0.31788633  0.03642327  0.40681802  1  -0.083157  0  -0.106123  -0.208694  0  4.015299  0
C  C298  1  0.81788621  0.46357612  0.40681806  1  -0.083056  0  -0.106158  -0.208795  0  4.015352  0
C  C299  1  0.68211439  0.96357611  0.59318228  1  -0.083129  0  -0.106137  -0.208764  0  4.015353  0
C  C300  1  0.23117428  0.58002575  0.62163617  1  -0.015762  0  -0.080615  -0.066104  0  4.001253  0
C  C301  1  0.26882590  0.08002534  0.37836432  1  -0.015732  0  -0.080658  -0.066272  0  4.00125  0
C  C302  1  0.76882645  0.41997451  0.37836413  1  -0.015742  0  -0.08065  -0.066205  0  4.001257  0
C  C303  1  0.73117414  0.91997492  0.62163624  1  -0.015745  0  -0.080647  -0.066187  0  4.001311  0
C  C304  1  0.19775188  0.60505523  0.65884478  1  0.028421  0  -0.023385  -0.064353  0  3.984993  0
C  C305  1  0.30224832  0.10505532  0.34115535  1  0.028475  0  -0.023365  -0.06423  0  3.984882  0
C  C306  1  0.80224817  0.39494371  0.34115544  1  0.02842  0  -0.023387  -0.064328  0  3.984944  0
C  C307  1  0.69775241  0.89494451  0.65884530  1  0.02843  0  -0.023414  -0.064357  0  3.985007  0
C  C308  1  0.11532887  0.58446947  0.66739514  1  -0.003711  0  -0.074145  -0.054603  0  3.962253  0
C  C309  1  0.38467132  0.08446915  0.33260466  1  -0.003718  0  -0.074142  -0.054585  0  3.96222  0
C  C310  1  0.88467117  0.41553035  0.33260473  1  -0.003716  0  -0.074165  -0.054649  0  3.962201  0
C  C311  1  0.61532941  0.91553111  0.66739564  1  -0.003718  0  -0.07412  -0.054553  0  3.962148  0
C  C312  1  0.06504940  0.54106383  0.63897620  1  -0.009472  0  -0.102007  -0.193897  0  3.964118  0
C  C313  1  0.43495145  0.04106394  0.36102405  1  -0.009456  0  -0.102055  -0.194015  0  3.964198  0
C  C314  1  0.93495064  0.45893555  0.36102401  1  -0.009445  0  -0.101985  -0.193865  0  3.964089  0
C  C315  1  0.56504928  0.95893632  0.63897625  1  -0.009451  0  -0.102004  -0.193916  0  3.964121  0
C  C316  1  0.24730121  0.65407959  0.68753795  1  1.531129  0  0.229326  0.647416  0  4.171367  0
C  C317  1  0.25269969  0.15407925  0.31246292  1  1.531048  0  0.229295  0.647374  0  4.171307  0
C  C318  1  0.75269814  0.34592023  0.31246287  1  1.531111  0  0.229286  0.647461  0  4.171263  0
C  C319  1  0.74730104  0.84592013  0.68753807  1  1.53112  0  0.229257  0.647248  0  4.171611  0
N  N320  1  0.48660215  0.02014204  0.92777457  1  -1.271892  0  -0.384878  -0.361428  0  3.563049  0
N  N321  1  0.01339937  0.52014171  0.07222578  1  -1.272314  0  -0.384873  -0.361411  0  3.562819  0
N  N322  1  0.51339722  0.97985822  0.07222451  1  -1.271728  0  -0.384888  -0.361482  0  3.56288  0
N  N323  1  0.98660067  0.47985899  0.92777408  1  -1.271883  0  -0.384871  -0.361397  0  3.563092  0
N  N324  1  0.32853291  0.02396368  0.91962159  1  -1.250079  0  -0.339264  -0.510769  0  3.234526  0
N  N325  1  0.17146862  0.52396383  0.08037772  1  -1.25001  0  -0.339269  -0.510836  0  3.234577  0
N  N326  1  0.67146781  0.97603658  0.08037836  1  -1.250085  0  -0.339288  -0.510794  0  3.234535  0
N  N327  1  0.82853143  0.47603687  0.91962180  1  -1.250075  0  -0.339303  -0.510799  0  3.2345  0
N  N328  1  0.27002021  0.09691666  0.96468530  1  -1.184157  0  -0.375374  -0.589284  0  3.196664  0
N  N329  1  0.22997863  0.59691469  0.03531257  1  -1.184626  0  -0.375375  -0.589241  0  3.196687  0
N  N330  1  0.72997848  0.90308536  0.03531335  1  -1.184568  0  -0.375384  -0.589253  0  3.19673  0
N  N331  1  0.77002142  0.40308469  0.96468590  1  -1.184468  0  -0.375383  -0.589269  0  3.196634  0
N  N332  1  0.43190351  0.08648856  0.97395452  1  -1.196387  0  -0.350165  -0.542561  0  3.212241  0
N  N333  1  0.06809873  0.58648830  0.02604483  1  -1.196416  0  -0.350187  -0.542647  0  3.212333  0
N  N334  1  0.56809722  0.91351170  0.02604473  1  -1.196361  0  -0.350147  -0.542581  0  3.212237  0
N  N335  1  0.93190268  0.41351284  0.97395555  1  -1.196371  0  -0.350193  -0.542651  0  3.212204  0
N  N336  1  0.36724206  0.15450339  0.01828877  1  -1.249816  0  -0.3839  -0.361872  0  3.552474  0
N  N337  1  0.13275748  0.65450290  0.98171055  1  -1.24975  0  -0.383852  -0.361702  0  3.552387  0
N  N338  1  0.63275731  0.84549731  0.98171067  1  -1.249888  0  -0.383864  -0.361722  0  3.552405  0
N  N339  1  0.86724257  0.34549692  0.01828862  1  -1.249829  0  -0.383852  -0.361716  0  3.552387  0
N  N340  1  0.17247064  0.03760798  0.91160953  1  -1.239512  0  -0.39112  -0.375868  0  3.546128  0
N  N341  1  0.32752953  0.53760687  0.08838995  1  -1.239489  0  -0.391103  -0.375923  0  3.546145  0
N  N342  1  0.82752940  0.96239271  0.08838999  1  -1.23949  0  -0.391101  -0.375805  0  3.546152  0
N  N343  1  0.67247052  0.46239208  0.91160992  1  -1.239584  0  -0.391094  -0.375843  0  3.546114  0
N  N344  1  0.76796904  0.45533205  0.60742707  1  -1.228798  0  -0.388719  -0.374114  0  3.543115  0
N  N345  1  0.73203157  0.95533229  0.39257362  1  -1.22879  0  -0.388721  -0.374145  0  3.543068  0
N  N346  1  0.23203169  0.54466733  0.39257323  1  -1.228771  0  -0.388735  -0.374126  0  3.543014  0
N  N347  1  0.26796848  0.04466709  0.60742729  1  -1.228815  0  -0.38873  -0.374105  0  3.543045  0
N  N348  1  0.80536149  0.39468185  0.55084792  1  -1.207408  0  -0.37409  -0.588035  0  3.184179  0
N  N349  1  0.69463977  0.89468246  0.44915255  1  -1.207448  0  -0.374109  -0.588078  0  3.184144  0
N  N350  1  0.19463924  0.60531841  0.44915272  1  -1.207417  0  -0.374144  -0.588077  0  3.184246  0
N  N351  1  0.30536164  0.10531868  0.55084818  1  -1.207402  0  -0.374132  -0.588019  0  3.184225  0
N  N352  1  0.95062368  0.40618413  0.53120033  1  -1.240759  0  -0.348935  -0.539019  0  3.241255  0
N  N353  1  0.54937485  0.90618334  0.46880015  1  -1.240863  0  -0.348855  -0.538985  0  3.241181  0
N  N354  1  0.04937637  0.59381613  0.46880024  1  -1.240751  0  -0.348938  -0.53899  0  3.241277  0
N  N355  1  0.45062451  0.09381692  0.53119964  1  -1.240857  0  -0.348852  -0.538936  0  3.241151  0
N  N356  1  0.91003963  0.46872564  0.58999524  1  -1.215901  0  -0.338873  -0.511621  0  3.228337  0
N  N357  1  0.58996166  0.96872626  0.41000552  1  -1.215859  0  -0.338953  -0.511685  0  3.22826  0
N  N358  1  0.08996110  0.53127374  0.41000505  1  -1.215879  0  -0.338893  -0.511639  0  3.228285  0
N  N359  1  0.41003975  0.03127400  0.58999521  1  -1.2159  0  -0.338873  -0.511587  0  3.228336  0
N  N360  1  0.05238401  0.47385496  0.56995447  1  -1.271585  0  -0.385873  -0.36326  0  3.565752  0
N  N361  1  0.44761635  0.97385479  0.43004610  1  -1.271596  0  -0.385875  -0.363201  0  3.565711  0
N  N362  1  0.94761535  0.52614487  0.43004566  1  -1.271674  0  -0.385911  -0.363294  0  3.565648  0
N  N363  1  0.55238438  0.02614547  0.56995420  1  -1.27159  0  -0.385894  -0.363275  0  3.565686  0
N  N364  1  0.84276645  0.33714703  0.49265579  1  -1.261523  0  -0.382414  -0.362821  0  3.537279  0
N  N365  1  0.65723274  0.83714711  0.50734447  1  -1.261513  0  -0.38243  -0.362825  0  3.537169  0
N  N366  1  0.15723360  0.66285367  0.50734477  1  -1.261739  0  -0.382404  -0.362747  0  3.537309  0
N  N367  1  0.34276731  0.16285358  0.49265610  1  -1.261549  0  -0.382416  -0.362718  0  3.537171  0
O  O368  1  0.46455314  0.82575167  0.76356371  1  -1.211199  0  -0.4174  -0.703897  0  2.314406  0
O  O369  1  0.03544852  0.32575091  0.23643679  1  -1.211317  0  -0.417407  -0.703848  0  2.314368  0
O  O370  1  0.53544690  0.17424860  0.23643686  1  -1.2112  0  -0.41743  -0.703862  0  2.314375  0
O  O371  1  0.96455153  0.67424892  0.76356204  1  -1.211331  0  -0.41741  -0.703854  0  2.314369  0
O  O372  1  0.65456635  0.26284516  0.19835641  1  -1.216543  0  -0.44153  -0.764813  0  2.350598  0
O  O373  1  0.84543417  0.76284671  0.80164302  1  -1.216601  0  -0.441528  -0.764781  0  2.350584  0
O  O374  1  0.34543301  0.73715423  0.80164372  1  -1.21652  0  -0.44152  -0.764748  0  2.350566  0
O  O375  1  0.15456519  0.23715443  0.19835641  1  -1.216544  0  -0.441506  -0.764728  0  2.350555  0
O  O376  1  0.77350352  0.70529040  0.71313092  1  -1.214311  0  -0.439589  -0.759528  0  2.405171  0
O  O377  1  0.72649765  0.20529008  0.28686933  1  -1.214314  0  -0.439624  -0.759527  0  2.405188  0
O  O378  1  0.22649652  0.29470986  0.28686964  1  -1.214322  0  -0.439568  -0.759473  0  2.405197  0
O  O379  1  0.27350239  0.79470886  0.71313123  1  -1.214312  0  -0.439592  -0.759406  0  2.405164  0
O  O380  1  0.31817263  0.67488544  0.67668979  1  -1.176987  0  -0.392826  -0.637975  0  2.245619  0
O  O381  1  0.18182829  0.17488506  0.32331038  1  -1.176984  0  -0.392847  -0.638009  0  2.245592  0
O  O382  1  0.68182810  0.32511351  0.32331051  1  -1.177045  0  -0.392796  -0.637998  0  2.2456  0
O  O383  1  0.81817176  0.82511432  0.67668984  1  -1.176992  0  -0.392804  -0.637912  0  2.245665  0
O  O384  1  0.07929791  0.27425953  0.34176766  1  -1.172806  0  -0.377749  -0.60818  0  2.24673  0
O  O385  1  0.42070237  0.77425996  0.65823235  1  -1.172793  0  -0.37775  -0.608154  0  2.246738  0
O  O386  1  0.92070282  0.72573898  0.65823299  1  -1.172781  0  -0.377731  -0.608189  0  2.246754  0
O  O387  1  0.57929837  0.22573942  0.34176725  1  -1.172815  0  -0.377758  -0.60824  0  2.24673  0
O  O388  1  0.94589781  0.86014886  0.75753435  1  -1.160148  0  -0.37933  -0.605968  0  2.190551  0
O  O389  1  0.55410275  0.36014810  0.24246606  1  -1.160146  0  -0.379334  -0.606002  0  2.190564  0
O  O390  1  0.05410293  0.13985096  0.24246525  1  -1.160129  0  -0.379343  -0.606002  0  2.190564  0
O  O391  1  0.44589729  0.63985216  0.75753416  1  -1.160146  0  -0.37933  -0.605995  0  2.190578  0
O  O392  1  0.05580793  0.79813455  0.79089447  1  -1.216185  0  -0.428496  -0.753626  0  2.388177  0
O  O393  1  0.44419099  0.29813484  0.20910466  1  -1.216102  0  -0.428464  -0.753578  0  2.388129  0
O  O394  1  0.94419144  0.20186440  0.20910426  1  -1.216128  0  -0.428461  -0.753544  0  2.388084  0
O  O395  1  0.55580837  0.70186455  0.79089582  1  -1.216099  0  -0.428468  -0.753538  0  2.388047  0
O  O396  1  0.61505845  0.82740362  0.79703816  1  -1.193839  0  -0.414119  -0.6693  0  2.299  0
O  O397  1  0.88494415  0.32740301  0.20296148  1  -1.193823  0  -0.414074  -0.669224  0  2.299125  0
O  O398  1  0.38494159  0.17259621  0.20296205  1  -1.193958  0  -0.41412  -0.669285  0  2.299014  0
O  O399  1  0.11505727  0.67259725  0.79703786  1  -1.193857  0  -0.414084  -0.669251  0  2.298997  0
O  O400  1  0.94788851  0.23756793  0.30114371  1  -1.227645  0  -0.438471  -0.765285  0  2.323841  0
O  O401  1  0.55211267  0.73756687  0.69885722  1  -1.227726  0  -0.438492  -0.765293  0  2.323965  0
O  O402  1  0.05211221  0.76243189  0.69885729  1  -1.227687  0  -0.438509  -0.765306  0  2.323925  0
O  O403  1  0.44788874  0.26243163  0.30114351  1  -1.227653  0  -0.438461  -0.765269  0  2.323803  0
O  O404  1  0.70737224  0.64918078  0.75857991  1  -1.182411  0  -0.372621  -0.615172  0  2.21691  0
O  O405  1  0.79262549  0.14918098  0.24141927  1  -1.182383  0  -0.372625  -0.615136  0  2.216771  0
O  O406  1  0.29262644  0.35081860  0.24141909  1  -1.182413  0  -0.372565  -0.615074  0  2.216906  0
O  O407  1  0.20737387  0.85081928  0.75858121  1  -1.182431  0  -0.37257  -0.615075  0  2.216925  0
O  O408  1  0.21565760  0.67425977  0.72223447  1  -1.203239  0  -0.432485  -0.733404  0  2.355493  0
O  O409  1  0.28434330  0.17425993  0.27776639  1  -1.203197  0  -0.432462  -0.73336  0  2.355475  0
O  O410  1  0.78434107  0.32573961  0.27776558  1  -1.203205  0  -0.432459  -0.733412  0  2.355451  0
O  O411  1  0.71565742  0.82573990  0.72223460  1  -1.203254  0  -0.43248  -0.733338  0  2.355643  0
O  O412  1  0.74872466  0.23755615  0.15278236  1  -1.174098  0  -0.38013  -0.621297  0  2.207539  0
O  O413  1  0.75127585  0.73755717  0.84721709  1  -1.174067  0  -0.3801  -0.621284  0  2.207602  0
O  O414  1  0.25127470  0.76244280  0.84721742  1  -1.174125  0  -0.380135  -0.621316  0  2.207682  0
O  O415  1  0.24872557  0.26244265  0.15278260  1  -1.174113  0  -0.380129  -0.621278  0  2.207679  0
