# generated using pymatgen
data_TbH15C24(NO)6
_symmetry_space_group_name_H-M   'P 1'
_cell_length_a   14.61245952
_cell_length_b   19.77944395
_cell_length_c   30.76806921
_cell_angle_alpha   90.00002054
_cell_angle_beta   102.34181418
_cell_angle_gamma   89.99997501
_symmetry_Int_Tables_number   1
_chemical_formula_structural   TbH15C24(NO)6
_chemical_formula_sum   'Tb8 H120 C192 N48 O48'
_cell_volume   8687.26837812
_cell_formula_units_Z   8
loop_
 _symmetry_equiv_pos_site_id
 _symmetry_equiv_pos_as_xyz
  1  'x, y, z'
loop_
 _atom_site_type_symbol
 _atom_site_label
 _atom_site_symmetry_multiplicity
 _atom_site_fract_x
 _atom_site_fract_y
 _atom_site_fract_z
 _atom_site_occupancy
 _atom_site_pbe_bader_charge
 _atom_site_pbe_bader_spin_density
 _atom_site_pbe_cm5_charge
 _atom_site_pbe_ddec_charge
 _atom_site_pbe_ddec_spin_density
 _atom_site_pbe_ddec_sum_bond_order
 _atom_site_pbe_magmom
Tb  Tb0  1  0.32017831  0.75554249  0.23761680  1  2.167689  0  1.542511  2.073207  0  2.217731  0
Tb  Tb1  1  0.17982154  0.25554225  0.76238343  1  2.167692  0  1.542518  2.073251  0  2.217669  0
Tb  Tb2  1  0.67982140  0.24445692  0.76238325  1  2.167605  0  1.542542  2.07324  0  2.217729  0
Tb  Tb3  1  0.82017887  0.74445767  0.23761701  1  2.167607  0  1.542523  2.073241  0  2.21768  0
Tb  Tb4  1  0.09009402  0.73839443  0.26676417  1  2.159322  0  1.536702  2.060682  0  2.21133  0
Tb  Tb5  1  0.40990584  0.23839410  0.73323573  1  2.159237  0  1.536699  2.060681  0  2.211282  0
Tb  Tb6  1  0.90990569  0.26160549  0.73323620  1  2.159283  0  1.536696  2.060692  0  2.211331  0
Tb  Tb7  1  0.59009317  0.76160582  0.26676424  1  2.159266  0  1.536697  2.060647  0  2.211371  0
H  H8  1  0.17548268  0.08899109  0.86133869  1  0.087712  0  0.111213  0.116658  0  0.983091  0
H  H9  1  0.32451725  0.58899127  0.13866151  1  0.087693  0  0.11119  0.116636  0  0.983084  0
H  H10  1  0.82451773  0.91100833  0.13866142  1  0.087686  0  0.111177  0.116618  0  0.983149  0
H  H11  1  0.67548316  0.41100916  0.86133828  1  0.087677  0  0.111182  0.11661  0  0.983137  0
H  H12  1  0.14582699  0.01187013  0.92083543  1  0.052392  0  0.100023  0.103783  0  0.999298  0
H  H13  1  0.35417227  0.51187027  0.07916501  1  0.052395  0  0.100019  0.103814  0  0.999294  0
H  H14  1  0.85417132  0.98813029  0.07916480  1  0.052372  0  0.100023  0.103818  0  0.999306  0
H  H15  1  0.64582814  0.48813015  0.92083478  1  0.052379  0  0.100019  0.10379  0  0.999304  0
H  H16  1  0.85246098  0.00533797  0.85738728  1  0.128417  0  0.101508  0.113561  0  1.064233  0
H  H17  1  0.64753802  0.50533719  0.14261344  1  0.128453  0  0.101452  0.113497  0  1.064224  0
H  H18  1  0.14753733  0.99466195  0.14261263  1  0.12845  0  0.101462  0.113501  0  1.064215  0
H  H19  1  0.35246239  0.49466171  0.85738700  1  0.128449  0  0.101448  0.113477  0  1.064243  0
H  H20  1  0.88313287  0.08313942  0.79903474  1  0.125387  0  0.107656  0.111153  0  1.01173  0
H  H21  1  0.61686679  0.58313920  0.20096574  1  0.125384  0  0.107656  0.111175  0  1.011712  0
H  H22  1  0.11686684  0.91686049  0.20096531  1  0.125391  0  0.107653  0.111173  0  1.011692  0
H  H23  1  0.38313362  0.41686072  0.79903405  1  0.125581  0  0.107649  0.111147  0  1.011722  0
H  H24  1  0.04469322  0.85661458  0.02678626  1  0.110061  0  0.095078  0.104681  0  1.070493  0
H  H25  1  0.45530657  0.35661487  0.97321432  1  0.110078  0  0.095072  0.104663  0  1.070509  0
H  H26  1  0.95530649  0.14338635  0.97321411  1  0.110103  0  0.095043  0.104651  0  1.070515  0
H  H27  1  0.54469454  0.64338555  0.02678619  1  0.110055  0  0.095063  0.104678  0  1.070514  0
H  H28  1  0.17565052  0.82668350  0.08990166  1  0.065767  0  0.104192  0.104716  0  1.003215  0
H  H29  1  0.32434929  0.32668380  0.91009826  1  0.06576  0  0.104186  0.104717  0  1.003211  0
H  H30  1  0.82434919  0.17331692  0.91009838  1  0.06577  0  0.104181  0.104695  0  1.003188  0
H  H31  1  0.67565112  0.67331662  0.08990218  1  0.065749  0  0.104191  0.104703  0  1.003224  0
H  H32  1  0.98216174  0.72229521  0.15381200  1  0.131889  0  0.112071  0.118023  0  1.049591  0
H  H33  1  0.51783925  0.22229609  0.84618799  1  0.131919  0  0.112069  0.118016  0  1.04957  0
H  H34  1  0.01783937  0.27770470  0.84618786  1  0.131895  0  0.112074  0.118019  0  1.049592  0
H  H35  1  0.48216046  0.77770383  0.15381205  1  0.131906  0  0.112058  0.118026  0  1.049596  0
H  H36  1  0.85271184  0.75093505  0.09181835  1  0.077879  0  0.106935  0.116328  0  1.001913  0
H  H37  1  0.64728773  0.25093592  0.90818216  1  0.077905  0  0.10695  0.116319  0  1.001964  0
H  H38  1  0.14728857  0.24906436  0.90818177  1  0.077911  0  0.106946  0.116353  0  1.001974  0
H  H39  1  0.35271268  0.74906400  0.09181796  1  0.077914  0  0.106914  0.116291  0  1.001956  0
H  H40  1  0.66870131  0.13892769  0.84849135  1  0.139338  0  0.111841  0.118304  0  1.044315  0
H  H41  1  0.83129762  0.63892839  0.15150777  1  0.139314  0  0.111816  0.118283  0  1.044322  0
H  H42  1  0.33129770  0.86107273  0.15150700  1  0.139331  0  0.111811  0.118229  0  1.044387  0
H  H43  1  0.16870209  0.36107254  0.84849163  1  0.139327  0  0.111845  0.118316  0  1.044322  0
H  H44  1  0.73517237  0.04884074  0.90140009  1  0.071816  0  0.103918  0.111963  0  1.026491  0
H  H45  1  0.76482591  0.54883990  0.09859959  1  0.071819  0  0.103913  0.111941  0  1.026444  0
H  H46  1  0.26482664  0.95116070  0.09859859  1  0.071861  0  0.103922  0.11196  0  1.026468  0
H  H47  1  0.23517380  0.45116001  0.90140013  1  0.071806  0  0.10392  0.111953  0  1.026467  0
H  H48  1  0.51663393  0.91299447  0.83751130  1  0.05374  0  0.102752  0.108963  0  0.998636  0
H  H49  1  0.98336837  0.41299633  0.16248887  1  0.053759  0  0.10276  0.109021  0  0.99865  0
H  H50  1  0.48336718  0.08700444  0.16248954  1  0.053719  0  0.102755  0.109012  0  0.998664  0
H  H51  1  0.01663345  0.58700460  0.83751106  1  0.053738  0  0.102747  0.109007  0  0.998648  0
H  H52  1  0.44942208  0.00475104  0.78444866  1  0.104522  0  0.112276  0.118366  0  0.982609  0
H  H53  1  0.05057859  0.50475388  0.21555095  1  0.104618  0  0.112273  0.118333  0  0.982628  0
H  H54  1  0.55057693  0.99524686  0.21555098  1  0.104665  0  0.112266  0.11836  0  0.982602  0
H  H55  1  0.94942182  0.49524705  0.78444917  1  0.104608  0  0.112279  0.118375  0  0.982643  0
H  H56  1  0.82686865  0.13092183  0.65414159  1  0.151336  0  0.11387  0.127654  0  1.028548  0
H  H57  1  0.67313098  0.63092217  0.34585825  1  0.151338  0  0.113863  0.127648  0  1.028547  0
H  H58  1  0.17313176  0.86907859  0.34585853  1  0.151344  0  0.113886  0.127651  0  1.028559  0
H  H59  1  0.32686873  0.36907825  0.65414180  1  0.151337  0  0.113865  0.127665  0  1.028549  0
H  H60  1  0.83554283  0.03604604  0.60280083  1  0.08522  0  0.103737  0.111748  0  1.025572  0
H  H61  1  0.66445685  0.53604541  0.39719899  1  0.085228  0  0.103707  0.111691  0  1.02566  0
H  H62  1  0.16445758  0.96395438  0.39719929  1  0.085211  0  0.103738  0.111786  0  1.025593  0
H  H63  1  0.33554426  0.46395401  0.60280120  1  0.085207  0  0.103722  0.111717  0  1.025585  0
H  H64  1  0.69936374  0.90573080  0.68201672  1  0.074527  0  0.104506  0.110907  0  0.995714  0
H  H65  1  0.80063715  0.40573078  0.31798298  1  0.074509  0  0.10455  0.110933  0  0.995638  0
H  H66  1  0.30063527  0.09427013  0.31798260  1  0.074503  0  0.104532  0.110898  0  0.99568  0
H  H67  1  0.19936326  0.59427015  0.68201616  1  0.074505  0  0.104546  0.110962  0  0.995619  0
H  H68  1  0.68878125  0.00244809  0.73292280  1  0.115287  0  0.112057  0.117841  0  0.986452  0
H  H69  1  0.81121845  0.50244885  0.26707701  1  0.115383  0  0.112046  0.117814  0  0.98645  0
H  H70  1  0.31121776  0.99755183  0.26707717  1  0.115386  0  0.112046  0.117806  0  0.986474  0
H  H71  1  0.18877706  0.49755208  0.73292130  1  0.115253  0  0.112011  0.117774  0  0.986523  0
H  H72  1  0.77466090  0.71877854  0.42460335  1  0.056094  0  0.105123  0.112278  0  0.995984  0
H  H73  1  0.72534009  0.21877920  0.57539665  1  0.056158  0  0.10511  0.112243  0  0.995959  0
H  H74  1  0.22533881  0.28121935  0.57539735  1  0.056233  0  0.105128  0.1123  0  0.995872  0
H  H75  1  0.27466032  0.78121971  0.42460282  1  0.056127  0  0.105132  0.112274  0  0.995923  0
H  H76  1  0.83299565  0.70059347  0.35600430  1  0.106826  0  0.111363  0.115799  0  1.020156  0
H  H77  1  0.66700605  0.20059469  0.64399576  1  0.107182  0  0.11136  0.115786  0  1.020175  0
H  H78  1  0.16700336  0.29940291  0.64399600  1  0.107177  0  0.111372  0.115809  0  1.020213  0
H  H79  1  0.33299646  0.79940422  0.35600457  1  0.107176  0  0.111368  0.11581  0  1.020208  0
H  H80  1  0.06443870  0.83384154  0.40468729  1  0.082457  0  0.105287  0.107341  0  1.002034  0
H  H81  1  0.43556110  0.33384062  0.59531198  1  0.082471  0  0.105272  0.107298  0  1.001994  0
H  H82  1  0.93555751  0.16616040  0.59531175  1  0.082389  0  0.105284  0.107266  0  1.002132  0
H  H83  1  0.56444211  0.66615980  0.40468810  1  0.082358  0  0.105264  0.107255  0  1.002094  0
H  H84  1  0.00709750  0.85205088  0.47413799  1  0.132461  0  0.095699  0.103521  0  1.081883  0
H  H85  1  0.49290299  0.35205041  0.52586168  1  0.132458  0  0.095669  0.103467  0  1.082005  0
H  H86  1  0.99290080  0.14794853  0.52586191  1  0.132446  0  0.095652  0.103455  0  1.081872  0
H  H87  1  0.50709882  0.64794951  0.47413793  1  0.132456  0  0.095682  0.1035  0  1.081932  0
H  H88  1  0.20237393  0.01707745  0.55824993  1  0.055799  0  0.100415  0.104472  0  0.998858  0
H  H89  1  0.29762604  0.51707730  0.44174961  1  0.055806  0  0.100421  0.104485  0  0.998854  0
H  H90  1  0.79762578  0.98292297  0.44175011  1  0.055993  0  0.100399  0.104435  0  0.9989  0
H  H91  1  0.70237437  0.48292262  0.55825018  1  0.0558  0  0.10042  0.104472  0  0.998859  0
H  H92  1  0.29288266  0.10368150  0.60870270  1  0.1028  0  0.110259  0.116594  0  0.98618  0
H  H93  1  0.20711867  0.60368186  0.39129733  1  0.102814  0  0.110262  0.116589  0  0.986199  0
H  H94  1  0.70711845  0.89631842  0.39129749  1  0.102806  0  0.110271  0.116596  0  0.986229  0
H  H95  1  0.79288175  0.39631806  0.60870279  1  0.102809  0  0.110273  0.11662  0  0.98617  0
H  H96  1  0.09608712  0.09002698  0.69386877  1  0.118557  0  0.114632  0.119277  0  0.981262  0
H  H97  1  0.40391211  0.59002621  0.30613104  1  0.118207  0  0.114649  0.119289  0  0.981252  0
H  H98  1  0.90391259  0.90997345  0.30613160  1  0.118219  0  0.114614  0.119219  0  0.981307  0
H  H99  1  0.59608760  0.40997320  0.69386901  1  0.118197  0  0.11464  0.119272  0  0.98127  0
H  H100  1  0.00469885  0.00333040  0.64398717  1  0.102055  0  0.102646  0.115994  0  1.050616  0
H  H101  1  0.49530042  0.50332964  0.35601230  1  0.102059  0  0.102641  0.116  0  1.050606  0
H  H102  1  0.99530016  0.99667053  0.35601281  1  0.102065  0  0.102627  0.115999  0  1.050665  0
H  H103  1  0.50469929  0.49666977  0.64398710  1  0.102051  0  0.102641  0.116001  0  1.050623  0
H  H104  1  0.04557011  0.94991624  0.95062116  1  0.44976  0  0.330095  0.281926  0  0.913631  0
H  H105  1  0.45442893  0.44991653  0.04937903  1  0.449762  0  0.330107  0.281937  0  0.913673  0
H  H106  1  0.95442960  0.05008367  0.04937888  1  0.449759  0  0.33012  0.28196  0  0.913666  0
H  H107  1  0.54557148  0.55008440  0.95062076  1  0.449757  0  0.330127  0.281961  0  0.913631  0
H  H108  1  0.79939971  0.80388244  0.02588408  1  0.46547  0  0.330087  0.285513  0  0.911198  0
H  H109  1  0.70059983  0.30388231  0.97411676  1  0.465602  0  0.330069  0.285455  0  0.911272  0
H  H110  1  0.20059930  0.19611799  0.97411622  1  0.465483  0  0.330067  0.285457  0  0.911267  0
H  H111  1  0.29940128  0.69611761  0.02588408  1  0.465497  0  0.330064  0.285433  0  0.911317  0
H  H112  1  0.61604943  0.89083865  0.91183113  1  0.457599  0  0.331731  0.289313  0  0.905615  0
H  H113  1  0.88395147  0.39083797  0.08816889  1  0.457602  0  0.331743  0.289237  0  0.905614  0
H  H114  1  0.38395098  0.10916329  0.08816898  1  0.457587  0  0.331739  0.289205  0  0.905636  0
H  H115  1  0.11604894  0.60916246  0.91183090  1  0.457596  0  0.331769  0.289263  0  0.905591  0
H  H116  1  0.71766480  0.87536541  0.60637416  1  0.468477  0  0.332609  0.290414  0  0.904087  0
H  H117  1  0.78233471  0.37536544  0.39362604  1  0.468604  0  0.332613  0.290422  0  0.904083  0
H  H118  1  0.28233491  0.12463451  0.39362653  1  0.468482  0  0.332605  0.290407  0  0.904125  0
H  H119  1  0.21766640  0.62463448  0.60637349  1  0.468507  0  0.332605  0.290393  0  0.904098  0
H  H120  1  0.08647064  0.94228497  0.54379838  1  0.453314  0  0.328429  0.278036  0  0.917001  0
H  H121  1  0.41352911  0.44228550  0.45620189  1  0.453309  0  0.32843  0.278017  0  0.917011  0
H  H122  1  0.91352907  0.05771495  0.45620199  1  0.453301  0  0.328476  0.27809  0  0.916951  0
H  H123  1  0.58647130  0.55771442  0.54379823  1  0.453301  0  0.328499  0.278105  0  0.916926  0
H  H124  1  0.78345061  0.77723470  0.49020862  1  0.474867  0  0.330416  0.285841  0  0.909525  0
H  H125  1  0.71655036  0.27723482  0.50979073  1  0.474872  0  0.330464  0.285873  0  0.909458  0
H  H126  1  0.21654980  0.22276370  0.50979279  1  0.474445  0  0.33042  0.285861  0  0.909417  0
H  H127  1  0.28345076  0.72276460  0.49020815  1  0.4749  0  0.330406  0.285843  0  0.909451  0
C  C128  1  0.04729813  0.14196629  0.79327204  1  1.553111  0  0.232351  0.648232  0  4.176164  0
C  C129  1  0.45270177  0.64196697  0.20672882  1  1.553114  0  0.232448  0.648348  0  4.176005  0
C  C130  1  0.95270158  0.85803363  0.20672800  1  1.553106  0  0.23241  0.648319  0  4.176027  0
C  C131  1  0.54729864  0.35803295  0.79327162  1  1.553109  0  0.232409  0.648313  0  4.175956  0
C  C132  1  0.03117888  0.09115547  0.82634570  1  0.010227  0  -0.026164  -0.070188  0  3.987468  0
C  C133  1  0.46881964  0.59115562  0.17365468  1  0.010306  0  -0.026149  -0.070198  0  3.987362  0
C  C134  1  0.96882083  0.90884394  0.17365434  1  0.010293  0  -0.026175  -0.070256  0  3.987397  0
C  C135  1  0.53117867  0.40884379  0.82634522  1  0.010262  0  -0.026168  -0.070219  0  3.98731  0
C  C136  1  0.10515929  0.07006488  0.86069703  1  -0.048999  0  -0.080844  -0.065693  0  3.993695  0
C  C137  1  0.39483994  0.57006555  0.13930375  1  -0.048911  0  -0.080761  -0.065586  0  3.993521  0
C  C138  1  0.89483831  0.92993453  0.13930280  1  -0.049078  0  -0.080741  -0.06554  0  3.993507  0
C  C139  1  0.60516187  0.42993488  0.86069651  1  -0.04902  0  -0.080744  -0.06556  0  3.99347  0
C  C140  1  0.08822594  0.02713548  0.89373651  1  -0.072789  0  -0.103994  -0.206483  0  4.011523  0
C  C141  1  0.41177332  0.52713612  0.10626393  1  -0.072934  0  -0.104015  -0.206554  0  4.011456  0
C  C142  1  0.91177307  0.97286444  0.10626346  1  -0.072782  0  -0.10403  -0.206584  0  4.011577  0
C  C143  1  0.58822780  0.47286532  0.89373593  1  -0.072771  0  -0.104024  -0.206516  0  4.011476  0
C  C144  1  0.99677467  0.00393043  0.89319413  1  0.352181  0  0.101435  0.253848  0  4.035618  0
C  C145  1  0.50322503  0.50393070  0.10680633  1  0.352314  0  0.101363  0.253741  0  4.035666  0
C  C146  1  0.00322364  0.99606848  0.10680577  1  0.351792  0  0.101432  0.253842  0  4.035553  0
C  C147  1  0.49677608  0.49607023  0.89319353  1  0.352342  0  0.101368  0.253731  0  4.035643  0
C  C148  1  0.92292355  0.02334655  0.85817670  1  0.007312  0  -0.101408  -0.18968  0  3.959563  0
C  C149  1  0.57707473  0.52334681  0.14182395  1  0.007238  0  -0.101325  -0.189598  0  3.959585  0
C  C150  1  0.07707476  0.97665236  0.14182320  1  0.007339  0  -0.101328  -0.189575  0  3.959479  0
C  C151  1  0.42292498  0.47665311  0.85817642  1  0.007316  0  -0.101304  -0.189537  0  3.959483  0
C  C152  1  0.94085614  0.06675474  0.82550485  1  -0.054676  0  -0.075526  -0.053391  0  3.963875  0
C  C153  1  0.55914492  0.56675452  0.17449609  1  -0.054649  0  -0.075563  -0.053438  0  3.963907  0
C  C154  1  0.05914357  0.93324518  0.17449519  1  -0.054689  0  -0.075539  -0.053412  0  3.963877  0
C  C155  1  0.44085689  0.43324490  0.82550482  1  -0.054898  0  -0.075549  -0.053419  0  3.963974  0
C  C156  1  0.90820169  0.93387369  0.93917157  1  1.581922  0  0.347738  0.542694  0  4.141943  0
C  C157  1  0.59179779  0.43387461  0.06082930  1  1.581977  0  0.347729  0.542597  0  4.141954  0
C  C158  1  0.09179802  0.06612522  0.06082848  1  1.581922  0  0.347751  0.542688  0  4.141957  0
C  C159  1  0.40820192  0.56612531  0.93917140  1  1.581927  0  0.347745  0.542669  0  4.14198  0
C  C160  1  0.75322880  0.91374777  0.92782040  1  1.555542  0  0.344721  0.55203  0  4.137557  0
C  C161  1  0.74677139  0.41374712  0.07217956  1  1.555542  0  0.344713  0.552069  0  4.137488  0
C  C162  1  0.24677091  0.08625316  0.07217932  1  1.55558  0  0.344621  0.5519  0  4.137566  0
C  C163  1  0.25322902  0.58625330  0.92782088  1  1.555521  0  0.344653  0.551946  0  4.137635  0
C  C164  1  0.85217537  0.86386011  0.98531565  1  1.573844  0  0.343139  0.556089  0  4.126208  0
C  C165  1  0.64782415  0.36385998  0.01468488  1  1.574141  0  0.343106  0.55606  0  4.126379  0
C  C166  1  0.14782364  0.13614081  0.01468432  1  1.57409  0  0.343169  0.556131  0  4.126134  0
C  C167  1  0.35217626  0.63613994  0.98531524  1  1.574105  0  0.343091  0.556064  0  4.126227  0
C  C168  1  0.94005184  0.80563424  0.05471210  1  0.330054  0  0.106922  0.261742  0  4.024477  0
C  C169  1  0.55994700  0.30563516  0.94528867  1  0.330075  0  0.106854  0.261666  0  4.024471  0
C  C170  1  0.05994717  0.19436618  0.94528820  1  0.330067  0  0.106917  0.261773  0  4.024269  0
C  C171  1  0.44005411  0.69436476  0.05471184  1  0.330055  0  0.106999  0.261901  0  4.024185  0
C  C172  1  0.03213526  0.82632759  0.05428664  1  -0.01708  0  -0.106591  -0.194919  0  3.983251  0
C  C173  1  0.46786525  0.32632787  0.94571368  1  -0.017141  0  -0.106562  -0.194885  0  3.983273  0
C  C174  1  0.96786515  0.17367284  0.94571348  1  -0.017111  0  -0.106552  -0.194941  0  3.983242  0
C  C175  1  0.53213586  0.67367256  0.05428683  1  -0.017092  0  -0.106593  -0.195009  0  3.983316  0
C  C176  1  0.10469463  0.80937413  0.08957681  1  -0.008383  0  -0.080995  -0.067172  0  3.997846  0
C  C177  1  0.39530518  0.30937441  0.91042311  1  -0.008781  0  -0.080997  -0.067183  0  3.997833  0
C  C178  1  0.89530508  0.19062680  0.91042258  1  -0.008769  0  -0.081012  -0.067138  0  3.997762  0
C  C179  1  0.60469593  0.69062602  0.08957741  1  -0.008785  0  -0.080989  -0.06711  0  3.997787  0
C  C180  1  0.08847050  0.77211070  0.12599521  1  -0.030655  0  -0.02728  -0.068761  0  4.005638  0
C  C181  1  0.41153004  0.27211197  0.87400477  1  -0.030058  0  -0.027252  -0.068748  0  4.005573  0
C  C182  1  0.91152991  0.22788972  0.87400490  1  -0.030145  0  -0.027273  -0.068777  0  4.005554  0
C  C183  1  0.58846967  0.72788946  0.12599528  1  -0.030254  0  -0.027285  -0.068753  0  4.005598  0
C  C184  1  0.99696542  0.75049519  0.12579544  1  -0.01205  0  -0.075487  -0.059741  0  3.958634  0
C  C185  1  0.50303555  0.25049608  0.87420489  1  -0.012076  0  -0.075465  -0.05964  0  3.958627  0
C  C186  1  0.00303499  0.24950473  0.87420435  1  -0.012091  0  -0.075426  -0.059619  0  3.958533  0
C  C187  1  0.49696556  0.74950485  0.12579563  1  -0.0121  0  -0.075493  -0.059793  0  3.958616  0
C  C188  1  0.92383338  0.76669130  0.09065332  1  -0.046542  0  -0.096443  -0.196781  0  3.969045  0
C  C189  1  0.57616689  0.26669118  0.90934629  1  -0.046563  0  -0.096444  -0.196778  0  3.969121  0
C  C190  1  0.07616703  0.23330963  0.90934615  1  -0.046578  0  -0.096465  -0.196853  0  3.969005  0
C  C191  1  0.42383352  0.73330925  0.09065350  1  -0.046544  0  -0.096412  -0.196731  0  3.968919  0
C  C192  1  0.16699696  0.76039500  0.16411725  1  1.506025  0  0.214616  0.621728  0  4.156047  0
C  C193  1  0.33300358  0.26039577  0.83588273  1  1.505916  0  0.214622  0.621646  0  4.156098  0
C  C194  1  0.83300275  0.23960592  0.83588280  1  1.505759  0  0.214575  0.621702  0  4.156097  0
C  C195  1  0.66699753  0.73960566  0.16411745  1  1.506056  0  0.214612  0.621716  0  4.156078  0
C  C196  1  0.51288387  0.13200637  0.78210464  1  1.482091  0  0.214496  0.614539  0  4.158247  0
C  C197  1  0.98711577  0.63200756  0.21789487  1  1.482105  0  0.214532  0.614528  0  4.158266  0
C  C198  1  0.48711444  0.86799253  0.21789428  1  1.482044  0  0.214439  0.614487  0  4.158355  0
C  C199  1  0.01288394  0.36799287  0.78210518  1  1.482111  0  0.214498  0.614565  0  4.158172  0
C  C200  1  0.55467426  0.07762770  0.81296491  1  0.002636  0  -0.018801  -0.049285  0  3.972857  0
C  C201  1  0.94532680  0.57762837  0.18703474  1  0.002626  0  -0.018778  -0.049226  0  3.972861  0
C  C202  1  0.44532475  0.92237222  0.18703409  1  0.002645  0  -0.018721  -0.049126  0  3.972797  0
C  C203  1  0.05467431  0.42237256  0.81296577  1  0.002299  0  -0.018729  -0.049173  0  3.97281  0
C  C204  1  0.63518673  0.08951478  0.84607864  1  -0.043914  0  -0.072967  -0.057348  0  3.944295  0
C  C205  1  0.86481293  0.58951546  0.15391989  1  -0.043911  0  -0.072929  -0.057339  0  3.944216  0
C  C206  1  0.36481228  0.91048513  0.15392004  1  -0.043942  0  -0.072897  -0.057211  0  3.944213  0
C  C207  1  0.13518678  0.41048445  0.84607918  1  -0.043927  0  -0.072967  -0.057375  0  3.944208  0
C  C208  1  0.67280366  0.03902247  0.87587190  1  0.022287  0  -0.096576  -0.183722  0  3.97359  0
C  C209  1  0.82719882  0.53902213  0.12412821  1  0.022606  0  -0.096579  -0.183698  0  3.973695  0
C  C210  1  0.32719745  0.96097846  0.12412764  1  0.022069  0  -0.096595  -0.183772  0  3.973634  0
C  C211  1  0.17280299  0.46097779  0.87587205  1  0.022141  0  -0.096588  -0.183697  0  3.973504  0
C  C212  1  0.63032801  0.97495273  0.87313773  1  0.327816  0  0.102192  0.253173  0  4.038934  0
C  C213  1  0.86967145  0.47495410  0.12686151  1  0.327453  0  0.102184  0.253205  0  4.038947  0
C  C214  1  0.36967100  0.02504719  0.12686126  1  0.327957  0  0.102187  0.25321  0  4.038893  0
C  C215  1  0.13032826  0.52504734  0.87313853  1  0.327972  0  0.10219  0.253186  0  4.038944  0
C  C216  1  0.54948423  0.96281943  0.83996003  1  -0.076795  0  -0.103268  -0.20778  0  4.010409  0
C  C217  1  0.95051874  0.46282028  0.16004022  1  -0.076733  0  -0.103309  -0.207983  0  4.01042  0
C  C218  1  0.45051758  0.03718150  0.16003990  1  -0.076713  0  -0.103294  -0.207992  0  4.010437  0
C  C219  1  0.04948237  0.53718065  0.83995997  1  -0.076735  0  -0.103348  -0.208036  0  4.010482  0
C  C220  1  0.51206430  0.01371792  0.81025562  1  0.025631  0  -0.07689  -0.066985  0  3.980515  0
C  C221  1  0.98793610  0.51372060  0.18974394  1  0.025525  0  -0.076925  -0.066937  0  3.980687  0
C  C222  1  0.48793611  0.98628048  0.18974417  1  0.025494  0  -0.076903  -0.066981  0  3.980549  0
C  C223  1  0.01206221  0.48628032  0.81025564  1  0.02585  0  -0.076878  -0.066917  0  3.980605  0
C  C224  1  0.74862336  0.13034399  0.72586109  1  1.497887  0  0.211001  0.605632  0  4.192022  0
C  C225  1  0.75137698  0.63034427  0.27413914  1  1.497865  0  0.211003  0.605648  0  4.192006  0
C  C226  1  0.25137705  0.86965593  0.27413935  1  1.497892  0  0.210925  0.605437  0  4.192293  0
C  C227  1  0.24862133  0.36965616  0.72586044  1  1.497901  0  0.210922  0.605511  0  4.192093  0
C  C228  1  0.75715317  0.07259311  0.69670073  1  -0.041631  0  -0.020226  -0.053985  0  3.98455  0
C  C229  1  0.74284789  0.57259392  0.30329892  1  -0.04145  0  -0.020246  -0.053987  0  3.984543  0
C  C230  1  0.24284654  0.92740731  0.30329964  1  -0.041591  0  -0.020215  -0.053898  0  3.984563  0
C  C231  1  0.25715042  0.42740752  0.69670001  1  -0.041626  0  -0.020125  -0.053744  0  3.984405  0
C  C232  1  0.79833093  0.08166565  0.65990903  1  -0.028213  0  -0.07374  -0.064654  0  3.941975  0
C  C233  1  0.70167013  0.58166547  0.34009127  1  -0.028341  0  -0.073724  -0.064617  0  3.941981  0
C  C234  1  0.20166948  0.91833427  0.34009109  1  -0.028167  0  -0.073735  -0.064621  0  3.942001  0
C  C235  1  0.29833098  0.41833394  0.65990924  1  -0.028149  0  -0.073754  -0.064775  0  3.942024  0
C  C236  1  0.80360057  0.02850489  0.63120799  1  -0.00974  0  -0.095927  -0.181853  0  3.980144  0
C  C237  1  0.69640052  0.52850524  0.36879230  1  -0.009761  0  -0.095928  -0.181887  0  3.980053  0
C  C238  1  0.19639984  0.97149553  0.36879278  1  -0.009768  0  -0.095951  -0.181996  0  3.980025  0
C  C239  1  0.30360129  0.47149518  0.63120764  1  -0.009647  0  -0.095914  -0.181775  0  3.980074  0
C  C240  1  0.76821608  0.96454436  0.63898647  1  0.357945  0  0.102844  0.253866  0  4.035378  0
C  C241  1  0.73178759  0.46454388  0.36101320  1  0.357919  0  0.102785  0.253889  0  4.035267  0
C  C242  1  0.23178573  0.03545657  0.36101346  1  0.357901  0  0.102867  0.254027  0  4.035161  0
C  C243  1  0.26821493  0.53545604  0.63898615  1  0.357821  0  0.102838  0.25387  0  4.035383  0
C  C244  1  0.72650234  0.95539548  0.67577200  1  -0.078945  0  -0.099757  -0.203355  0  3.999188  0
C  C245  1  0.77349923  0.45539548  0.32422908  1  -0.078933  0  -0.099714  -0.203274  0  3.999012  0
C  C246  1  0.27349807  0.04460545  0.32422811  1  -0.078952  0  -0.099725  -0.203286  0  3.999105  0
C  C247  1  0.22650048  0.54460495  0.67577097  1  -0.078948  0  -0.099747  -0.203398  0  3.999093  0
C  C248  1  0.72091230  0.00901499  0.70432296  1  -0.023408  0  -0.073771  -0.059655  0  3.971213  0
C  C249  1  0.77908880  0.50901629  0.29567635  1  -0.023502  0  -0.073728  -0.059629  0  3.970975  0
C  C250  1  0.27908812  0.99098492  0.29567651  1  -0.023549  0  -0.073773  -0.059664  0  3.97115  0
C  C251  1  0.22090881  0.49098464  0.70432218  1  -0.023373  0  -0.073768  -0.059639  0  3.971178  0
C  C252  1  0.83272315  0.89902732  0.58326291  1  1.570209  0  0.346187  0.553847  0  4.129882  0
C  C253  1  0.66727635  0.39902740  0.41673632  1  1.570152  0  0.346201  0.55393  0  4.129628  0
C  C254  1  0.16727586  0.10097209  0.41673706  1  1.570141  0  0.346187  0.553933  0  4.129703  0
C  C255  1  0.33272477  0.60097251  0.58326322  1  1.57014  0  0.346128  0.553805  0  4.129822  0
C  C256  1  0.87142413  0.84473053  0.52517177  1  1.512982  0  0.344302  0.556251  0  4.123566  0
C  C257  1  0.62857540  0.34473015  0.47482875  1  1.512956  0  0.344246  0.556199  0  4.123613  0
C  C258  1  0.12857558  0.15526889  0.47482957  1  1.512844  0  0.344254  0.556277  0  4.123606  0
C  C259  1  0.37142501  0.65526977  0.52517071  1  1.513012  0  0.344244  0.556155  0  4.123625  0
C  C260  1  0.88662304  0.78747258  0.45409882  1  0.304038  0  0.104949  0.258872  0  4.018406  0
C  C261  1  0.61337722  0.28747224  0.54590079  1  0.304031  0  0.104935  0.258827  0  4.018503  0
C  C262  1  0.11337457  0.21252734  0.54590134  1  0.303919  0  0.104899  0.258674  0  4.018577  0
C  C263  1  0.38662460  0.71252667  0.45409947  1  0.303977  0  0.104964  0.258834  0  4.018387  0
C  C264  1  0.83932190  0.74344606  0.42072065  1  -0.011237  0  -0.096631  -0.198439  0  3.970646  0
C  C265  1  0.66067838  0.24344674  0.57927895  1  -0.011215  0  -0.096641  -0.198407  0  3.970636  0
C  C266  1  0.16067431  0.25655386  0.57927806  1  -0.01128  0  -0.096645  -0.198452  0  3.970563  0
C  C267  1  0.33932414  0.75655419  0.42072073  1  -0.011198  0  -0.096686  -0.198455  0  3.970578  0
C  C268  1  0.87199197  0.73316921  0.38199373  1  0.026901  0  -0.072656  -0.055511  0  3.950931  0
C  C269  1  0.62800832  0.23316942  0.61800587  1  0.026452  0  -0.07258  -0.055422  0  3.950955  0
C  C270  1  0.12800564  0.26682970  0.61800610  1  0.026613  0  -0.07262  -0.055463  0  3.950963  0
C  C271  1  0.37199349  0.76683000  0.38199406  1  0.026591  0  -0.072569  -0.055418  0  3.950923  0
C  C272  1  0.95296663  0.76648055  0.37569966  1  -0.061487  0  -0.024971  -0.067188  0  3.997622  0
C  C273  1  0.54703504  0.26648028  0.62430041  1  -0.06148  0  -0.02494  -0.067126  0  3.997589  0
C  C274  1  0.04703238  0.23351886  0.62430031  1  -0.061212  0  -0.024971  -0.067203  0  3.99771  0
C  C275  1  0.45296817  0.73351863  0.37569966  1  -0.061202  0  -0.024979  -0.067214  0  3.997686  0
C  C276  1  0.00166472  0.80809159  0.40977429  1  -0.070532  0  -0.080746  -0.065642  0  4.007365  0
C  C277  1  0.49833650  0.30809267  0.59022577  1  -0.070505  0  -0.080741  -0.065635  0  4.007342  0
C  C278  1  0.99833219  0.19190783  0.59022580  1  -0.070475  0  -0.080702  -0.065473  0  4.007462  0
C  C279  1  0.50166741  0.69190877  0.40977437  1  -0.070261  0  -0.080728  -0.065558  0  4.007471  0
C  C280  1  0.97007620  0.81859174  0.44849078  1  0.030672  0  -0.10751  -0.195103  0  3.995835  0
C  C281  1  0.52992404  0.31859194  0.55150884  1  0.030668  0  -0.107484  -0.195037  0  3.995988  0
C  C282  1  0.02992281  0.18140818  0.55150952  1  0.030902  0  -0.107499  -0.195072  0  3.995898  0
C  C283  1  0.47007707  0.68140849  0.44849070  1  0.030736  0  -0.107504  -0.195088  0  3.995885  0
C  C284  1  0.98812479  0.76288892  0.33431146  1  1.523142  0  0.214536  0.612063  0  4.175481  0
C  C285  1  0.51187618  0.26288869  0.66568822  1  1.523048  0  0.214589  0.612099  0  4.175375  0
C  C286  1  0.01187492  0.23710948  0.66568858  1  1.522588  0  0.214534  0.612056  0  4.175347  0
C  C287  1  0.48812493  0.73711022  0.33431132  1  1.522596  0  0.214486  0.612045  0  4.175478  0
C  C288  1  0.96896192  0.92291371  0.56380998  1  1.580539  0  0.347239  0.542323  0  4.156344  0
C  C289  1  0.53103756  0.42291283  0.43618958  1  1.580505  0  0.347264  0.542294  0  4.156488  0
C  C290  1  0.03103779  0.07708621  0.43619007  1  1.580529  0  0.34727  0.542348  0  4.156458  0
C  C291  1  0.46896285  0.57708658  0.56381021  1  1.580512  0  0.347311  0.542407  0  4.156364  0
C  C292  1  0.09767034  0.00462970  0.59798172  1  0.346059  0  0.102723  0.254219  0  4.03954  0
C  C293  1  0.40232963  0.50462900  0.40201814  1  0.34606  0  0.102704  0.254195  0  4.039562  0
C  C294  1  0.90232937  0.99537122  0.40201865  1  0.345967  0  0.102696  0.25417  0  4.039576  0
C  C295  1  0.59767078  0.49537042  0.59798132  1  0.345756  0  0.102704  0.254161  0  4.039604  0
C  C296  1  0.17934567  0.03307639  0.58820111  1  -0.065336  0  -0.103693  -0.207412  0  4.018644  0
C  C297  1  0.32065359  0.53307622  0.41179868  1  -0.065396  0  -0.103694  -0.207435  0  4.018711  0
C  C298  1  0.82065334  0.96692403  0.41179918  1  -0.06544  0  -0.103693  -0.207374  0  4.018725  0
C  C299  1  0.67934682  0.46692370  0.58820143  1  -0.065054  0  -0.103687  -0.207369  0  4.018673  0
C  C300  1  0.22973934  0.08126127  0.61601383  1  0.015314  0  -0.077536  -0.060202  0  3.99234  0
C  C301  1  0.27026059  0.58126008  0.38398572  1  0.015369  0  -0.077522  -0.060194  0  3.992313  0
C  C302  1  0.77026037  0.91874017  0.38398621  1  0.01539  0  -0.077518  -0.060196  0  3.992298  0
C  C303  1  0.72973912  0.41873933  0.61601433  1  0.015351  0  -0.077542  -0.06026  0  3.992329  0
C  C304  1  0.20004070  0.10230080  0.65433360  1  -0.013551  0  -0.022672  -0.061442  0  3.979957  0
C  C305  1  0.29995923  0.60230009  0.34566596  1  -0.013508  0  -0.022682  -0.061367  0  3.979834  0
C  C306  1  0.79995831  0.89769962  0.34566638  1  -0.013889  0  -0.022668  -0.061346  0  3.979723  0
C  C307  1  0.70004119  0.39769982  0.65433351  1  -0.013514  0  -0.022681  -0.061366  0  3.979884  0
C  C308  1  0.11912630  0.07369132  0.66409876  1  -0.110122  0  -0.071049  -0.053466  0  3.954371  0
C  C309  1  0.38087293  0.57369058  0.33590137  1  -0.109771  0  -0.071056  -0.053481  0  3.954388  0
C  C310  1  0.88087341  0.92630961  0.33590161  1  -0.109361  0  -0.071073  -0.053459  0  3.9544  0
C  C311  1  0.61912678  0.42630883  0.66409867  1  -0.109756  0  -0.071053  -0.053451  0  3.954385  0
C  C312  1  0.06766113  0.02517681  0.63640603  1  0.057027  0  -0.101332  -0.192267  0  3.952897  0
C  C313  1  0.43233813  0.52517657  0.36359409  1  0.057026  0  -0.101339  -0.192295  0  3.952909  0
C  C314  1  0.93233788  0.97482361  0.36359394  1  0.057001  0  -0.101291  -0.192273  0  3.952961  0
C  C315  1  0.56766088  0.47482284  0.63640621  1  0.057013  0  -0.101353  -0.192317  0  3.952897  0
C  C316  1  0.25538072  0.15432855  0.68317406  1  1.526504  0  0.221237  0.63545  0  4.168466  0
C  C317  1  0.24461987  0.65432835  0.31682590  1  1.526408  0  0.221257  0.635383  0  4.168474  0
C  C318  1  0.74462039  0.84567238  0.31682645  1  1.526353  0  0.221261  0.635376  0  4.168459  0
C  C319  1  0.75537984  0.34567157  0.68317415  1  1.526449  0  0.22126  0.635429  0  4.168444  0
N  N320  1  0.98588626  0.96220106  0.92842707  1  -1.245484  0  -0.383725  -0.360257  0  3.563195  0
N  N321  1  0.51411321  0.46220150  0.07157347  1  -1.24565  0  -0.38375  -0.360229  0  3.563283  0
N  N322  1  0.01411346  0.03779835  0.07157232  1  -1.245094  0  -0.383775  -0.360326  0  3.563221  0
N  N323  1  0.48588650  0.53779791  0.92842657  1  -1.245632  0  -0.383749  -0.360259  0  3.56328  0
N  N324  1  0.82303460  0.94664605  0.91442536  1  -1.237877  0  -0.337839  -0.509  0  3.231194  0
N  N325  1  0.67696487  0.44664594  0.08557485  1  -1.237874  0  -0.33782  -0.508968  0  3.231201  0
N  N326  1  0.17696511  0.05335387  0.08557403  1  -1.237852  0  -0.337832  -0.509004  0  3.231193  0
N  N327  1  0.32303484  0.55335347  0.91442552  1  -1.237854  0  -0.337798  -0.508961  0  3.231183  0
N  N328  1  0.76268809  0.87068893  0.96229138  1  -1.213155  0  -0.373965  -0.588531  0  3.184738  0
N  N329  1  0.73731072  0.37068878  0.03770875  1  -1.213155  0  -0.373932  -0.588519  0  3.184789  0
N  N330  1  0.23731092  0.12931200  0.03770860  1  -1.213146  0  -0.373883  -0.588436  0  3.184704  0
N  N331  1  0.26268899  0.62931114  0.96229129  1  -1.213149  0  -0.37392  -0.588449  0  3.184784  0
N  N332  1  0.92752213  0.89394942  0.97571140  1  -1.237763  0  -0.351478  -0.543318  0  3.224025  0
N  N333  1  0.57247738  0.39394830  0.02428815  1  -1.237743  0  -0.351401  -0.543197  0  3.224081  0
N  N334  1  0.07247688  0.10605050  0.02428824  1  -1.237706  0  -0.351516  -0.543318  0  3.22391  0
N  N335  1  0.42752304  0.60605061  0.97571131  1  -1.23771  0  -0.351443  -0.543268  0  3.224153  0
N  N336  1  0.86193831  0.82216959  0.02164967  1  -1.257066  0  -0.383352  -0.36166  0  3.543188  0
N  N337  1  0.63806193  0.32216898  0.97835092  1  -1.257515  0  -0.383358  -0.361621  0  3.543216  0
N  N338  1  0.13806140  0.17783083  0.97835070  1  -1.257398  0  -0.38338  -0.361661  0  3.543192  0
N  N339  1  0.36193988  0.67783093  0.02164966  1  -1.257369  0  -0.3834  -0.361715  0  3.543055  0
N  N340  1  0.66356349  0.92352257  0.90396969  1  -1.242492  0  -0.390021  -0.376591  0  3.539164  0
N  N341  1  0.83643530  0.42352292  0.09603078  1  -1.242464  0  -0.390052  -0.376541  0  3.539012  0
N  N342  1  0.33643552  0.07647887  0.09603061  1  -1.242549  0  -0.390042  -0.376445  0  3.538985  0
N  N343  1  0.16356441  0.57647750  0.90396959  1  -1.242485  0  -0.390033  -0.376488  0  3.539029  0
N  N344  1  0.77003974  0.90998013  0.60995816  1  -1.246909  0  -0.388903  -0.376702  0  3.536976  0
N  N345  1  0.72996115  0.40998017  0.39004122  1  -1.247057  0  -0.388934  -0.376802  0  3.53685  0
N  N346  1  0.22996137  0.09002030  0.39004203  1  -1.246871  0  -0.388946  -0.376836  0  3.536934  0
N  N347  1  0.27003996  0.59002025  0.60995864  1  -1.246946  0  -0.38894  -0.376726  0  3.536864  0
N  N348  1  0.80862779  0.85162053  0.55150580  1  -1.191121  0  -0.373372  -0.58524  0  3.174214  0
N  N349  1  0.69137243  0.35162062  0.44849317  1  -1.191029  0  -0.373357  -0.585289  0  3.174076  0
N  N350  1  0.19137192  0.14837838  0.44849392  1  -1.191044  0  -0.373361  -0.585338  0  3.174124  0
N  N351  1  0.30862798  0.64837880  0.55150662  1  -1.191042  0  -0.373288  -0.585147  0  3.174071  0
N  N352  1  0.95233982  0.87834622  0.52981129  1  -1.219489  0  -0.349406  -0.539709  0  3.25145  0
N  N353  1  0.54765969  0.37834688  0.47018859  1  -1.219493  0  -0.349387  -0.539649  0  3.25153  0
N  N354  1  0.04765989  0.12165268  0.47018940  1  -1.219372  0  -0.34943  -0.539781  0  3.251573  0
N  N355  1  0.45234073  0.62165254  0.52981120  1  -1.219507  0  -0.349383  -0.539667  0  3.25152  0
N  N356  1  0.91203150  0.93602987  0.59141558  1  -1.237051  0  -0.338334  -0.511693  0  3.231213  0
N  N357  1  0.58796658  0.43602896  0.40858417  1  -1.236995  0  -0.338393  -0.511756  0  3.231166  0
N  N358  1  0.08796681  0.06397106  0.40858433  1  -1.237002  0  -0.338355  -0.511704  0  3.231195  0
N  N359  1  0.41203383  0.56397146  0.59141562  1  -1.237  0  -0.338382  -0.511792  0  3.231294  0
N  N360  1  0.05238849  0.95613876  0.56791354  1  -1.264301  0  -0.384921  -0.358589  0  3.568274  0
N  N361  1  0.44761195  0.45613774  0.43208647  1  -1.264305  0  -0.384895  -0.358505  0  3.568254  0
N  N362  1  0.94761122  0.04386217  0.43208650  1  -1.264337  0  -0.384939  -0.358591  0  3.568253  0
N  N363  1  0.55238986  0.54386167  0.56791346  1  -1.264323  0  -0.384974  -0.35862  0  3.56822  0
N  N364  1  0.84644734  0.79942591  0.49080831  1  -1.256512  0  -0.38227  -0.362442  0  3.524377  0
N  N365  1  0.65355361  0.29942706  0.50919170  1  -1.256538  0  -0.3823  -0.362451  0  3.524449  0
N  N366  1  0.15355307  0.20057198  0.50919246  1  -1.256062  0  -0.3822  -0.362299  0  3.524299  0
N  N367  1  0.34644750  0.70057336  0.49080784  1  -1.256566  0  -0.382252  -0.362391  0  3.524404  0
O  O368  1  0.97665467  0.16438587  0.76499869  1  -1.210249  0  -0.418537  -0.704852  0  2.329551  0
O  O369  1  0.52334425  0.66438570  0.23500174  1  -1.21027  0  -0.418605  -0.704888  0  2.329491  0
O  O370  1  0.02334434  0.83561405  0.23500161  1  -1.21024  0  -0.418586  -0.704885  0  2.329479  0
O  O371  1  0.47665476  0.33561372  0.76499791  1  -1.210278  0  -0.418588  -0.704908  0  2.329434  0
O  O372  1  0.15271780  0.73780186  0.20186318  1  -1.21819  0  -0.449534  -0.762387  0  2.361855  0
O  O373  1  0.34728276  0.23780210  0.79813712  1  -1.218251  0  -0.44951  -0.762316  0  2.361868  0
O  O374  1  0.84728121  0.26219957  0.79813712  1  -1.21823  0  -0.449465  -0.76236  0  2.361911  0
O  O375  1  0.65271765  0.76219883  0.20186332  1  -1.218203  0  -0.44952  -0.762398  0  2.361885  0
O  O376  1  0.77806805  0.18962219  0.71641687  1  -1.208195  0  -0.457418  -0.770645  0  2.436862  0
O  O377  1  0.72193156  0.68962248  0.28358298  1  -1.208224  0  -0.457435  -0.770698  0  2.436878  0
O  O378  1  0.22193236  0.81037773  0.28358357  1  -1.208206  0  -0.457386  -0.770605  0  2.436953  0
O  O379  1  0.27806745  0.31037794  0.71641667  1  -1.208183  0  -0.457363  -0.77062  0  2.436863  0
O  O380  1  0.32881581  0.17719622  0.67244686  1  -1.17399  0  -0.392349  -0.626535  0  2.228294  0
O  O381  1  0.17118337  0.67719605  0.32755296  1  -1.173967  0  -0.392369  -0.626538  0  2.228274  0
O  O382  1  0.67118320  0.82280370  0.32755311  1  -1.173972  0  -0.392381  -0.626559  0  2.228285  0
O  O383  1  0.82881704  0.32280336  0.67244683  1  -1.173969  0  -0.392354  -0.626568  0  2.22828  0
O  O384  1  0.06374232  0.79256786  0.33206417  1  -1.175287  0  -0.36462  -0.595961  0  2.264742  0
O  O385  1  0.43625890  0.29256749  0.66793589  1  -1.175232  0  -0.364654  -0.595996  0  2.264646  0
O  O386  1  0.93625739  0.20743054  0.66793620  1  -1.175303  0  -0.364573  -0.595913  0  2.264732  0
O  O387  1  0.56374291  0.70743192  0.33206372  1  -1.175287  0  -0.364559  -0.595917  0  2.264789  0
O  O388  1  0.43728215  0.12251926  0.75384108  1  -1.157376  0  -0.365171  -0.591414  0  2.166923  0
O  O389  1  0.06271846  0.62251958  0.24615920  1  -1.157376  0  -0.365182  -0.591403  0  2.166914  0
O  O390  1  0.56271826  0.87747965  0.24615806  1  -1.157289  0  -0.365136  -0.591384  0  2.166874  0
O  O391  1  0.93728195  0.37748084  0.75384059  1  -1.157381  0  -0.365173  -0.591442  0  2.166888  0
O  O392  1  0.55146420  0.19201463  0.78535771  1  -1.215409  0  -0.449192  -0.768147  0  2.409106  0
O  O393  1  0.94853540  0.69201582  0.21464246  1  -1.21557  0  -0.449172  -0.768128  0  2.409235  0
O  O394  1  0.44853411  0.80798478  0.21464154  1  -1.215473  0  -0.449205  -0.768159  0  2.409249  0
O  O395  1  0.05146431  0.30798460  0.78535823  1  -1.215495  0  -0.449207  -0.768203  0  2.409199  0
O  O396  1  0.13073606  0.16248606  0.79494500  1  -1.197321  0  -0.410981  -0.662108  0  2.260936  0
O  O397  1  0.36926383  0.66248627  0.20505521  1  -1.197346  0  -0.410987  -0.662119  0  2.2609  0
O  O398  1  0.86926295  0.83751386  0.20505497  1  -1.197345  0  -0.411008  -0.662143  0  2.260869  0
O  O399  1  0.63073518  0.33751315  0.79494508  1  -1.197331  0  -0.411006  -0.662114  0  2.260936  0
O  O400  1  0.94356942  0.72927625  0.29967892  1  -1.225716  0  -0.446446  -0.765691  0  2.33181  0
O  O401  1  0.55643227  0.22927601  0.70032083  1  -1.225622  0  -0.446475  -0.765721  0  2.331768  0
O  O402  1  0.05643099  0.27072215  0.70032185  1  -1.225756  0  -0.446481  -0.765714  0  2.331696  0
O  O403  1  0.44356955  0.77072390  0.29967878  1  -1.225789  0  -0.44646  -0.765716  0  2.331808  0
O  O404  1  0.70855806  0.12455365  0.75841614  1  -1.166971  0  -0.362487  -0.604164  0  2.201369  0
O  O405  1  0.79144228  0.62455440  0.24158409  1  -1.16696  0  -0.362471  -0.604153  0  2.201351  0
O  O406  1  0.29144235  0.87544576  0.24158430  1  -1.166943  0  -0.362463  -0.604101  0  2.201456  0
O  O407  1  0.20855673  0.37544602  0.75841621  1  -1.166978  0  -0.362485  -0.604159  0  2.201342  0
O  O408  1  0.22930867  0.17479173  0.71843532  1  -1.209648  0  -0.423581  -0.736254  0  2.333548  0
O  O409  1  0.27069191  0.67479150  0.28156497  1  -1.209622  0  -0.423602  -0.736235  0  2.333605  0
O  O410  1  0.77069174  0.82520920  0.28156479  1  -1.209635  0  -0.423588  -0.736213  0  2.333583  0
O  O411  1  0.72930850  0.32520842  0.71843547  1  -1.209733  0  -0.423614  -0.736276  0  2.333602  0
O  O412  1  0.25049176  0.77370932  0.16093836  1  -1.174886  0  -0.370924  -0.61148  0  2.229559  0
O  O413  1  0.24950878  0.27370910  0.83906195  1  -1.174895  0  -0.370992  -0.611535  0  2.229566  0
O  O414  1  0.74950725  0.22629060  0.83906194  1  -1.17471  0  -0.370945  -0.611498  0  2.229525  0
O  O415  1  0.75049163  0.72629132  0.16093817  1  -1.174904  0  -0.370912  -0.611452  0  2.22957  0
