# generated using pymatgen
data_ZnH12C25NO15
_symmetry_space_group_name_H-M   'P 1'
_cell_length_a   14.31987296
_cell_length_b   14.31982927
_cell_length_c   26.16708034
_cell_angle_alpha   82.49577090
_cell_angle_beta   82.49587671
_cell_angle_gamma   83.90934483
_symmetry_Int_Tables_number   1
_chemical_formula_structural   ZnH12C25NO15
_chemical_formula_sum   'Zn8 H96 C200 N8 O120'
_cell_volume   5252.56752676
_cell_formula_units_Z   8
loop_
 _symmetry_equiv_pos_site_id
 _symmetry_equiv_pos_as_xyz
  1  'x, y, z'
loop_
 _atom_site_type_symbol
 _atom_site_label
 _atom_site_symmetry_multiplicity
 _atom_site_fract_x
 _atom_site_fract_y
 _atom_site_fract_z
 _atom_site_occupancy
 _atom_site_pbe_bader_charge
 _atom_site_pbe_bader_spin_density
 _atom_site_pbe_cm5_charge
 _atom_site_pbe_ddec_charge
 _atom_site_pbe_ddec_spin_density
 _atom_site_pbe_ddec_sum_bond_order
 _atom_site_pbe_magmom
Zn  Zn0  1  0.16827678  0.82203209  0.42316060  1  1.323353  0  0.683562  0.881961  0  2.259257  0
Zn  Zn1  1  0.17796978  0.83176059  0.07684435  1  1.322935  0  0.683748  0.88232  0  2.259063  0
Zn  Zn2  1  0.83175803  0.17795436  0.57684271  1  1.322879  0  0.683742  0.882182  0  2.259207  0
Zn  Zn3  1  0.82204113  0.16827536  0.92314997  1  1.323083  0  0.683576  0.882013  0  2.259209  0
Zn  Zn4  1  0.19718294  0.59455092  0.45021887  1  1.278132  0  0.688505  0.845651  0  2.313994  0
Zn  Zn5  1  0.40546327  0.80285454  0.04978917  1  1.278157  0  0.688532  0.845756  0  2.314253  0
Zn  Zn6  1  0.80285157  0.40544395  0.54978810  1  1.278283  0  0.688556  0.845676  0  2.31449  0
Zn  Zn7  1  0.59455306  0.19718373  0.95021610  1  1.277895  0  0.688509  0.845576  0  2.314096  0
H  H8  1  0.47448503  0.54842027  0.37474792  1  0.107082  0  0.104816  0.112554  0  1.007305  0
H  H9  1  0.45158890  0.52554173  0.12527964  1  0.106625  0  0.104802  0.112438  0  1.00718  0
H  H10  1  0.52554330  0.45158313  0.62528182  1  0.106696  0  0.104796  0.112426  0  1.0072  0
H  H11  1  0.54841923  0.47448138  0.87474019  1  0.107026  0  0.10481  0.112508  0  1.007313  0
H  H12  1  0.63154397  0.55679352  0.32233783  1  0.125461  0  0.10349  0.116366  0  1.028587  0
H  H13  1  0.44320377  0.36847809  0.17768556  1  0.125152  0  0.103466  0.116364  0  1.028462  0
H  H14  1  0.36847711  0.44319927  0.67767706  1  0.125233  0  0.103434  0.116347  0  1.02859  0
H  H15  1  0.55680900  0.63153498  0.82232585  1  0.125351  0  0.103474  0.116349  0  1.0285  0
H  H16  1  0.62882796  0.84903537  0.34744173  1  0.087679  0  0.103626  0.11048  0  1.008939  0
H  H17  1  0.15098649  0.37117554  0.15252802  1  0.088038  0  0.103687  0.110549  0  1.008965  0
H  H18  1  0.37119026  0.15097136  0.65254490  1  0.087837  0  0.103645  0.11053  0  1.008897  0
H  H19  1  0.84903543  0.62882823  0.84745168  1  0.087865  0  0.103619  0.110517  0  1.008711  0
H  H20  1  0.46642193  0.84266255  0.39407712  1  0.090442  0  0.097957  0.094702  0  1.030422  0
H  H21  1  0.15737936  0.53359007  0.10589523  1  0.090199  0  0.098079  0.094979  0  1.030285  0
H  H22  1  0.53361003  0.15735234  0.60591873  1  0.090098  0  0.098073  0.09487  0  1.030356  0
H  H23  1  0.84265368  0.46641863  0.89408492  1  0.090524  0  0.097975  0.094711  0  1.030399  0
H  H24  1  0.76132262  0.71312383  0.39403498  1  0.094734  0  0.101231  0.104804  0  1.029256  0
H  H25  1  0.28686085  0.23870707  0.10595854  1  0.093889  0  0.101178  0.104637  0  1.02948  0
H  H26  1  0.23870275  0.28685207  0.60595936  1  0.093779  0  0.101202  0.104714  0  1.029344  0
H  H27  1  0.71310046  0.76133620  0.89403787  1  0.095168  0  0.101138  0.104725  0  1.029164  0
H  H28  1  0.92187966  0.69445571  0.42574689  1  0.091071  0  0.101287  0.101451  0  1.052934  0
H  H29  1  0.30555451  0.07814173  0.07424554  1  0.091097  0  0.101258  0.10131  0  1.053235  0
H  H30  1  0.07814063  0.30554866  0.57424816  1  0.090987  0  0.101278  0.101365  0  1.053121  0
H  H31  1  0.69444708  0.92190266  0.92574120  1  0.090951  0  0.101255  0.101445  0  1.052767  0
H  H32  1  0.05593020  0.68807786  0.27043944  1  0.132912  0  0.105707  0.113537  0  1.043681  0
H  H33  1  0.31187688  0.94409684  0.22955067  1  0.133198  0  0.105778  0.113499  0  1.044063  0
H  H34  1  0.94409669  0.31189371  0.72955585  1  0.133396  0  0.105797  0.113542  0  1.044151  0
H  H35  1  0.68809683  0.05593808  0.77043247  1  0.132734  0  0.105796  0.11368  0  1.043789  0
H  H36  1  0.89778848  0.71309803  0.23726662  1  0.10255  0  0.103792  0.101948  0  1.019557  0
H  H37  1  0.28682308  0.10223747  0.26272996  1  0.102827  0  0.103781  0.101903  0  1.019704  0
H  H38  1  0.10223724  0.28684049  0.76273136  1  0.102797  0  0.103782  0.101939  0  1.019581  0
H  H39  1  0.71312179  0.89779069  0.73726360  1  0.102494  0  0.103747  0.101818  0  1.019625  0
H  H40  1  0.99606727  0.79731053  0.58386289  1  0.082082  0  0.098485  0.100667  0  1.038407  0
H  H41  1  0.20266421  0.00394612  0.91612968  1  0.082337  0  0.098448  0.100644  0  1.038237  0
H  H42  1  0.00393565  0.20266550  0.41612225  1  0.082135  0  0.098374  0.100581  0  1.038217  0
H  H43  1  0.79734486  0.99603874  0.08385063  1  0.081607  0  0.098417  0.100457  0  1.038456  0
H  H44  1  0.95623986  0.80171775  0.67813297  1  0.093296  0  0.104686  0.105744  0  1.006659  0
H  H45  1  0.19830602  0.04374359  0.82185257  1  0.094226  0  0.104672  0.105871  0  1.006298  0
H  H46  1  0.04372526  0.19832485  0.32184297  1  0.094192  0  0.104594  0.105834  0  1.006333  0
H  H47  1  0.80174014  0.95620450  0.17812351  1  0.092978  0  0.10467  0.105678  0  1.006538  0
H  H48  1  0.23668817  0.67774321  0.70242720  1  0.096805  0  0.104524  0.107734  0  1.020467  0
H  H49  1  0.32228554  0.76327521  0.79760041  1  0.095201  0  0.104416  0.107663  0  1.020772  0
H  H50  1  0.76324638  0.32226193  0.29759842  1  0.094655  0  0.104495  0.107747  0  1.020767  0
H  H51  1  0.67771504  0.23664777  0.20241445  1  0.096252  0  0.10438  0.107409  0  1.020447  0
H  H52  1  0.27143746  0.66115030  0.60806466  1  0.07445  0  0.097317  0.092482  0  1.041815  0
H  H53  1  0.33883973  0.72855273  0.89197294  1  0.073679  0  0.09737  0.09243  0  1.041973  0
H  H54  1  0.72853098  0.33882366  0.39197378  1  0.073842  0  0.097374  0.092504  0  1.041938  0
H  H55  1  0.66112931  0.27138410  0.10804961  1  0.074731  0  0.097381  0.092569  0  1.042052  0
H  H56  1  0.06042466  0.72377457  0.85673140  1  0.102758  0  0.098456  0.099383  0  1.045838  0
H  H57  1  0.27632315  0.93944698  0.64328581  1  0.100616  0  0.098711  0.09972  0  1.045902  0
H  H58  1  0.93944863  0.27632821  0.14328336  1  0.100578  0  0.098738  0.099776  0  1.045736  0
H  H59  1  0.72376753  0.06043882  0.35671593  1  0.10281  0  0.098515  0.099385  0  1.045794  0
H  H60  1  0.98211288  0.84335847  0.91383929  1  0.085751  0  0.101787  0.107916  0  1.020952  0
H  H61  1  0.15684411  0.01781129  0.58613628  1  0.084841  0  0.101831  0.108091  0  1.02052  0
H  H62  1  0.01782833  0.15684968  0.08613628  1  0.084824  0  0.101879  0.108125  0  1.020522  0
H  H63  1  0.84332487  0.98213258  0.41383945  1  0.085652  0  0.101811  0.108021  0  1.020794  0
H  H64  1  0.88865352  0.01738544  0.78048751  1  0.124522  0  0.10917  0.118111  0  0.99785  0
H  H65  1  0.98271002  0.11131971  0.71944945  1  0.126217  0  0.109146  0.117848  0  0.997586  0
H  H66  1  0.11132170  0.98271261  0.21945344  1  0.125531  0  0.109142  0.117833  0  0.997529  0
H  H67  1  0.01738269  0.88863988  0.28050018  1  0.123546  0  0.109167  0.118126  0  0.997866  0
H  H68  1  0.96771014  0.90114253  0.72351041  1  0.057349  0  0.100834  0.098067  0  1.035444  0
H  H69  1  0.09888165  0.03221190  0.77646048  1  0.057659  0  0.100889  0.098276  0  1.035326  0
H  H70  1  0.03219969  0.09888886  0.27645931  1  0.05773  0  0.100901  0.098298  0  1.035327  0
H  H71  1  0.90115589  0.96769596  0.22351125  1  0.057333  0  0.100824  0.098055  0  1.035476  0
H  H72  1  0.22061692  0.47936608  0.36339232  1  0.150967  0  0.120185  0.096359  0  1.047178  0
H  H73  1  0.52064738  0.77946435  0.13661363  1  0.150769  0  0.120161  0.096184  0  1.047235  0
H  H74  1  0.77946854  0.52062131  0.63661745  1  0.150315  0  0.120049  0.096018  0  1.047142  0
H  H75  1  0.47937132  0.22059143  0.86338762  1  0.150737  0  0.120178  0.096268  0  1.047137  0
H  H76  1  0.22329936  0.31002685  0.34936972  1  0.124391  0  0.11666  0.136272  0  0.998419  0
H  H77  1  0.68998620  0.77675680  0.15063457  1  0.124091  0  0.116713  0.136273  0  0.998639  0
H  H78  1  0.77677682  0.68996537  0.65063843  1  0.124125  0  0.116613  0.136195  0  0.998612  0
H  H79  1  0.31003143  0.22328635  0.84936837  1  0.124405  0  0.116654  0.136263  0  0.998597  0
H  H80  1  0.15194023  0.24793464  0.51536202  1  0.106631  0  0.116662  0.127824  0  1.014045  0
H  H81  1  0.75208333  0.84800775  0.98462889  1  0.106172  0  0.116766  0.12793  0  1.013758  0
H  H82  1  0.84800630  0.75206030  0.48463329  1  0.106493  0  0.116745  0.127822  0  1.013981  0
H  H83  1  0.24793987  0.15194721  0.01536242  1  0.106652  0  0.116665  0.127867  0  1.014149  0
H  H84  1  0.15209380  0.41954626  0.52198189  1  0.108142  0  0.121851  0.092047  0  1.000168  0
H  H85  1  0.58046290  0.84788196  0.97801875  1  0.108531  0  0.121916  0.092084  0  1.000131  0
H  H86  1  0.84788253  0.58043895  0.47802124  1  0.108035  0  0.121837  0.09197  0  1.00013  0
H  H87  1  0.41954981  0.15209117  0.02197969  1  0.107985  0  0.121878  0.09213  0  1.000074  0
H  H88  1  0.28811111  0.15450196  0.35698622  1  0.11778  0  0.109836  0.121225  0  1.025805  0
H  H89  1  0.84550140  0.71191284  0.14300417  1  0.117957  0  0.109885  0.121076  0  1.025801  0
H  H90  1  0.71190602  0.84549212  0.64300362  1  0.117917  0  0.109816  0.120962  0  1.02584  0
H  H91  1  0.15451292  0.28810392  0.85698740  1  0.118159  0  0.109863  0.12128  0  1.025619  0
H  H92  1  0.28690890  0.98052415  0.35849547  1  0.125856  0  0.125133  0.106161  0  0.970034  0
H  H93  1  0.01948899  0.71310276  0.14148598  1  0.125956  0  0.125224  0.10632  0  0.970033  0
H  H94  1  0.71310031  0.01948115  0.64148230  1  0.126186  0  0.125315  0.106482  0  0.969896  0
H  H95  1  0.98053298  0.28689962  0.85849304  1  0.126106  0  0.125217  0.106153  0  0.970109  0
H  H96  1  0.09463618  0.13111244  0.50006485  1  0.176286  0  0.112011  0.137765  0  1.052757  0
H  H97  1  0.86888219  0.90541617  0.99993131  1  0.176004  0  0.112034  0.137659  0  1.052528  0
H  H98  1  0.90540126  0.86885987  0.49993121  1  0.175776  0  0.111976  0.137632  0  1.052571  0
H  H99  1  0.13110736  0.09464633  0.00007336  1  0.175919  0  0.112016  0.137827  0  1.052731  0
H  H100  1  0.10436135  0.96084121  0.49532458  1  0.150458  0  0.123386  0.101504  0  0.993046  0
H  H101  1  0.03916745  0.89568067  0.00466883  1  0.149688  0  0.123309  0.101257  0  0.993199  0
H  H102  1  0.89567234  0.03914344  0.50466096  1  0.150061  0  0.123333  0.101425  0  0.993133  0
H  H103  1  0.96084015  0.10437096  0.99532696  1  0.150744  0  0.1233  0.101353  0  0.993051  0
C  C104  1  0.35878381  0.69323474  0.41005230  1  1.568213  0  0.219264  0.605256  0  4.16826  0
C  C105  1  0.30679873  0.64124037  0.08995879  1  1.56981  0  0.219607  0.606112  0  4.167606  0
C  C106  1  0.64125128  0.30678389  0.58996449  1  1.570141  0  0.219446  0.605671  0  4.168203  0
C  C107  1  0.69322931  0.35878090  0.91005218  1  1.568407  0  0.219221  0.605375  0  4.168126  0
C  C108  1  0.46018130  0.69545755  0.38747092  1  -2.2e-05  0  -0.022006  -0.047071  0  3.96998  0
C  C109  1  0.30456690  0.53983756  0.11253392  1  -0.001854  0  -0.022164  -0.047652  0  3.970701  0
C  C110  1  0.53985544  0.30455396  0.61254394  1  -0.002014  0  -0.021998  -0.047339  0  3.970058  0
C  C111  1  0.69545290  0.46017867  0.88747107  1  -0.000419  0  -0.021983  -0.047085  0  3.96996  0
C  C112  1  0.50866158  0.61401551  0.36869141  1  -0.075225  0  -0.085652  -0.08354  0  3.969208  0
C  C113  1  0.38599557  0.49136073  0.13132102  1  -0.074549  0  -0.08552  -0.083052  0  3.968869  0
C  C114  1  0.49136988  0.38598221  0.63132703  1  -0.074495  0  -0.085469  -0.083026  0  3.969117  0
C  C115  1  0.61401840  0.50865930  0.86869098  1  -0.075181  0  -0.085544  -0.08336  0  3.969211  0
C  C116  1  0.59668390  0.61880429  0.33932785  1  -0.030761  0  -0.093451  -0.130718  0  3.970545  0
C  C117  1  0.38120249  0.40333045  0.16068468  1  -0.030977  0  -0.093297  -0.130558  0  3.970353  0
C  C118  1  0.40333626  0.38119704  0.66068424  1  -0.031113  0  -0.093237  -0.130542  0  3.970651  0
C  C119  1  0.61880965  0.59668130  0.83932380  1  -0.030753  0  -0.093553  -0.130808  0  3.970522  0
C  C120  1  0.63938936  0.70423161  0.33036228  1  -0.044495  0  -0.013797  0.008182  0  3.978074  0
C  C121  1  0.29577532  0.36062530  0.16963033  1  -0.025794  0  -0.013832  0.007918  0  3.978609  0
C  C122  1  0.36063255  0.29576489  0.66963473  1  -0.025204  0  -0.013912  0.007863  0  3.97857  0
C  C123  1  0.70423754  0.63939150  0.83036553  1  -0.044375  0  -0.013666  0.008181  0  3.978153  0
C  C124  1  0.59462581  0.78339770  0.35269222  1  -0.054831  0  -0.09265  -0.127707  0  3.98222  0
C  C125  1  0.21661798  0.40538061  0.14728999  1  -0.074004  0  -0.092769  -0.127725  0  3.982064  0
C  C126  1  0.40539513  0.21660875  0.64730227  1  -0.073676  0  -0.092714  -0.127761  0  3.982293  0
C  C127  1  0.78339611  0.59462214  0.85269795  1  -0.054931  0  -0.092687  -0.127708  0  3.982228  0
C  C128  1  0.50423642  0.77954919  0.37972739  1  -0.020286  0  -0.085406  -0.077931  0  3.985361  0
C  C129  1  0.22047794  0.49578539  0.12025680  1  -0.019552  0  -0.08559  -0.078358  0  3.985249  0
C  C130  1  0.49579780  0.22045773  0.62027496  1  -0.020142  0  -0.085653  -0.07817  0  3.984865  0
C  C131  1  0.77954624  0.50423435  0.87972969  1  -0.020454  0  -0.085472  -0.078016  0  3.985203  0
C  C132  1  0.72830981  0.71151073  0.29307289  1  0.911318  0  0.168906  0.366882  0  3.958123  0
C  C133  1  0.28847649  0.27170980  0.20691730  1  0.911149  0  0.169017  0.367284  0  3.958149  0
C  C134  1  0.27170695  0.28847066  0.70692051  1  0.911296  0  0.168992  0.367254  0  3.958103  0
C  C135  1  0.71151093  0.72831077  0.79307429  1  0.911473  0  0.168887  0.366912  0  3.95808  0
C  C136  1  0.81991932  0.71296859  0.31339334  1  -0.050579  0  -0.018968  -0.017389  0  3.980987  0
C  C137  1  0.28699930  0.18010543  0.18660281  1  -0.052116  0  -0.018904  -0.017539  0  3.981396  0
C  C138  1  0.18010332  0.28700324  0.68660298  1  -0.052065  0  -0.018908  -0.017499  0  3.981215  0
C  C139  1  0.71296730  0.81992626  0.81339249  1  -0.051184  0  -0.018943  -0.017413  0  3.980849  0
C  C140  1  0.82575459  0.70922975  0.36683897  1  -0.077483  0  -0.081292  -0.098737  0  3.956474  0
C  C141  1  0.29074621  0.17427129  0.13315351  1  -0.064927  0  -0.081394  -0.098638  0  3.956522  0
C  C142  1  0.17426711  0.29075131  0.63315488  1  -0.064766  0  -0.081334  -0.098669  0  3.956538  0
C  C143  1  0.70921750  0.82576559  0.86683553  1  -0.077296  0  -0.081115  -0.098509  0  3.956218  0
C  C144  1  0.91401407  0.69801998  0.38481335  1  -0.028313  0  -0.091588  -0.11395  0  3.989555  0
C  C145  1  0.30196821  0.08601284  0.11517942  1  -0.040227  0  -0.091401  -0.11384  0  3.99009  0
C  C146  1  0.08601082  0.30197141  0.61518304  1  -0.039943  0  -0.091531  -0.113971  0  3.990075  0
C  C147  1  0.69801582  0.91402912  0.88480790  1  -0.028168  0  -0.091572  -0.114013  0  3.989418  0
C  C148  1  0.99672143  0.68745086  0.35036074  1  -0.041789  0  -0.008913  -0.011792  0  3.952495  0
C  C149  1  0.31253962  0.00331415  0.14963362  1  -0.040949  0  -0.009156  -0.011727  0  3.952725  0
C  C150  1  0.00330773  0.31253813  0.64963705  1  -0.040545  0  -0.009104  -0.011635  0  3.952467  0
C  C151  1  0.68746112  0.99673521  0.85035360  1  -0.041028  0  -0.0089  -0.011737  0  3.95275  0
C  C152  1  0.99112750  0.69470729  0.29690181  1  -0.012039  0  -0.079969  -0.091881  0  3.949418  0
C  C153  1  0.30524762  0.00890212  0.20309190  1  -0.011113  0  -0.079932  -0.091713  0  3.949602  0
C  C154  1  0.00890107  0.30525429  0.70309557  1  -0.011479  0  -0.079967  -0.091857  0  3.949731  0
C  C155  1  0.69472374  0.99113996  0.79689359  1  -0.012414  0  -0.080051  -0.091991  0  3.949524  0
C  C156  1  0.90352540  0.70877824  0.27860931  1  -0.021337  0  -0.076157  -0.077393  0  3.944242  0
C  C157  1  0.29116747  0.09650500  0.22138952  1  -0.021688  0  -0.07624  -0.077481  0  3.944784  0
C  C158  1  0.09650053  0.29117644  0.72138986  1  -0.021699  0  -0.076288  -0.077537  0  3.944637  0
C  C159  1  0.70879420  0.90352774  0.77860337  1  -0.020895  0  -0.076221  -0.077398  0  3.943905  0
C  C160  1  0.09018974  0.66075988  0.37057314  1  1.575084  0  0.20196  0.568178  0  4.203976  0
C  C161  1  0.33926081  0.90983662  0.12942635  1  1.575538  0  0.20195  0.567903  0  4.204647  0
C  C162  1  0.90983328  0.33924278  0.62943216  1  1.575155  0  0.20197  0.567844  0  4.204539  0
C  C163  1  0.66077743  0.09020609  0.87056568  1  1.573883  0  0.201861  0.567756  0  4.204575  0
C  C164  1  0.15594622  0.71547951  0.53326883  1  1.5643  0  0.225079  0.608996  0  4.145061  0
C  C165  1  0.28451610  0.84407448  0.96674449  1  1.564461  0  0.225059  0.609463  0  4.144313  0
C  C166  1  0.84406444  0.28451050  0.46674045  1  1.564615  0  0.225011  0.60923  0  4.144513  0
C  C167  1  0.71548323  0.15591985  0.03325801  1  1.564334  0  0.225194  0.609621  0  4.14426  0
C  C168  1  0.13631701  0.72894711  0.58981359  1  -0.02073  0  -0.015422  -0.023725  0  3.973524  0
C  C169  1  0.27105726  0.86369762  0.91019839  1  -0.020775  0  -0.015446  -0.023862  0  3.973613  0
C  C170  1  0.86367939  0.27104801  0.41019593  1  -0.021429  0  -0.015345  -0.023706  0  3.973614  0
C  C171  1  0.72894922  0.13627023  0.08980235  1  -0.023456  0  -0.015635  -0.024259  0  3.973562  0
C  C172  1  0.04880878  0.77108769  0.60994962  1  -0.017422  0  -0.089844  -0.104166  0  3.967432  0
C  C173  1  0.22891104  0.95119315  0.89004787  1  -0.017627  0  -0.089679  -0.103904  0  3.967534  0
C  C174  1  0.95117569  0.22891335  0.39004195  1  -0.01685  0  -0.089663  -0.10373  0  3.967485  0
C  C175  1  0.77110067  0.04876960  0.10994177  1  -0.015269  0  -0.089708  -0.10376  0  3.967698  0
C  C176  1  0.02756089  0.77595896  0.66319776  1  -0.045096  0  -0.081649  -0.095781  0  3.961093  0
C  C177  1  0.22405566  0.97241661  0.83680183  1  -0.046723  0  -0.081692  -0.096026  0  3.960905  0
C  C178  1  0.97239823  0.22406407  0.33679596  1  -0.046966  0  -0.081661  -0.096124  0  3.96106  0
C  C179  1  0.77597058  0.02753257  0.16318622  1  -0.045213  0  -0.081565  -0.09576  0  3.960994  0
C  C180  1  0.09529959  0.74265485  0.69715186  1  0.01675  0  -0.013533  -0.001363  0  3.939685  0
C  C181  1  0.25737846  0.90467229  0.80285568  1  0.017441  0  -0.013612  -0.001515  0  3.940105  0
C  C182  1  0.90464897  0.25738702  0.30285200  1  0.016707  0  -0.013502  -0.00158  0  3.940056  0
C  C183  1  0.74266336  0.09527015  0.19714210  1  0.016557  0  -0.01345  -0.001213  0  3.939405  0
C  C184  1  0.18457880  0.70471442  0.67608680  1  0.000776  0  -0.0803  -0.083543  0  3.953013  0
C  C185  1  0.29531203  0.81539394  0.82393151  1  0.002302  0  -0.08013  -0.083423  0  3.952741  0
C  C186  1  0.81536474  0.29530012  0.32393108  1  0.003209  0  -0.080231  -0.083326  0  3.952916  0
C  C187  1  0.70470796  0.18454341  0.17607534  1  0.002132  0  -0.080227  -0.083262  0  3.952398  0
C  C188  1  0.20425630  0.69609106  0.62343276  1  -0.119195  0  -0.097232  -0.122289  0  4.007774  0
C  C189  1  0.30392300  0.79573605  0.87659272  1  -0.117917  0  -0.097175  -0.122077  0  4.00735  0
C  C190  1  0.79571376  0.30390552  0.37659219  1  -0.11759  0  -0.097216  -0.122407  0  4.007619  0
C  C191  1  0.69607687  0.20421238  0.12341780  1  -0.1185  0  -0.09728  -0.122305  0  4.007387  0
C  C192  1  0.07854240  0.73300837  0.75550555  1  0.895915  0  0.161554  0.350651  0  3.954526  0
C  C193  1  0.26705002  0.92140614  0.74451181  1  0.896665  0  0.161735  0.350973  0  3.953458  0
C  C194  1  0.92138651  0.26705009  0.24450807  1  0.896683  0  0.161781  0.351053  0  3.95274  0
C  C195  1  0.73301506  0.07853259  0.25549497  1  0.895379  0  0.161485  0.350678  0  3.954143  0
C  C196  1  0.01951556  0.80329784  0.78631037  1  -0.085611  0  -0.020433  -0.017199  0  3.967959  0
C  C197  1  0.19677540  0.98040682  0.71368286  1  -0.088638  0  -0.020993  -0.017631  0  3.968682  0
C  C198  1  0.98040030  0.19678287  0.21368046  1  -0.088624  0  -0.020886  -0.017412  0  3.96826  0
C  C199  1  0.80330245  0.01951449  0.28630360  1  -0.085507  0  -0.020396  -0.017403  0  3.968211  0
C  C200  1  0.02166805  0.78795608  0.84056288  1  0.014507  0  -0.082377  -0.086019  0  3.953112  0
C  C201  1  0.21215344  0.97822893  0.65943497  1  0.021431  0  -0.082999  -0.08722  0  3.954106  0
C  C202  1  0.97823693  0.21215622  0.15943344  1  0.021488  0  -0.083061  -0.087249  0  3.95412  0
C  C203  1  0.78795175  0.02167157  0.34055678  1  0.014387  0  -0.082509  -0.086021  0  3.953595  0
C  C204  1  0.97843543  0.85439018  0.87215546  1  -0.034711  0  -0.08581  -0.096904  0  3.960964  0
C  C205  1  0.14576477  0.02150053  0.62781793  1  -0.040573  0  -0.085819  -0.096443  0  3.960776  0
C  C206  1  0.02151415  0.14577526  0.12781554  1  -0.040315  0  -0.085912  -0.096712  0  3.960454  0
C  C207  1  0.85436897  0.97844419  0.37215477  1  -0.03414  0  -0.085785  -0.096913  0  3.961486  0
C  C208  1  0.93135555  0.93842199  0.85043826  1  -0.050968  0  -0.010613  -0.01503  0  3.952803  0
C  C209  1  0.06172944  0.06860922  0.64951427  1  -0.050757  0  -0.010648  -0.016247  0  3.952773  0
C  C210  1  0.06862348  0.06173195  0.14951701  1  -0.051467  0  -0.010598  -0.015794  0  3.95247  0
C  C211  1  0.93840193  0.93134773  0.35045013  1  -0.051902  0  -0.010567  -0.015118  0  3.952435  0
C  C212  1  0.92534820  0.95223875  0.79704512  1  -0.008366  0  -0.080578  -0.090467  0  3.962532  0
C  C213  1  0.04786606  0.07460890  0.70290609  1  -0.007441  0  -0.080142  -0.089142  0  3.960868  0
C  C214  1  0.07461241  0.04787204  0.20290665  1  -0.006465  0  -0.080184  -0.089277  0  3.961188  0
C  C215  1  0.95223335  0.92533465  0.29705295  1  -0.007088  0  -0.080543  -0.09038  0  3.962212  0
C  C216  1  0.96927752  0.88565683  0.76518064  1  -0.025622  0  -0.083631  -0.102164  0  3.976444  0
C  C217  1  0.11441034  0.03065936  0.73479897  1  -0.024981  0  -0.083441  -0.102193  0  3.975945  0
C  C218  1  0.03065644  0.11441305  0.23479786  1  -0.025202  0  -0.083408  -0.102219  0  3.97589  0
C  C219  1  0.88566451  0.96926995  0.26518256  1  -0.025703  0  -0.083674  -0.102056  0  3.97658  0
C  C220  1  0.89162455  0.01318324  0.88437499  1  1.512442  0  0.194121  0.551847  0  4.222006  0
C  C221  1  0.98700931  0.10834560  0.61554111  1  1.514995  0  0.194149  0.552358  0  4.222383  0
C  C222  1  0.10836775  0.98701541  0.11554351  1  1.515305  0  0.19401  0.551878  0  4.222333  0
C  C223  1  0.01314603  0.89162285  0.38439796  1  1.513666  0  0.193903  0.551499  0  4.222632  0
C  C224  1  0.20805130  0.42456060  0.39584746  1  0.427189  0  0.052577  0.103259  0  3.901784  0
C  C225  1  0.57545033  0.79198896  0.10415379  1  0.42775  0  0.052741  0.103622  0  3.901427  0
C  C226  1  0.79199256  0.57542731  0.60416163  1  0.42777  0  0.052778  0.103923  0  3.901207  0
C  C227  1  0.42456371  0.20803404  0.89584616  1  0.427023  0  0.052491  0.103201  0  3.901773  0
C  C228  1  0.20854235  0.32989160  0.38867854  1  0.034797  0  -0.073334  -0.1591  0  3.886374  0
C  C229  1  0.67012009  0.79149462  0.11132292  1  0.035663  0  -0.0734  -0.159085  0  3.885968  0
C  C230  1  0.79150863  0.67009592  0.61132628  1  0.035966  0  -0.073293  -0.159128  0  3.886384  0
C  C231  1  0.32989676  0.20852892  0.88867604  1  0.035251  0  -0.073312  -0.159035  0  3.886086  0
C  C232  1  0.18911773  0.26274873  0.43189388  1  -0.035228  0  0.019067  0.106962  0  3.962225  0
C  C233  1  0.73726635  0.81089494  0.06810252  1  -0.036538  0  0.019097  0.107  0  3.962278  0
C  C234  1  0.81090509  0.73723922  0.56810632  1  -0.035562  0  0.019023  0.106882  0  3.962431  0
C  C235  1  0.26274823  0.18911046  0.93189553  1  -0.035279  0  0.019114  0.106946  0  3.962145  0
C  C236  1  0.16725456  0.29669724  0.48048303  1  -0.035719  0  -0.077369  -0.170974  0  3.921146  0
C  C237  1  0.70331533  0.83271793  0.01951317  1  -0.0342  0  -0.077577  -0.171325  0  3.920986  0
C  C238  1  0.83272388  0.70328928  0.51951720  1  -0.035275  0  -0.077431  -0.171037  0  3.921466  0
C  C239  1  0.29670034  0.16725080  0.98048422  1  -0.035835  0  -0.077415  -0.171058  0  3.92134  0
C  C240  1  0.16790149  0.39215829  0.48457338  1  0.514265  0  0.052988  0.106376  0  3.93175  0
C  C241  1  0.60785308  0.83208443  0.01542425  1  0.513681  0  0.053063  0.106691  0  3.931235  0
C  C242  1  0.83208386  0.60783199  0.51542918  1  0.513705  0  0.053055  0.106637  0  3.931188  0
C  C243  1  0.39216152  0.16789779  0.98457001  1  0.514408  0  0.052915  0.106211  0  3.931485  0
C  C244  1  0.19155622  0.15998657  0.42867426  1  -0.003064  0  0.011635  0.098239  0  3.966499  0
C  C245  1  0.84002057  0.80847222  0.07131400  1  -0.003189  0  0.011608  0.098037  0  3.966434  0
C  C246  1  0.80847228  0.84000468  0.57131616  1  -0.003151  0  0.011681  0.098172  0  3.966061  0
C  C247  1  0.15999275  0.19155518  0.92867691  1  -0.002983  0  0.01165  0.098352  0  3.96647  0
C  C248  1  0.24536645  0.11515227  0.38836632  1  -0.032018  0  -0.079125  -0.167065  0  3.912406  0
C  C249  1  0.88485784  0.75464768  0.11162160  1  -0.031931  0  -0.079046  -0.166648  0  3.912347  0
C  C250  1  0.75464709  0.88484633  0.61161888  1  -0.032077  0  -0.079008  -0.166482  0  3.912547  0
C  C251  1  0.11515888  0.24536051  0.88836809  1  -0.03285  0  -0.079157  -0.167177  0  3.912621  0
C  C252  1  0.24579182  0.01753966  0.38913856  1  0.481627  0  0.051296  0.099644  0  3.915009  0
C  C253  1  0.98246724  0.75422440  0.11084909  1  0.482016  0  0.051237  0.099337  0  3.914727  0
C  C254  1  0.75421776  0.98245077  0.61084402  1  0.481792  0  0.051047  0.09895  0  3.915107  0
C  C255  1  0.01755000  0.24579010  0.88914052  1  0.481518  0  0.051267  0.099744  0  3.915191  0
C  C256  1  0.13989339  0.10305604  0.46771379  1  -0.041569  0  -0.078599  -0.170888  0  3.900087  0
C  C257  1  0.89695724  0.86014294  0.03227850  1  -0.041257  0  -0.078505  -0.170763  0  3.900046  0
C  C258  1  0.86013352  0.89694093  0.53227711  1  -0.041158  0  -0.078467  -0.170692  0  3.900457  0
C  C259  1  0.10305414  0.13989854  0.96772153  1  -0.04098  0  -0.07862  -0.171018  0  3.899931  0
C  C260  1  0.14414996  0.00640331  0.46558422  1  0.443972  0  0.054645  0.114806  0  3.92449  0
C  C261  1  0.99360513  0.85588673  0.03441071  1  0.443743  0  0.054592  0.114993  0  3.924901  0
C  C262  1  0.85587936  0.99358510  0.53440366  1  0.443555  0  0.054444  0.114589  0  3.925318  0
C  C263  1  0.00640827  0.14415888  0.96558662  1  0.443647  0  0.054758  0.115045  0  3.924421  0
C  C264  1  0.73964619  0.61340478  0.01211207  1  2.136193  0  0.353021  0.708992  0  4.156317  0
C  C265  1  0.38642780  0.26030865  0.48791358  1  2.135577  0  0.35318  0.709005  0  4.157163  0
C  C266  1  0.26026932  0.38642461  0.98793241  1  2.135163  0  0.353322  0.709083  0  4.157541  0
C  C267  1  0.61342034  0.73965818  0.51212044  1  2.135376  0  0.353096  0.70877  0  4.156446  0
C  C268  1  0.42947005  0.69608037  0.64068477  1  2.130877  0  0.367783  0.71484  0  4.121601  0
C  C269  1  0.30409764  0.57048565  0.85932533  1  2.132674  0  0.367769  0.714936  0  4.118811  0
C  C270  1  0.57047459  0.30418473  0.35933221  1  2.131123  0  0.367938  0.715075  0  4.119552  0
C  C271  1  0.69591127  0.42940695  0.14065891  1  2.131616  0  0.366991  0.713636  0  4.120922  0
C  C272  1  0.47635671  0.94443784  0.87486632  1  2.101226  0  0.35846  0.704548  0  4.13704  0
C  C273  1  0.05554414  0.52362311  0.62513772  1  2.101298  0  0.358617  0.704337  0  4.137422  0
C  C274  1  0.52362021  0.05553780  0.12511296  1  2.093479  0  0.358725  0.703904  0  4.137305  0
C  C275  1  0.94444490  0.47633227  0.37487727  1  2.095799  0  0.358304  0.703667  0  4.137806  0
C  C276  1  0.46857970  0.33627543  0.77701804  1  2.127725  0  0.360525  0.720346  0  4.134617  0
C  C277  1  0.66369407  0.53141354  0.72296819  1  2.127985  0  0.360077  0.719666  0  4.135957  0
C  C278  1  0.53141299  0.66364360  0.22296131  1  2.127242  0  0.360169  0.719502  0  4.13468  0
C  C279  1  0.33624612  0.46855352  0.27703554  1  2.128785  0  0.360014  0.719425  0  4.135576  0
C  C280  1  0.49628401  0.96834282  0.58261269  1  2.128552  0  0.361939  0.713283  0  4.126305  0
C  C281  1  0.03168194  0.50359112  0.91749335  1  2.132232  0  0.361813  0.712415  0  4.127632  0
C  C282  1  0.50360328  0.03164865  0.41749921  1  2.132169  0  0.362039  0.712619  0  4.127828  0
C  C283  1  0.96838309  0.49630982  0.08260196  1  2.129747  0  0.362061  0.712899  0  4.126808  0
C  C284  1  0.47010059  0.07467847  0.74298385  1  2.14678  0  0.361508  0.72336  0  4.123215  0
C  C285  1  0.92533587  0.52972760  0.75707861  1  2.143883  0  0.361912  0.723714  0  4.123442  0
C  C286  1  0.52972464  0.92533807  0.25707244  1  2.145725  0  0.36176  0.723686  0  4.123071  0
C  C287  1  0.07469052  0.47025871  0.24292184  1  2.144721  0  0.362179  0.724097  0  4.122422  0
C  C288  1  0.65016373  0.14338000  0.47675371  1  2.124257  0  0.361572  0.705596  0  4.133029  0
C  C289  1  0.85650560  0.34982325  0.02326980  1  2.129537  0  0.361831  0.705531  0  4.133332  0
C  C290  1  0.34984084  0.85649460  0.52328020  1  2.129151  0  0.361476  0.705029  0  4.134445  0
C  C291  1  0.14326450  0.65022067  0.97678913  1  2.126832  0  0.361216  0.70436  0  4.133633  0
C  C292  1  0.38413256  0.50694187  0.53519603  1  2.142694  0  0.365556  0.729147  0  4.127097  0
C  C293  1  0.49302955  0.61599221  0.96478646  1  2.142484  0  0.364984  0.728249  0  4.127569  0
C  C294  1  0.61601400  0.49299488  0.46478551  1  2.143879  0  0.365083  0.728313  0  4.127339  0
C  C295  1  0.50696192  0.38413599  0.03519225  1  2.141538  0  0.365336  0.728676  0  4.127822  0
C  C296  1  0.19621025  0.47854111  0.77365730  1  2.135563  0  0.357496  0.72842  0  4.137289  0
C  C297  1  0.52141917  0.80375857  0.72631423  1  2.133566  0  0.357326  0.728186  0  4.138447  0
C  C298  1  0.80368792  0.52136733  0.22634901  1  2.134513  0  0.356975  0.727821  0  4.13824  0
C  C299  1  0.47851358  0.19620640  0.27372377  1  2.134069  0  0.357727  0.728527  0  4.137842  0
C  C300  1  0.69235711  0.25111597  0.70175940  1  2.134069  0  0.355241  0.716274  0  4.12324  0
C  C301  1  0.74888603  0.30772544  0.79818703  1  2.133544  0  0.355055  0.715871  0  4.123211  0
C  C302  1  0.30770298  0.74887238  0.29819392  1  2.134243  0  0.355021  0.715791  0  4.123274  0
C  C303  1  0.25113594  0.69233860  0.20176071  1  2.13389  0  0.355041  0.715644  0  4.123634  0
N  N304  1  0.18922653  0.45562305  0.44305127  1  -1.250772  0  -0.324176  -0.227829  0  3.552411  0
N  N305  1  0.54438978  0.81079002  0.05695717  1  -1.250656  0  -0.324361  -0.228164  0  3.552202  0
N  N306  1  0.81079128  0.54436225  0.55696052  1  -1.25102  0  -0.324259  -0.228124  0  3.551841  0
N  N307  1  0.45562973  0.18921287  0.94304721  1  -1.250811  0  -0.324121  -0.227638  0  3.552102  0
N  N308  1  0.19629136  0.96361639  0.42715491  1  -1.259917  0  -0.319922  -0.241533  0  3.529044  0
N  N309  1  0.03639467  0.80374209  0.07283665  1  -1.259881  0  -0.319844  -0.241426  0  3.528573  0
N  N310  1  0.80373128  0.03638373  0.57283186  1  -1.259237  0  -0.319654  -0.241057  0  3.528435  0
N  N311  1  0.96361762  0.19629519  0.92715672  1  -1.259735  0  -0.319915  -0.24163  0  3.529002  0
O  O312  1  0.30576160  0.77069883  0.40599594  1  -1.195359  0  -0.316671  -0.58106  0  2.386622  0
O  O313  1  0.22932842  0.69426787  0.09399415  1  -1.195048  0  -0.316655  -0.581472  0  2.386582  0
O  O314  1  0.69427811  0.22931337  0.59400645  1  -1.195576  0  -0.316748  -0.581438  0  2.386982  0
O  O315  1  0.77069150  0.30575645  0.90598468  1  -1.195218  0  -0.316604  -0.58107  0  2.386647  0
O  O316  1  0.33179410  0.61249299  0.42944057  1  -1.156963  0  -0.317785  -0.544496  0  2.367927  0
O  O317  1  0.38753860  0.66824551  0.07058836  1  -1.15761  0  -0.318043  -0.544857  0  2.367998  0
O  O318  1  0.66824384  0.38751967  0.57058751  1  -1.15734  0  -0.317856  -0.544519  0  2.368081  0
O  O319  1  0.61249267  0.33179698  0.92945192  1  -1.156857  0  -0.317773  -0.544559  0  2.367824  0
O  O320  1  0.72354125  0.71091949  0.24616040  1  -1.080317  0  -0.262548  -0.428118  0  2.148473  0
O  O321  1  0.28907233  0.27648958  0.25383026  1  -1.079776  0  -0.262572  -0.428294  0  2.148614  0
O  O322  1  0.27648425  0.28905219  0.75383345  1  -1.079955  0  -0.262536  -0.428296  0  2.148886  0
O  O323  1  0.71091260  0.72354309  0.74616298  1  -1.080331  0  -0.262496  -0.428087  0  2.148731  0
O  O324  1  0.09355925  0.67408279  0.41917249  1  -1.173721  0  -0.340404  -0.596805  0  2.392032  0
O  O325  1  0.32594437  0.90648150  0.08082177  1  -1.174243  0  -0.340318  -0.596586  0  2.392109  0
O  O326  1  0.90647736  0.32594093  0.58082551  1  -1.174548  0  -0.340297  -0.596525  0  2.392128  0
O  O327  1  0.67410971  0.09357503  0.91916711  1  -1.173542  0  -0.340375  -0.59656  0  2.391889  0
O  O328  1  0.15746639  0.62396938  0.34278433  1  -1.167587  0  -0.308029  -0.531353  0  2.189111  0
O  O329  1  0.37605082  0.84256781  0.15720744  1  -1.168004  0  -0.307961  -0.53121  0  2.1899  0
O  O330  1  0.84255264  0.37600114  0.65722111  1  -1.167663  0  -0.307961  -0.531111  0  2.189628  0
O  O331  1  0.62398853  0.15748685  0.84278026  1  -1.167234  0  -0.30794  -0.531119  0  2.189626  0
O  O332  1  0.14603094  0.78908940  0.50103811  1  -1.16634  0  -0.303167  -0.542096  0  2.38014  0
O  O333  1  0.21091551  0.85403260  0.99896898  1  -1.166832  0  -0.303107  -0.542292  0  2.380331  0
O  O334  1  0.85402748  0.21090819  0.49896820  1  -1.166872  0  -0.303183  -0.54229  0  2.380167  0
O  O335  1  0.78908502  0.14601873  0.00102959  1  -1.166636  0  -0.303258  -0.542339  0  2.38005  0
O  O336  1  0.18096538  0.63096633  0.52276897  1  -1.160123  0  -0.31814  -0.546533  0  2.313707  0
O  O337  1  0.36902973  0.81900923  0.97724670  1  -1.160217  0  -0.318284  -0.546935  0  2.313336  0
O  O338  1  0.81900511  0.36902123  0.47724395  1  -1.160051  0  -0.318187  -0.546745  0  2.31358  0
O  O339  1  0.63096427  0.18094731  0.02276405  1  -1.160097  0  -0.318175  -0.546772  0  2.313419  0
O  O340  1  0.12080760  0.66392593  0.77910383  1  -1.095716  0  -0.261577  -0.418879  0  2.186307  0
O  O341  1  0.33615785  0.87913756  0.72092088  1  -1.094918  0  -0.261629  -0.419015  0  2.18557  0
O  O342  1  0.87909246  0.33615186  0.22091578  1  -1.095096  0  -0.261741  -0.419154  0  2.184859  0
O  O343  1  0.66392417  0.12079792  0.27909148  1  -1.095044  0  -0.261547  -0.41887  0  2.185664  0
O  O344  1  0.86262472  0.09503953  0.86171787  1  -1.144758  0  -0.325067  -0.550693  0  2.289014  0
O  O345  1  0.90514954  0.13740384  0.63819257  1  -1.143831  0  -0.32492  -0.550716  0  2.288872  0
O  O346  1  0.13742559  0.90515484  0.13819509  1  -1.143942  0  -0.324898  -0.550638  0  2.288879  0
O  O347  1  0.09500019  0.86258459  0.36175317  1  -1.144129  0  -0.324985  -0.550522  0  2.289326  0
O  O348  1  0.88860348  0.99603739  0.93298067  1  -1.149389  0  -0.316851  -0.550516  0  2.192143  0
O  O349  1  0.00416639  0.11129281  0.56694960  1  -1.151805  0  -0.316987  -0.550692  0  2.193692  0
O  O350  1  0.11131703  0.00417476  0.06695093  1  -1.151614  0  -0.316825  -0.550477  0  2.193442  0
O  O351  1  0.99598954  0.88864865  0.43300501  1  -1.151071  0  -0.316725  -0.550404  0  2.192456  0
O  O352  1  0.69270317  0.59287844  0.05147408  1  -1.07826  0  -0.177711  -0.357657  0  2.230039  0
O  O353  1  0.40700721  0.30724166  0.44856472  1  -1.079069  0  -0.178061  -0.357782  0  2.230618  0
O  O354  1  0.30717412  0.40707150  0.94857976  1  -1.079679  0  -0.178324  -0.358001  0  2.230406  0
O  O355  1  0.59290865  0.69271717  0.55148477  1  -1.078004  0  -0.177851  -0.357654  0  2.229978  0
O  O356  1  0.78672029  0.63481424  0.97289412  1  -1.075065  0  -0.176705  -0.349513  0  2.198974  0
O  O357  1  0.36491969  0.21322267  0.52713011  1  -1.073596  0  -0.176476  -0.349365  0  2.199252  0
O  O358  1  0.21321873  0.36486664  0.02714235  1  -1.072552  0  -0.176344  -0.349206  0  2.199851  0
O  O359  1  0.63482528  0.78672960  0.47290000  1  -1.074488  0  -0.176621  -0.34931  0  2.19906  0
O  O360  1  0.41932406  0.61611167  0.65461274  1  -1.060534  0  -0.15682  -0.321709  0  2.215517  0
O  O361  1  0.38405970  0.58063351  0.84537899  1  -1.063139  0  -0.15615  -0.321243  0  2.21475  0
O  O362  1  0.58062018  0.38414580  0.34539752  1  -1.06212  0  -0.156383  -0.321677  0  2.215334  0
O  O363  1  0.61595989  0.41924034  0.15464019  1  -1.063186  0  -0.155935  -0.320817  0  2.215882  0
O  O364  1  0.43860965  0.77639783  0.62674265  1  -1.074703  0  -0.177536  -0.370456  0  2.266554  0
O  O365  1  0.22377766  0.56135283  0.87328357  1  -1.073882  0  -0.178243  -0.370942  0  2.264171  0
O  O366  1  0.56135091  0.22385361  0.37327303  1  -1.073293  0  -0.178152  -0.370572  0  2.26409  0
O  O367  1  0.77621482  0.43855949  0.12667255  1  -1.072819  0  -0.177648  -0.370131  0  2.265128  0
O  O368  1  0.48625945  0.90511606  0.83758790  1  -1.059185  0  -0.16635  -0.342749  0  2.24178  0
O  O369  1  0.09486935  0.51371138  0.66240850  1  -1.05932  0  -0.166637  -0.342774  0  2.242215  0
O  O370  1  0.51370922  0.09487992  0.16238329  1  -1.060031  0  -0.166788  -0.342701  0  2.242247  0
O  O371  1  0.90510287  0.48624085  0.33760554  1  -1.059676  0  -0.166534  -0.342457  0  2.242339  0
O  O372  1  0.46665725  0.98421234  0.91207835  1  -1.076883  0  -0.177266  -0.351397  0  2.224065  0
O  O373  1  0.01575210  0.53334168  0.58792938  1  -1.07677  0  -0.17715  -0.351115  0  2.22383  0
O  O374  1  0.53335073  0.01573521  0.08790722  1  -1.068273  0  -0.177116  -0.350742  0  2.223536  0
O  O375  1  0.98424299  0.46662606  0.41208055  1  -1.071014  0  -0.176956  -0.35075  0  2.223826  0
O  O376  1  0.44566917  0.41242110  0.78897615  1  -1.063989  0  -0.178543  -0.353642  0  2.201979  0
O  O377  1  0.58757015  0.55427262  0.71097421  1  -1.064786  0  -0.178126  -0.353141  0  2.203425  0
O  O378  1  0.55427971  0.58751157  0.21098001  1  -1.064452  0  -0.178321  -0.3532  0  2.20252  0
O  O379  1  0.41236690  0.44560874  0.28903092  1  -1.06467  0  -0.178158  -0.35315  0  2.202315  0
O  O380  1  0.49206286  0.25955108  0.76614038  1  -1.079218  0  -0.175736  -0.363393  0  2.287913  0
O  O381  1  0.74039567  0.50799106  0.73389608  1  -1.078807  0  -0.175678  -0.363137  0  2.287513  0
O  O382  1  0.50800914  0.74036168  0.23388068  1  -1.078393  0  -0.175549  -0.362885  0  2.287001  0
O  O383  1  0.25955707  0.49207078  0.26612068  1  -1.079599  0  -0.175606  -0.362931  0  2.288147  0
O  O384  1  0.44726812  0.00437224  0.61535074  1  -1.058794  0  -0.152114  -0.321253  0  2.239496  0
O  O385  1  0.99552335  0.55254935  0.88477168  1  -1.058333  0  -0.15192  -0.320775  0  2.24007  0
O  O386  1  0.55254669  0.99551892  0.38476058  1  -1.058504  0  -0.151983  -0.32091  0  2.240106  0
O  O387  1  0.00434527  0.44727542  0.11536417  1  -1.059754  0  -0.152074  -0.321128  0  2.239226  0
O  O388  1  0.54578575  0.93314577  0.54942414  1  -1.077239  0  -0.185131  -0.37699  0  2.220271  0
O  O389  1  0.06701212  0.45417109  0.95065217  1  -1.08145  0  -0.185076  -0.376592  0  2.221071  0
O  O390  1  0.45421076  0.06695097  0.45067139  1  -1.081305  0  -0.185252  -0.376688  0  2.221237  0
O  O391  1  0.93326534  0.54581491  0.04939826  1  -1.077583  0  -0.185254  -0.37674  0  2.220986  0
O  O392  1  0.39587062  0.07895450  0.76824805  1  -1.089374  0  -0.178293  -0.36066  0  2.214594  0
O  O393  1  0.92103816  0.60393781  0.73179501  1  -1.08905  0  -0.178606  -0.360825  0  2.216032  0
O  O394  1  0.60392110  0.92106531  0.23177512  1  -1.089419  0  -0.178352  -0.360707  0  2.215684  0
O  O395  1  0.07898508  0.39604039  0.26819511  1  -1.089371  0  -0.178792  -0.361072  0  2.215596  0
O  O396  1  0.54411093  0.06994996  0.71774125  1  -1.075343  0  -0.170132  -0.348604  0  2.24169  0
O  O397  1  0.93009527  0.45572807  0.78232990  1  -1.072718  0  -0.170209  -0.348849  0  2.240664  0
O  O398  1  0.45574043  0.93007798  0.28234003  1  -1.074177  0  -0.170301  -0.348917  0  2.240613  0
O  O399  1  0.06992086  0.54427011  0.21767426  1  -1.073248  0  -0.170305  -0.349024  0  2.24009  0
O  O400  1  0.68622514  0.07164261  0.46319651  1  -1.067039  0  -0.165617  -0.340831  0  2.215772  0
O  O401  1  0.92829027  0.31377950  0.03678138  1  -1.069472  0  -0.165754  -0.341013  0  2.215127  0
O  O402  1  0.31378280  0.92829040  0.53677131  1  -1.069223  0  -0.165613  -0.340771  0  2.215562  0
O  O403  1  0.07152427  0.68630509  0.96323857  1  -1.069783  0  -0.16576  -0.340229  0  2.214956  0
O  O404  1  0.61316184  0.21481741  0.49022442  1  -1.070276  0  -0.171566  -0.34129  0  2.228264  0
O  O405  1  0.78503544  0.38680545  0.00985226  1  -1.073018  0  -0.171668  -0.340973  0  2.229309  0
O  O406  1  0.38681793  0.78500206  0.50988901  1  -1.072844  0  -0.171452  -0.340694  0  2.229767  0
O  O407  1  0.21469534  0.61319549  0.99023706  1  -1.070033  0  -0.171106  -0.340544  0  2.229124  0
O  O408  1  0.33574344  0.44592361  0.53417840  1  -1.092076  0  -0.177679  -0.367971  0  2.233655  0
O  O409  1  0.55413524  0.66425598  0.96582844  1  -1.092474  0  -0.177466  -0.367655  0  2.234261  0
O  O410  1  0.66429710  0.55408795  0.46581519  1  -1.093031  0  -0.177304  -0.367437  0  2.233958  0
O  O411  1  0.44593838  0.33574611  0.03419107  1  -1.091494  0  -0.177665  -0.367845  0  2.233787  0
O  O412  1  0.43247634  0.56759489  0.53672862  1  -1.068352  0  -0.174788  -0.355303  0  2.221837  0
O  O413  1  0.43228425  0.56776047  0.96323420  1  -1.067717  0  -0.174414  -0.354723  0  2.22148  0
O  O414  1  0.56774634  0.43227525  0.46324235  1  -1.068651  0  -0.174689  -0.355021  0  2.221615  0
O  O415  1  0.56761457  0.43248662  0.03671447  1  -1.067797  0  -0.174575  -0.354958  0  2.222415  0
O  O416  1  0.26104135  0.50813562  0.74649634  1  -1.069673  0  -0.171965  -0.353759  0  2.242617  0
O  O417  1  0.49186948  0.73890555  0.75346639  1  -1.068453  0  -0.171906  -0.353583  0  2.243321  0
O  O418  1  0.73882235  0.49184259  0.25350873  1  -1.07063  0  -0.172015  -0.353679  0  2.243115  0
O  O419  1  0.50813483  0.26102683  0.24656516  1  -1.067531  0  -0.172024  -0.353679  0  2.24314  0
O  O420  1  0.13259269  0.44707976  0.80118904  1  -1.081806  0  -0.182619  -0.372087  0  2.248534  0
O  O421  1  0.55287812  0.86739235  0.69879110  1  -1.081018  0  -0.182586  -0.372081  0  2.248878  0
O  O422  1  0.86732115  0.55279736  0.19882138  1  -1.079804  0  -0.182128  -0.371635  0  2.24901  0
O  O423  1  0.44703259  0.13258183  0.30124012  1  -1.082357  0  -0.182777  -0.372303  0  2.248742  0
O  O424  1  0.65434249  0.32797248  0.69660347  1  -1.077432  0  -0.173154  -0.358034  0  2.302852  0
O  O425  1  0.67202350  0.34572405  0.80335318  1  -1.077198  0  -0.172877  -0.357759  0  2.303039  0
O  O426  1  0.34568895  0.67200276  0.30335916  1  -1.077335  0  -0.172848  -0.357751  0  2.303006  0
O  O427  1  0.32800518  0.65435444  0.19658777  1  -1.076464  0  -0.172956  -0.357682  0  2.303187  0
O  O428  1  0.73020399  0.17428381  0.70777190  1  -1.071421  0  -0.167727  -0.335089  0  2.23313  0
O  O429  1  0.82571366  0.26988001  0.79216178  1  -1.071792  0  -0.167853  -0.334874  0  2.232904  0
O  O430  1  0.26988501  0.82571137  0.29216602  1  -1.072357  0  -0.167825  -0.334808  0  2.232858  0
O  O431  1  0.17430017  0.73017329  0.20778570  1  -1.0722  0  -0.167697  -0.334708  0  2.23288  0
