# generated using pymatgen
data_Cu2H11C24(NO5)2
_symmetry_space_group_name_H-M   'P 1'
_cell_length_a   18.87736732
_cell_length_b   18.87736171
_cell_length_c   34.98241095
_cell_angle_alpha   89.99998494
_cell_angle_beta   89.99997804
_cell_angle_gamma   90.00006806
_symmetry_Int_Tables_number   1
_chemical_formula_structural   Cu2H11C24(NO5)2
_chemical_formula_sum   'Cu16 H88 C192 N16 O80'
_cell_volume   12466.15324268
_cell_formula_units_Z   8
loop_
 _symmetry_equiv_pos_site_id
 _symmetry_equiv_pos_as_xyz
  1  'x, y, z'
loop_
 _atom_site_type_symbol
 _atom_site_label
 _atom_site_symmetry_multiplicity
 _atom_site_fract_x
 _atom_site_fract_y
 _atom_site_fract_z
 _atom_site_occupancy
 _atom_site_pbe_bader_charge
 _atom_site_pbe_bader_spin_density
 _atom_site_pbe_cm5_charge
 _atom_site_pbe_ddec_charge
 _atom_site_pbe_ddec_spin_density
 _atom_site_pbe_ddec_sum_bond_order
 _atom_site_pbe_magmom
Cu  Cu0  1  0.73270555  0.29322621  0.22383468  1  1.062163  0.547613  0.708389  0.836506  0.710897  2.207201  0.549
Cu  Cu1  1  0.26729556  0.70677472  0.22383384  1  1.062222  0.547619  0.708439  0.836537  0.710901  2.20716  0.549
Cu  Cu2  1  0.76729699  0.79322617  0.27616579  1  1.063905  0.547665  0.70846  0.836622  0.710903  2.207005  0.549
Cu  Cu3  1  0.70677423  0.73270392  0.22383436  1  1.062182  0.547618  0.708453  0.836599  0.710902  2.207066  0.549
Cu  Cu4  1  0.20677389  0.76729690  0.27616585  1  1.06371  0.547669  0.708466  0.836616  0.710909  2.207024  0.549
Cu  Cu5  1  0.29322582  0.26729648  0.22383444  1  1.062308  0.547618  0.708453  0.836574  0.710903  2.207092  0.549
Cu  Cu6  1  0.79322665  0.23270347  0.27616612  1  1.063765  0.547672  0.708513  0.836727  0.710908  2.206745  0.549
Cu  Cu7  1  0.23270355  0.20677420  0.27616589  1  1.06376  0.547664  0.708473  0.836614  0.710901  2.207024  0.549
Cu  Cu8  1  0.26729536  0.70677458  0.77616569  1  1.062244  0.547619  0.708446  0.836579  0.710901  2.207104  0.549
Cu  Cu9  1  0.73270376  0.29322554  0.77616568  1  1.062186  0.547619  0.708475  0.836622  0.710901  2.207033  0.549
Cu  Cu10  1  0.23270340  0.20677462  0.72383429  1  1.062173  0.547621  0.708487  0.836618  0.710906  2.207002  0.549
Cu  Cu11  1  0.29322615  0.26729581  0.77616601  1  1.06382  0.547665  0.708447  0.836596  0.710901  2.20708  0.549
Cu  Cu12  1  0.79322543  0.23270336  0.72383423  1  1.063879  0.547666  0.708461  0.836595  0.710906  2.207065  0.549
Cu  Cu13  1  0.70677403  0.73270378  0.77616593  1  1.063815  0.547666  0.708463  0.836588  0.710902  2.207096  0.549
Cu  Cu14  1  0.20677374  0.76729679  0.72383368  1  1.063686  0.547668  0.708458  0.836588  0.710905  2.207025  0.549
Cu  Cu15  1  0.76729630  0.79322606  0.72383448  1  1.062179  0.54762  0.708469  0.836617  0.710902  2.207046  0.549
H  H16  1  0.01503465  0.45148522  0.06165781  1  0.036284  2e-06  0.102149  0.096584  2e-06  1.034584  0.0
H  H17  1  0.98496551  0.54851419  0.06165799  1  0.035715  2e-06  0.102163  0.096612  2e-06  1.034516  0.0
H  H18  1  0.48496475  0.95148484  0.43834245  1  0.036303  2e-06  0.102156  0.096596  2e-06  1.034565  0.0
H  H19  1  0.54851450  0.01503525  0.06165750  1  0.035741  2e-06  0.102138  0.096568  2e-06  1.034625  0.0
H  H20  1  0.04851484  0.48496494  0.43834196  1  0.03572  2e-06  0.10215  0.09659  2e-06  1.034593  0.0
H  H21  1  0.45148460  0.98496469  0.06165744  1  0.036296  2e-06  0.102145  0.096583  2e-06  1.034613  0.0
H  H22  1  0.95148505  0.51503482  0.43834272  1  0.036317  2e-06  0.10216  0.096615  2e-06  1.034588  0.0
H  H23  1  0.51503461  0.04851333  0.43834194  1  0.035702  2e-06  0.102149  0.096606  2e-06  1.034504  0.0
H  H24  1  0.98496573  0.54851451  0.93834256  1  0.03573  2e-06  0.102146  0.096581  2e-06  1.034629  0.0
H  H25  1  0.01503487  0.45148554  0.93834238  1  0.036293  2e-06  0.102157  0.096602  2e-06  1.03455  0.0
H  H26  1  0.51503510  0.04851489  0.56165763  1  0.035714  2e-06  0.102162  0.096618  2e-06  1.034559  0.0
H  H27  1  0.45148535  0.98496501  0.93834230  1  0.036294  2e-06  0.102134  0.09655  2e-06  1.034586  0.0
H  H28  1  0.95148501  0.51503532  0.56165812  1  0.036275  2e-06  0.102143  0.096585  2e-06  1.034595  0.0
H  H29  1  0.54851366  0.01503451  0.93834207  1  0.035705  2e-06  0.102138  0.09659  2e-06  1.034565  0.0
H  H30  1  0.04851321  0.48496597  0.56165765  1  0.035073  2e-06  0.10218  0.096645  2e-06  1.034457  0.0
H  H31  1  0.48496471  0.95148481  0.56165757  1  0.036306  2e-06  0.102157  0.096598  2e-06  1.034565  0.0
H  H32  1  0.08435850  0.26749005  0.99999966  1  0.144278  1e-06  0.12153  0.13095  1e-06  0.977456  0.0
H  H33  1  0.91564189  0.73250968  0.00000014  1  0.144292  1e-06  0.121531  0.130911  1e-06  0.977486  0.0
H  H34  1  0.41564033  0.76748873  0.50000003  1  0.144218  1e-06  0.121493  0.130841  1e-06  0.9775  0.0
H  H35  1  0.73250968  0.08435838  0.99999961  1  0.144259  1e-06  0.121509  0.130925  1e-06  0.977506  0.0
H  H36  1  0.23250919  0.41564178  0.50000036  1  0.144286  1e-06  0.121508  0.130928  1e-06  0.977518  0.0
H  H37  1  0.26748929  0.91564005  0.99999959  1  0.144399  1e-06  0.121499  0.130852  1e-06  0.977492  0.0
H  H38  1  0.76748961  0.58435901  0.50000001  1  0.144258  1e-06  0.121516  0.130938  1e-06  0.977469  0.0
H  H39  1  0.58435899  0.23250941  0.49999948  1  0.14428  1e-06  0.12152  0.130967  1e-06  0.977471  0.0
H  H40  1  0.96848745  0.35608898  0.09147213  1  0.449532  4.3e-05  0.323535  0.275549  1.9e-05  0.931218  0.0
H  H41  1  0.03151269  0.64391095  0.09147249  1  0.449525  4.3e-05  0.32352  0.275533  1.9e-05  0.931251  0.0
H  H42  1  0.53151092  0.85608860  0.40852776  1  0.44954  4.3e-05  0.32348  0.275478  1.9e-05  0.93136  0.0
H  H43  1  0.64391131  0.96848898  0.09147212  1  0.449563  4.3e-05  0.323478  0.275445  1.9e-05  0.931381  0.0
H  H44  1  0.14391166  0.53151123  0.40852839  1  0.449554  4.3e-05  0.323462  0.275404  1.9e-05  0.931453  0.0
H  H45  1  0.35608884  0.03151148  0.09147164  1  0.449552  4.3e-05  0.323499  0.275502  1.9e-05  0.931352  0.0
H  H46  1  0.85608932  0.46848802  0.40852775  1  0.449539  4.3e-05  0.323511  0.275489  1.9e-05  0.931383  0.0
H  H47  1  0.46848900  0.14391118  0.40852782  1  0.449536  4.3e-05  0.323492  0.275483  1.9e-05  0.931345  0.0
H  H48  1  0.03151293  0.64391075  0.90852767  1  0.449523  4.3e-05  0.323519  0.275545  1.9e-05  0.931235  0.0
H  H49  1  0.96848716  0.35608931  0.90852759  1  0.449523  4.3e-05  0.323506  0.275519  1.9e-05  0.93124  0.0
H  H50  1  0.46848840  0.14391113  0.59147175  1  0.449546  4.3e-05  0.323507  0.275499  1.9e-05  0.931374  0.0
H  H51  1  0.35608907  0.03151181  0.90852797  1  0.449545  4.3e-05  0.323486  0.275491  1.9e-05  0.931356  0.0
H  H52  1  0.85608819  0.46848903  0.59147198  1  0.449537  4.3e-05  0.323479  0.275451  1.9e-05  0.931411  0.0
H  H53  1  0.64391102  0.96848825  0.90852844  1  0.449547  4.3e-05  0.323466  0.275435  1.9e-05  0.931377  0.0
H  H54  1  0.14391106  0.53151224  0.59147233  1  0.449543  4.3e-05  0.323469  0.275418  1.9e-05  0.931391  0.0
H  H55  1  0.53151085  0.85608855  0.59147198  1  0.44954  4.3e-05  0.3235  0.275525  1.9e-05  0.931314  0.0
H  H56  1  0.90157978  0.31688906  0.14392507  1  0.098942  0.000392  0.113313  0.128589  0.00032  0.987498  0.0
H  H57  1  0.09841927  0.68311190  0.14392570  1  0.098962  0.000392  0.113326  0.128586  0.00032  0.987558  0.0
H  H58  1  0.59841855  0.81688879  0.35607454  1  0.098955  0.000392  0.113341  0.128623  0.00032  0.987555  0.0
H  H59  1  0.68311110  0.90158293  0.14392591  1  0.098674  0.000392  0.113354  0.128624  0.00032  0.987589  0.0
H  H60  1  0.18311157  0.59841786  0.35607431  1  0.098979  0.000392  0.113348  0.128625  0.00032  0.987595  0.0
H  H61  1  0.31688795  0.09841804  0.14392572  1  0.098989  0.000392  0.113344  0.128603  0.00032  0.987561  0.0
H  H62  1  0.81688892  0.40158353  0.35607483  1  0.098972  0.000392  0.113369  0.128653  0.00032  0.987559  0.0
H  H63  1  0.40158087  0.18311102  0.35607460  1  0.098942  0.000392  0.113357  0.128632  0.00032  0.987559  0.0
H  H64  1  0.09841902  0.68311173  0.85607387  1  0.098976  0.000392  0.113337  0.128601  0.00032  0.987542  0.0
H  H65  1  0.90158164  0.31688836  0.85607410  1  0.09898  0.000392  0.113338  0.128596  0.00032  0.987568  0.0
H  H66  1  0.40158236  0.18311200  0.64392555  1  0.098996  0.000392  0.113339  0.128603  0.00032  0.987522  0.0
H  H67  1  0.31688822  0.09841839  0.85607389  1  0.098984  0.000392  0.113338  0.128606  0.00032  0.987567  0.0
H  H68  1  0.81688828  0.40158240  0.64392606  1  0.099005  0.000392  0.113322  0.128567  0.00032  0.987564  0.0
H  H69  1  0.68311085  0.90158169  0.85607437  1  0.098974  0.000392  0.113343  0.128624  0.00032  0.987564  0.0
H  H70  1  0.18311200  0.59841673  0.64392525  1  0.099004  0.000392  0.113317  0.128572  0.00032  0.987531  0.0
H  H71  1  0.59841898  0.81688872  0.64392520  1  0.098944  0.000392  0.113333  0.128592  0.00032  0.987569  0.0
H  H72  1  0.01346168  0.24695395  0.24422271  1  0.135881  0.000758  0.115335  0.133742  0.000644  0.987156  0.0
H  H73  1  0.98653676  0.75304591  0.24422286  1  0.135801  0.000758  0.115323  0.133737  0.000644  0.987177  0.0
H  H74  1  0.48653695  0.74695259  0.25577644  1  0.135777  0.000758  0.115322  0.133691  0.000644  0.987161  0.0
H  H75  1  0.75304614  0.01346360  0.24422294  1  0.135785  0.000757  0.115305  0.133693  0.000644  0.987244  0.0
H  H76  1  0.25304555  0.48653630  0.25577676  1  0.135921  0.000757  0.11532  0.13373  0.000644  0.987207  0.0
H  H77  1  0.24695390  0.98653519  0.24422292  1  0.135792  0.000758  0.115294  0.133705  0.000644  0.987261  0.0
H  H78  1  0.74695289  0.51346355  0.25577671  1  0.1358  0.000758  0.115285  0.133685  0.000644  0.987126  0.0
H  H79  1  0.51346308  0.25304726  0.25577647  1  0.135786  0.000758  0.115331  0.133719  0.000644  0.987142  0.0
H  H80  1  0.98653552  0.75304578  0.75577680  1  0.135774  0.000758  0.115308  0.133703  0.000644  0.987237  0.0
H  H81  1  0.01346468  0.24695277  0.75577722  1  0.135804  0.000758  0.115311  0.133721  0.000644  0.987228  0.0
H  H82  1  0.51346449  0.25304714  0.74422279  1  0.135802  0.000758  0.115309  0.133744  0.000644  0.987182  0.0
H  H83  1  0.24695372  0.98653560  0.75577686  1  0.135773  0.000758  0.115307  0.133707  0.000644  0.987235  0.0
H  H84  1  0.74695377  0.51346396  0.74422332  1  0.135764  0.000758  0.115302  0.133699  0.000644  0.987236  0.0
H  H85  1  0.75304595  0.01346507  0.75577716  1  0.135807  0.000758  0.11531  0.133725  0.000644  0.987224  0.0
H  H86  1  0.25304802  0.48653724  0.74422309  1  0.135798  0.000758  0.115293  0.13373  0.000644  0.987151  0.0
H  H87  1  0.48653677  0.74695247  0.74422333  1  0.135781  0.000758  0.115304  0.13372  0.000644  0.987173  0.0
H  H88  1  0.12977087  0.29714273  0.14164886  1  0.146571  0.00041  0.116754  0.145315  0.000364  0.995664  0.0
H  H89  1  0.87022871  0.70285717  0.14164876  1  0.146561  0.00041  0.116746  0.145288  0.000364  0.995677  0.0
H  H90  1  0.37022835  0.79714225  0.35835056  1  0.146569  0.00041  0.116754  0.145319  0.000363  0.995645  0.0
H  H91  1  0.70285704  0.12977275  0.14164910  1  0.146562  0.00041  0.116732  0.145265  0.000364  0.995594  0.0
H  H92  1  0.20285730  0.37022762  0.35835118  1  0.146544  0.00041  0.116752  0.14527  0.000364  0.995702  0.0
H  H93  1  0.29714307  0.87022821  0.14164881  1  0.146552  0.00041  0.116737  0.145273  0.000364  0.995679  0.0
H  H94  1  0.79714318  0.62977218  0.35835110  1  0.146525  0.00041  0.116749  0.145274  0.000363  0.995707  0.0
H  H95  1  0.62977160  0.20285702  0.35835058  1  0.146541  0.00041  0.116777  0.145333  0.000363  0.995673  0.0
H  H96  1  0.87022845  0.70285753  0.85835122  1  0.146555  0.00041  0.116738  0.145278  0.000364  0.995674  0.0
H  H97  1  0.12977168  0.29714309  0.85835133  1  0.146525  0.00041  0.11673  0.145271  0.000364  0.995688  0.0
H  H98  1  0.62977150  0.20285695  0.64164866  1  0.146524  0.00041  0.11677  0.14532  0.000364  0.995693  0.0
H  H99  1  0.29714281  0.87022804  0.85835098  1  0.14656  0.00041  0.116745  0.145275  0.000364  0.995672  0.0
H  H100  1  0.79714255  0.62977211  0.64164890  1  0.146544  0.00041  0.11677  0.145314  0.000363  0.99569  0.0
H  H101  1  0.70285731  0.12977205  0.85835156  1  0.146535  0.00041  0.116763  0.145306  0.000363  0.995679  0.0
H  H102  1  0.20285773  0.37022808  0.64164898  1  0.146544  0.00041  0.116772  0.145302  0.000363  0.995684  0.0
H  H103  1  0.37022825  0.79714218  0.64164922  1  0.146564  0.00041  0.116749  0.14531  0.000363  0.995648  0.0
C  C104  1  0.01135320  0.46234880  0.99999994  1  0.067609  -1e-06  -0.006517  0.077932  -4e-06  3.998792  0.0
C  C105  1  0.98864718  0.53765146  0.00000015  1  0.026196  -1e-06  -0.006533  0.077889  -4e-06  3.998789  0.0
C  C106  1  0.48864586  0.96234863  0.50000001  1  0.067461  -1e-06  -0.006615  0.077843  -4e-06  3.998839  0.0
C  C107  1  0.53765089  0.01135283  0.99999992  1  0.026205  -1e-06  -0.006524  0.0779  -4e-06  3.998864  0.0
C  C108  1  0.03765049  0.48864710  0.49999980  1  0.026121  -1e-06  -0.006534  0.077932  -4e-06  3.998807  0.0
C  C109  1  0.46234860  0.98864613  0.99999985  1  0.067595  -1e-06  -0.006615  0.077823  -4e-06  3.998851  0.0
C  C110  1  0.96234883  0.51135369  0.50000028  1  0.067534  -1e-06  -0.006588  0.07789  -4e-06  3.998763  0.0
C  C111  1  0.51135346  0.03765057  0.50000007  1  0.026195  -1e-06  -0.00653  0.077908  -4e-06  3.998886  0.0
C  C112  1  0.02289326  0.42525276  0.03424804  1  -0.04639  3.4e-05  -0.084606  -0.158345  2.4e-05  3.942509  0.0
C  C113  1  0.97710692  0.57474720  0.03424793  1  -0.046392  3.4e-05  -0.084632  -0.158377  2.4e-05  3.942476  0.0
C  C114  1  0.47710558  0.92525235  0.46575223  1  -0.046335  3.4e-05  -0.084605  -0.158333  2.4e-05  3.942588  0.0
C  C115  1  0.57474752  0.02289442  0.03424772  1  -0.046377  3.4e-05  -0.084586  -0.158277  2.4e-05  3.942635  0.0
C  C116  1  0.07474730  0.47710580  0.46575202  1  -0.046329  3.4e-05  -0.084614  -0.158371  2.4e-05  3.942586  0.0
C  C117  1  0.42525213  0.97710553  0.03424767  1  -0.046435  3.4e-05  -0.084578  -0.158284  2.4e-05  3.942619  0.0
C  C118  1  0.92525205  0.52289342  0.46575250  1  -0.046383  3.4e-05  -0.084572  -0.158315  2.4e-05  3.942529  0.0
C  C119  1  0.52289430  0.07474634  0.46575200  1  -0.046381  3.4e-05  -0.08461  -0.158376  2.4e-05  3.942522  0.0
C  C120  1  0.97710712  0.57474750  0.96575205  1  -0.04639  3.4e-05  -0.084611  -0.158317  2.4e-05  3.942588  0.0
C  C121  1  0.02289293  0.42525253  0.96575216  1  -0.046399  3.4e-05  -0.084609  -0.158367  2.3e-05  3.942524  0.0
C  C122  1  0.52289427  0.07474685  0.53424785  1  -0.046387  3.4e-05  -0.084628  -0.158383  2.4e-05  3.942587  0.0
C  C123  1  0.42525233  0.97710531  0.96575208  1  -0.046336  3.4e-05  -0.084595  -0.158297  2.4e-05  3.942633  0.0
C  C124  1  0.92525255  0.52289446  0.53424835  1  -0.046341  3.4e-05  -0.084604  -0.158373  2.4e-05  3.94265  0.0
C  C125  1  0.57474666  0.02289420  0.96575184  1  -0.046383  3.4e-05  -0.084635  -0.158399  2.4e-05  3.942626  0.0
C  C126  1  0.07474675  0.47710631  0.53424787  1  -0.04574  3.4e-05  -0.08465  -0.158446  2.4e-05  3.942439  0.0
C  C127  1  0.47710555  0.92525233  0.53424780  1  -0.046334  3.4e-05  -0.084602  -0.158348  2.4e-05  3.942594  0.0
C  C128  1  0.04773143  0.35541833  0.03440612  1  -0.037823  3.3e-05  -0.009419  -0.017398  2.5e-05  4.012529  0.0
C  C129  1  0.95226875  0.64458163  0.03440629  1  -0.037814  3.3e-05  -0.009435  -0.017476  2.5e-05  4.012482  0.0
C  C130  1  0.45226627  0.85541842  0.46559359  1  -0.03765  3.3e-05  -0.009427  -0.017455  2.5e-05  4.012631  0.0
C  C131  1  0.64458142  0.04773321  0.03440579  1  -0.037741  3.3e-05  -0.009386  -0.017366  2.5e-05  4.012569  0.0
C  C132  1  0.14458118  0.45226656  0.46559393  1  -0.037722  3.3e-05  -0.009391  -0.017345  2.5e-05  4.012456  0.0
C  C133  1  0.35541823  0.95226622  0.03440604  1  -0.037738  3.3e-05  -0.009421  -0.017494  2.5e-05  4.012598  0.0
C  C134  1  0.85541817  0.54773213  0.46559443  1  -0.03781  3.3e-05  -0.0094  -0.017397  2.5e-05  4.012583  0.0
C  C135  1  0.54773414  0.14458027  0.46559334  1  -0.037647  3.3e-05  -0.009307  -0.017207  2.5e-05  4.012401  0.0
C  C136  1  0.95226895  0.64458193  0.96559397  1  -0.037819  3.3e-05  -0.009428  -0.017462  2.5e-05  4.012457  0.0
C  C137  1  0.04773163  0.35541863  0.96559380  1  -0.037821  3.3e-05  -0.009425  -0.017345  2.5e-05  4.01235  0.0
C  C138  1  0.54773358  0.14458131  0.53440564  1  -0.037651  3.3e-05  -0.009382  -0.01735  2.5e-05  4.01251  0.0
C  C139  1  0.35541843  0.95226652  0.96559372  1  -0.037731  3.3e-05  -0.009413  -0.017485  2.5e-05  4.01269  0.0
C  C140  1  0.85541868  0.54773370  0.53440672  1  -0.037726  3.3e-05  -0.009343  -0.017313  2.5e-05  4.012408  0.0
C  C141  1  0.64458056  0.04773457  0.96559376  1  -0.037652  3.3e-05  -0.009422  -0.017381  2.5e-05  4.012601  0.0
C  C142  1  0.14458062  0.45226708  0.53440623  1  -0.03775  3.3e-05  -0.009396  -0.017286  2.5e-05  4.012407  0.0
C  C143  1  0.45226624  0.85541840  0.53440617  1  -0.037658  3.3e-05  -0.009367  -0.017372  2.5e-05  4.012674  0.0
C  C144  1  0.06238195  0.32088150  0.99999994  1  -0.019467  4.4e-05  -0.062084  -0.096978  2.9e-05  3.897747  0.0
C  C145  1  0.93761897  0.67911823  0.00000014  1  -0.019471  4.4e-05  -0.062045  -0.096792  2.9e-05  3.897686  0.0
C  C146  1  0.43761589  0.82088180  0.50000003  1  -0.019744  4.4e-05  -0.062032  -0.09677  2.9e-05  3.897781  0.0
C  C147  1  0.67911769  0.06238388  0.99999961  1  -0.019697  4.4e-05  -0.062101  -0.097004  2.9e-05  3.897967  0.0
C  C148  1  0.17911722  0.43761675  0.50000037  1  -0.019616  4.4e-05  -0.062123  -0.097073  2.9e-05  3.897984  0.0
C  C149  1  0.32088181  0.93761614  0.99999987  1  -0.019779  4.4e-05  -0.062043  -0.096771  2.9e-05  3.897812  0.0
C  C150  1  0.82088210  0.56238298  0.50000058  1  -0.019553  4.4e-05  -0.062131  -0.097063  2.9e-05  3.897847  0.0
C  C151  1  0.56238396  0.17911687  0.49999949  1  -0.019779  4.4e-05  -0.062168  -0.09719  2.9e-05  3.89792  0.0
C  C152  1  0.06256026  0.31748559  0.07123434  1  1.391579  8.1e-05  0.241158  0.478482  7e-05  4.127755  0.0
C  C153  1  0.93744095  0.68251435  0.07123480  1  1.391535  8.1e-05  0.241103  0.478463  7e-05  4.127858  0.0
C  C154  1  0.43743845  0.81748515  0.42876537  1  1.391613  8.1e-05  0.24112  0.478434  7e-05  4.128001  0.0
C  C155  1  0.68251362  0.06256157  0.07123458  1  1.391604  8.1e-05  0.241147  0.478491  7e-05  4.127841  0.0
C  C156  1  0.18251549  0.43743984  0.42876542  1  1.391626  8.1e-05  0.241166  0.478526  7e-05  4.12784  0.0
C  C157  1  0.31748548  0.93743890  0.07123456  1  1.391616  8.1e-05  0.241162  0.478591  7e-05  4.12785  0.0
C  C158  1  0.81748494  0.56255940  0.42876564  1  1.391598  8.1e-05  0.241176  0.478689  7e-05  4.127627  0.0
C  C159  1  0.56256145  0.18251355  0.42876483  1  1.391614  8.1e-05  0.241149  0.478506  7e-05  4.127852  0.0
C  C160  1  0.93744118  0.68251520  0.92876546  1  1.391542  8.1e-05  0.241115  0.478455  7e-05  4.127855  0.0
C  C161  1  0.06255890  0.31748485  0.92876529  1  1.391559  8.1e-05  0.241021  0.478216  7e-05  4.127981  0.0
C  C162  1  0.56256034  0.18251458  0.57123414  1  1.391614  8.1e-05  0.241178  0.478679  7e-05  4.127686  0.0
C  C163  1  0.31748571  0.93743922  0.92876522  1  1.391609  8.1e-05  0.241198  0.478641  7e-05  4.127739  0.0
C  C164  1  0.81748489  0.56256095  0.57123495  1  1.391598  8.1e-05  0.241162  0.478538  7e-05  4.127825  0.0
C  C165  1  0.68251384  0.06256083  0.92876496  1  1.39162  8.1e-05  0.241154  0.478485  7e-05  4.127835  0.0
C  C166  1  0.18251438  0.43744033  0.57123474  1  1.391605  8.1e-05  0.241085  0.478381  7e-05  4.127979  0.0
C  C167  1  0.43743840  0.81748512  0.57123440  1  1.39159  8.1e-05  0.241102  0.47854  7e-05  4.127956  0.0
C  C168  1  0.01587311  0.30873062  0.13793129  1  0.399961  0.001815  0.097571  0.24375  0.001086  4.057811  0.001
C  C169  1  0.98412647  0.69126929  0.13793202  1  0.399956  0.001814  0.097619  0.243762  0.001086  4.057819  0.001
C  C170  1  0.48412665  0.80873080  0.36206842  1  0.399879  0.001814  0.097605  0.243912  0.001086  4.057819  0.001
C  C171  1  0.69126955  0.01587548  0.13793239  1  0.399856  0.001815  0.097642  0.243903  0.001086  4.057704  0.001
C  C172  1  0.19126941  0.48412541  0.36206790  1  0.399878  0.001814  0.097679  0.243914  0.001086  4.05778  0.001
C  C173  1  0.30873003  0.98412549  0.13793207  1  0.399883  0.001814  0.097568  0.243665  0.001086  4.057931  0.001
C  C174  1  0.80873159  0.51587439  0.36206783  1  0.39993  0.001814  0.097601  0.24374  0.001086  4.057939  0.001
C  C175  1  0.51587277  0.19126900  0.36206817  1  0.399877  0.001814  0.097649  0.243941  0.001086  4.057875  0.001
C  C176  1  0.98412621  0.69126911  0.86206793  1  0.39983  0.001814  0.097609  0.243722  0.001086  4.057821  0.001
C  C177  1  0.01587391  0.30873097  0.86206806  1  0.399818  0.001814  0.097673  0.243882  0.001086  4.05776  0.001
C  C178  1  0.51587426  0.19126999  0.63793195  1  0.39988  0.001814  0.097592  0.243742  0.001086  4.05784  0.001
C  C179  1  0.30873083  0.98412531  0.86206770  1  0.399749  0.001814  0.097565  0.243678  0.001086  4.05791  0.001
C  C180  1  0.80873044  0.51587538  0.63793190  1  0.399746  0.001814  0.09763  0.243834  0.001086  4.057801  0.001
C  C181  1  0.69126930  0.01587477  0.86206801  1  0.399956  0.001814  0.097644  0.243864  0.001086  4.057818  0.001
C  C182  1  0.19126879  0.48412534  0.63793168  1  0.399793  0.001814  0.097621  0.243783  0.001086  4.057857  0.001
C  C183  1  0.48412708  0.80873020  0.63793162  1  0.399968  0.001814  0.097543  0.243747  0.001086  4.057888  0.001
C  C184  1  0.95170381  0.30410075  0.15784721  1  -0.049219  -0.000133  -0.079783  -0.185519  -0.000587  3.910859  0.0
C  C185  1  0.04829629  0.69589861  0.15784727  1  -0.049216  -0.000133  -0.079824  -0.185556  -0.000587  3.910858  0.0
C  C186  1  0.54829662  0.80410043  0.34215326  1  -0.049203  -0.000133  -0.079804  -0.185577  -0.000587  3.910773  0.0
C  C187  1  0.69589839  0.95170381  0.15784747  1  -0.048923  -0.000133  -0.079783  -0.185543  -0.000587  3.910835  0.0
C  C188  1  0.19589828  0.54829593  0.34215274  1  -0.049198  -0.000134  -0.079805  -0.185615  -0.000587  3.910801  0.0
C  C189  1  0.30410064  0.04829556  0.15784729  1  -0.049205  -0.000133  -0.079783  -0.185461  -0.000587  3.91081  0.0
C  C190  1  0.80410274  0.45170441  0.34215355  1  -0.049161  -0.000134  -0.079841  -0.185609  -0.000587  3.910827  0.0
C  C191  1  0.45170334  0.19589938  0.34215360  1  -0.049206  -0.000133  -0.079842  -0.185594  -0.000587  3.910804  0.0
C  C192  1  0.04829604  0.69589845  0.84215231  1  -0.049063  -0.000133  -0.079805  -0.185533  -0.000587  3.9108  0.0
C  C193  1  0.95170409  0.30410112  0.84215253  1  -0.04907  -0.000133  -0.0798  -0.185515  -0.000587  3.910817  0.0
C  C194  1  0.45170482  0.19589931  0.65784739  1  -0.049215  -0.000133  -0.079788  -0.18551  -0.000587  3.910801  0.0
C  C195  1  0.30410146  0.04829592  0.84215261  1  -0.049095  -0.000133  -0.079815  -0.185544  -0.000587  3.910848  0.0
C  C196  1  0.80410104  0.45170486  0.65784763  1  -0.049193  -0.000133  -0.079752  -0.185485  -0.000587  3.910726  0.0
C  C197  1  0.69589815  0.95170417  0.84215279  1  -0.049196  -0.000133  -0.079792  -0.18556  -0.000587  3.910753  0.0
C  C198  1  0.19589870  0.54829532  0.65784654  1  -0.049161  -0.000134  -0.07981  -0.185546  -0.000587  3.910731  0.0
C  C199  1  0.54829704  0.80409982  0.65784677  1  -0.049201  -0.000133  -0.079772  -0.185452  -0.000587  3.910746  0.0
C  C200  1  0.95087263  0.28211727  0.19600381  1  -0.034076  0.017894  -0.013786  -0.010458  0.012639  3.994703  0.014
C  C201  1  0.04912691  0.71788420  0.19600473  1  -0.034076  0.017894  -0.013773  -0.010458  0.012638  3.99463  0.014
C  C202  1  0.54912619  0.78211378  0.30399523  1  -0.034058  0.017894  -0.013731  -0.010478  0.012639  3.994547  0.014
C  C203  1  0.71788503  0.95087319  0.19600407  1  -0.034068  0.017894  -0.013776  -0.010469  0.012639  3.994704  0.014
C  C204  1  0.21788494  0.54912658  0.30399528  1  -0.034093  0.017894  -0.0138  -0.010426  0.012639  3.994588  0.014
C  C205  1  0.28211557  0.04912669  0.19600504  1  -0.034083  0.017894  -0.013778  -0.010481  0.012638  3.994668  0.014
C  C206  1  0.78211611  0.45087378  0.30399494  1  -0.034113  0.017895  -0.01373  -0.010285  0.012638  3.994549  0.014
C  C207  1  0.45087380  0.21788551  0.30399499  1  -0.034067  0.017895  -0.013736  -0.010501  0.012639  3.994603  0.014
C  C208  1  0.04912669  0.71788352  0.80399484  1  -0.034069  0.017894  -0.013754  -0.010393  0.012638  3.994588  0.014
C  C209  1  0.95087347  0.28211553  0.80399507  1  -0.034075  0.017894  -0.013813  -0.01059  0.012639  3.994656  0.014
C  C210  1  0.45087366  0.21788489  0.69600485  1  -0.034083  0.017894  -0.013793  -0.010461  0.012638  3.994651  0.014
C  C211  1  0.28211482  0.04912654  0.80399544  1  -0.034052  0.017894  -0.013774  -0.010418  0.012639  3.994619  0.014
C  C212  1  0.78211597  0.45087368  0.69600509  1  -0.034089  0.017894  -0.013735  -0.01036  0.012639  3.994594  0.014
C  C213  1  0.71788481  0.95087410  0.80399533  1  -0.034072  0.017894  -0.013826  -0.010548  0.012638  3.994589  0.014
C  C214  1  0.21788533  0.54912595  0.69600485  1  -0.034062  0.017895  -0.013753  -0.010386  0.012639  3.994531  0.014
C  C215  1  0.54912658  0.78211475  0.69600509  1  -0.034058  0.017894  -0.013792  -0.010551  0.012639  3.994606  0.014
C  C216  1  0.01405819  0.26458354  0.21461669  1  0.002044  0.001501  -0.072022  -0.108381  0.000746  3.901013  0.001
C  C217  1  0.98594187  0.73541686  0.21461684  1  0.002082  0.001501  -0.072036  -0.108413  0.000747  3.901068  0.001
C  C218  1  0.48594099  0.76458323  0.28538303  1  0.002054  0.001501  -0.071992  -0.108227  0.000747  3.900973  0.001
C  C219  1  0.73541710  0.01405743  0.21461721  1  0.002112  0.0015  -0.072037  -0.10841  0.000746  3.901037  0.001
C  C220  1  0.23541596  0.48594192  0.28538307  1  0.001989  0.001501  -0.072062  -0.108473  0.000747  3.901182  0.001
C  C221  1  0.26458348  0.98594191  0.21461719  1  0.002091  0.001501  -0.072049  -0.108455  0.000747  3.901154  0.001
C  C222  1  0.76458510  0.51405792  0.28538359  1  0.002106  0.0015  -0.072029  -0.108427  0.000746  3.901205  0.001
C  C223  1  0.51405848  0.23541661  0.28538335  1  0.002048  0.001501  -0.072017  -0.108295  0.000747  3.901187  0.001
C  C224  1  0.98594167  0.73541672  0.78538282  1  0.002077  0.001501  -0.072047  -0.108443  0.000747  3.901128  0.001
C  C225  1  0.01405851  0.26458340  0.78538324  1  0.002051  0.001501  -0.072  -0.108335  0.000747  3.90104  0.001
C  C226  1  0.51405833  0.23541703  0.71461677  1  0.00209  0.001501  -0.072031  -0.108428  0.000747  3.901073  0.001
C  C227  1  0.26458275  0.98594177  0.78538288  1  0.00209  0.001501  -0.072064  -0.108462  0.000747  3.90116  0.001
C  C228  1  0.76458389  0.51405834  0.71461730  1  0.002075  0.001501  -0.072072  -0.108479  0.000747  3.9012  0.001
C  C229  1  0.73541637  0.01405888  0.78538318  1  0.002046  0.001501  -0.072018  -0.108389  0.000747  3.901068  0.001
C  C230  1  0.23541634  0.48594128  0.71461650  1  0.00211  0.001501  -0.072048  -0.108488  0.000747  3.901161  0.001
C  C231  1  0.48594137  0.76458259  0.71461674  1  0.002054  0.001501  -0.071986  -0.10829  0.000747  3.901004  0.001
C  C232  1  0.07807719  0.27101298  0.19483360  1  -0.037679  0.018013  -0.011516  -0.009786  0.012736  3.977965  0.014
C  C233  1  0.92192288  0.72898690  0.19483377  1  -0.037662  0.018013  -0.011518  -0.009775  0.012737  3.977852  0.014
C  C234  1  0.42192253  0.77101258  0.30516497  1  -0.037651  0.018012  -0.011582  -0.009946  0.012737  3.977923  0.014
C  C235  1  0.72898669  0.07807909  0.19483383  1  -0.037661  0.018012  -0.011509  -0.009776  0.012736  3.977762  0.014
C  C236  1  0.22898493  0.42192237  0.30516588  1  -0.037645  0.018012  -0.011533  -0.009844  0.012736  3.97797  0.014
C  C237  1  0.27101443  0.92192238  0.19483411  1  -0.037644  0.018012  -0.011538  -0.009799  0.012736  3.977915  0.014
C  C238  1  0.77101241  0.57807693  0.30516524  1  -0.037667  0.018013  -0.011486  -0.009731  0.012737  3.977767  0.014
C  C239  1  0.57807693  0.22898831  0.30516443  1  -0.03776  0.018013  -0.011613  -0.009955  0.012737  3.977963  0.014
C  C240  1  0.92192266  0.72898569  0.80516591  1  -0.037654  0.018013  -0.011526  -0.009779  0.012737  3.97786  0.014
C  C241  1  0.07807750  0.27101389  0.80516632  1  -0.037628  0.018013  -0.011521  -0.009804  0.012737  3.977849  0.014
C  C242  1  0.57807785  0.22898609  0.69483397  1  -0.037672  0.018012  -0.011529  -0.00982  0.012736  3.977878  0.014
C  C243  1  0.27101422  0.92192223  0.80516568  1  -0.03766  0.018013  -0.011553  -0.009858  0.012737  3.97788  0.014
C  C244  1  0.77101439  0.57807789  0.69483449  1  -0.037631  0.018012  -0.011563  -0.009885  0.012737  3.977967  0.014
C  C245  1  0.72898542  0.07807788  0.80516598  1  -0.037633  0.018012  -0.011504  -0.009788  0.012736  3.977907  0.014
C  C246  1  0.22898797  0.42192227  0.69483427  1  -0.037679  0.018013  -0.011511  -0.009746  0.012737  3.977774  0.014
C  C247  1  0.42192239  0.77101195  0.69483480  1  -0.037645  0.018012  -0.011559  -0.009887  0.012737  3.97785  0.014
C  C248  1  0.07953451  0.29274272  0.15657780  1  0.017653  -0.000154  -0.072601  -0.166492  -0.000575  3.867501  0.0
C  C249  1  0.92046505  0.70725718  0.15657768  1  0.017645  -0.000154  -0.072598  -0.166425  -0.000575  3.867466  0.0
C  C250  1  0.42046523  0.79274283  0.34342191  1  0.017783  -0.000154  -0.072584  -0.166466  -0.000575  3.867347  0.0
C  C251  1  0.70725698  0.07953480  0.15657861  1  0.017746  -0.000154  -0.072608  -0.166474  -0.000575  3.867405  0.0
C  C252  1  0.20725625  0.42046452  0.34342196  1  0.017714  -0.000154  -0.072602  -0.166367  -0.000575  3.867575  0.0
C  C253  1  0.29274311  0.92046457  0.15657802  1  0.017714  -0.000154  -0.072557  -0.166329  -0.000575  3.867583  0.0
C  C254  1  0.79274371  0.57953529  0.34342218  1  0.0177  -0.000155  -0.072654  -0.166456  -0.000575  3.867395  0.0
C  C255  1  0.57953526  0.20725645  0.34342165  1  0.017832  -0.000155  -0.072643  -0.16649  -0.000575  3.867383  0.0
C  C256  1  0.92046481  0.70725701  0.84342228  1  0.017644  -0.000154  -0.072585  -0.166397  -0.000575  3.867456  0.0
C  C257  1  0.07953533  0.29274308  0.84342240  1  0.017656  -0.000154  -0.072597  -0.166453  -0.000575  3.867483  0.0
C  C258  1  0.57953568  0.20725690  0.65657788  1  0.017735  -0.000154  -0.072649  -0.166456  -0.000575  3.867512  0.0
C  C259  1  0.29274340  0.92046493  0.84342176  1  0.01772  -0.000154  -0.072558  -0.166305  -0.000575  3.86748  0.0
C  C260  1  0.79274254  0.57953574  0.65657812  1  0.017853  -0.000154  -0.072608  -0.16639  -0.000575  3.867551  0.0
C  C261  1  0.70725674  0.07953569  0.84342235  1  0.017624  -0.000154  -0.072611  -0.166421  -0.000575  3.867545  0.0
C  C262  1  0.20725720  0.42046444  0.65657762  1  0.017795  -0.000154  -0.072594  -0.166382  -0.000575  3.867325  0.0
C  C263  1  0.42046512  0.79274222  0.65657786  1  0.017707  -0.000154  -0.072606  -0.166457  -0.000575  3.867365  0.0
C  C264  1  0.88181691  0.27665619  0.21656615  1  1.545844  -0.001894  0.2189  0.582138  -0.002304  4.145141  -0.005
C  C265  1  0.11818421  0.72334209  0.21656506  1  1.545826  -0.001894  0.218936  0.582237  -0.002304  4.144943  -0.005
C  C266  1  0.61818508  0.77665809  0.28343575  1  1.545839  -0.001894  0.218926  0.58219  -0.002304  4.144864  -0.005
C  C267  1  0.72334231  0.88181534  0.21656470  1  1.545842  -0.001894  0.218919  0.582254  -0.002305  4.144867  -0.005
C  C268  1  0.22334179  0.61818603  0.28343637  1  1.545913  -0.001895  0.218921  0.582175  -0.002305  4.144951  -0.005
C  C269  1  0.27665774  0.11818506  0.21656451  1  1.545833  -0.001894  0.218915  0.582171  -0.002304  4.144908  -0.005
C  C270  1  0.77666245  0.38181169  0.28343862  1  1.546227  -0.001894  0.218849  0.581967  -0.002304  4.144954  -0.005
C  C271  1  0.38181546  0.22334175  0.28343553  1  1.545828  -0.001894  0.218935  0.582186  -0.002304  4.144928  -0.005
C  C272  1  0.11818400  0.72334248  0.78343450  1  1.545825  -0.001894  0.218927  0.582196  -0.002304  4.144956  -0.005
C  C273  1  0.88181512  0.27665817  0.78343531  1  1.545834  -0.001894  0.218912  0.582209  -0.002304  4.144874  -0.005
C  C274  1  0.38181530  0.22334217  0.71656434  1  1.545832  -0.001894  0.218923  0.582157  -0.002304  4.144895  -0.005
C  C275  1  0.27665807  0.11818439  0.78343510  1  1.545831  -0.001894  0.218931  0.582202  -0.002304  4.144859  -0.005
C  C276  1  0.77665806  0.38181529  0.71656486  1  1.545836  -0.001894  0.218892  0.582115  -0.002304  4.144988  -0.005
C  C277  1  0.72334158  0.88181626  0.78343529  1  1.545826  -0.001894  0.218945  0.582252  -0.002304  4.144885  -0.005
C  C278  1  0.22334111  0.61818592  0.71656318  1  1.545891  -0.001895  0.218919  0.582122  -0.002304  4.144958  -0.005
C  C279  1  0.61818493  0.77665798  0.71656427  1  1.545825  -0.001894  0.218934  0.582209  -0.002304  4.144823  -0.005
C  C280  1  0.14652845  0.25683253  0.21487481  1  1.547406  -0.00184  0.220232  0.582199  -0.002278  4.136356  -0.005
C  C281  1  0.85347107  0.74316733  0.21487499  1  1.547419  -0.00184  0.220265  0.582208  -0.002278  4.136338  -0.005
C  C282  1  0.35347019  0.75683260  0.28512548  1  1.547398  -0.00184  0.22029  0.582226  -0.002278  4.136236  -0.005
C  C283  1  0.74316985  0.14652828  0.21487647  1  1.547182  -0.001842  0.22023  0.582168  -0.002278  4.136354  -0.005
C  C284  1  0.24316696  0.35347108  0.28512524  1  1.547386  -0.00184  0.220271  0.582229  -0.002278  4.136297  -0.005
C  C285  1  0.25683285  0.85347106  0.21487504  1  1.547392  -0.00184  0.220268  0.582165  -0.002278  4.136325  -0.005
C  C286  1  0.75683251  0.64652982  0.28512574  1  1.547524  -0.001842  0.220337  0.582263  -0.002278  4.136254  -0.005
C  C287  1  0.64653088  0.24316724  0.28512663  1  1.547583  -0.001842  0.220335  0.582191  -0.002278  4.136019  -0.005
C  C288  1  0.85347087  0.74316720  0.78512528  1  1.547412  -0.00184  0.220264  0.582195  -0.002278  4.136338  -0.005
C  C289  1  0.14652931  0.25683240  0.78512538  1  1.547421  -0.00184  0.220265  0.582233  -0.002278  4.136273  -0.005
C  C290  1  0.64652966  0.24316714  0.71487431  1  1.547408  -0.00184  0.220297  0.582187  -0.002278  4.13627  -0.005
C  C291  1  0.25683265  0.85347039  0.78512476  1  1.547423  -0.00184  0.220278  0.582181  -0.002278  4.136288  -0.005
C  C292  1  0.75683289  0.64652971  0.71487485  1  1.547415  -0.00184  0.220279  0.582212  -0.002278  4.136106  -0.005
C  C293  1  0.74316700  0.14652973  0.78512562  1  1.547413  -0.00184  0.220321  0.582272  -0.002278  4.136256  -0.005
C  C294  1  0.24316787  0.35347044  0.71487435  1  1.547395  -0.00184  0.220341  0.582233  -0.002278  4.136235  -0.005
C  C295  1  0.35347004  0.75683249  0.71487431  1  1.547395  -0.00184  0.220248  0.582168  -0.002277  4.136153  -0.005
N  N296  1  0.01424050  0.33245375  0.09984529  1  -1.248848  0.000501  -0.400953  -0.388398  0.000269  3.572187  0.0
N  N297  1  0.98576017  0.66754617  0.09984546  1  -1.248808  0.000501  -0.400941  -0.388391  0.000269  3.572364  0.0
N  N298  1  0.48575771  0.83245338  0.40015441  1  -1.24881  0.000501  -0.400962  -0.388485  0.000269  3.572582  0.0
N  N299  1  0.66754592  0.01424177  0.09984554  1  -1.248799  0.000501  -0.400925  -0.388392  0.000269  3.572472  0.0
N  N300  1  0.16754681  0.48575909  0.40015447  1  -1.248831  0.000501  -0.400912  -0.388344  0.000269  3.572635  0.0
N  N301  1  0.33245316  0.98575869  0.09984522  1  -1.2488  0.000501  -0.400915  -0.388416  0.000269  3.572496  0.0
N  N302  1  0.83245470  0.51424122  0.40015469  1  -1.248837  0.000501  -0.400975  -0.388459  0.000269  3.572406  0.0
N  N303  1  0.51424222  0.16754640  0.40015417  1  -1.248828  0.000501  -0.400936  -0.388467  0.000269  3.572553  0.0
N  N304  1  0.98575989  0.66754651  0.90015450  1  -1.248793  0.000501  -0.400923  -0.388377  0.000269  3.572382  0.0
N  N305  1  0.01424021  0.33245409  0.90015434  1  -1.248804  0.000501  -0.400878  -0.388303  0.000269  3.572328  0.0
N  N306  1  0.51424109  0.16754635  0.59984538  1  -1.248806  0.000501  -0.400963  -0.388474  0.000269  3.572413  0.0
N  N307  1  0.33245340  0.98575902  0.90015455  1  -1.248818  0.000501  -0.400916  -0.388425  0.000269  3.572451  0.0
N  N308  1  0.83245251  0.51424117  0.59984590  1  -1.248812  0.000501  -0.400954  -0.388443  0.000269  3.572614  0.0
N  N309  1  0.66754669  0.01424104  0.90015430  1  -1.24884  0.000501  -0.400959  -0.388426  0.000269  3.572548  0.0
N  N310  1  0.16754621  0.48575904  0.59984568  1  -1.248867  0.000501  -0.400925  -0.388331  0.000269  3.572614  0.0
N  N311  1  0.48575764  0.83245280  0.59984534  1  -1.248788  0.000501  -0.400976  -0.388568  0.000269  3.572481  0.0
O  O312  1  0.11356523  0.27749380  0.07509028  1  -1.099391  0.000134  -0.289777  -0.456099  5.9e-05  2.047981  0.0
O  O313  1  0.88643704  0.72250878  0.07509074  1  -1.099363  0.000134  -0.289734  -0.456078  5.9e-05  2.047957  0.0
O  O314  1  0.38643343  0.77749225  0.42490944  1  -1.099481  0.000134  -0.289723  -0.456027  5.9e-05  2.048104  0.0
O  O315  1  0.72250651  0.11356660  0.07509137  1  -1.099441  0.000134  -0.289724  -0.456054  5.9e-05  2.048019  0.0
O  O316  1  0.22250780  0.38643380  0.42490891  1  -1.099453  0.000134  -0.289798  -0.456142  5.9e-05  2.047984  0.0
O  O317  1  0.27749205  0.88643334  0.07509107  1  -1.09947  0.000134  -0.289726  -0.456084  5.9e-05  2.048021  0.0
O  O318  1  0.77749051  0.61356385  0.42490998  1  -1.099406  0.000134  -0.289748  -0.456172  5.9e-05  2.047897  0.0
O  O319  1  0.61356594  0.22250805  0.42490917  1  -1.099455  0.000134  -0.289767  -0.456094  5.9e-05  2.047981  0.0
O  O320  1  0.88643727  0.72250963  0.92490981  1  -1.099378  0.000134  -0.289707  -0.456049  5.9e-05  2.048003  0.0
O  O321  1  0.11356281  0.27749095  0.92490935  1  -1.099376  0.000134  -0.289729  -0.456  5.9e-05  2.048068  0.0
O  O322  1  0.61356642  0.22250695  0.57509093  1  -1.099429  0.000134  -0.289764  -0.456168  5.9e-05  2.047967  0.0
O  O323  1  0.27749334  0.88643366  0.92490843  1  -1.099436  0.000134  -0.289749  -0.456104  5.9e-05  2.047962  0.0
O  O324  1  0.77749205  0.61356646  0.57509146  1  -1.099452  0.000134  -0.289772  -0.456105  5.9e-05  2.04802  0.0
O  O325  1  0.72250780  0.11356586  0.92490872  1  -1.099439  0.000134  -0.289752  -0.456064  5.9e-05  2.047977  0.0
O  O326  1  0.22250987  0.38643694  0.57508981  1  -1.099395  0.000134  -0.289732  -0.456059  5.9e-05  2.048046  0.0
O  O327  1  0.38643338  0.77749168  0.57509006  1  -1.099469  0.000134  -0.289696  -0.456067  5.9e-05  2.048068  0.0
O  O328  1  0.82767432  0.30434011  0.20040117  1  -1.089044  0.104594  -0.313958  -0.521712  0.067068  2.311866  0.095
O  O329  1  0.17232469  0.69565924  0.20040179  1  -1.089109  0.104583  -0.31395  -0.521684  0.067061  2.311872  0.095
O  O330  1  0.67232452  0.80434048  0.29959815  1  -1.089272  0.104579  -0.313961  -0.521679  0.067057  2.311903  0.095
O  O331  1  0.69566151  0.82767482  0.20040115  1  -1.089101  0.104581  -0.313919  -0.52167  0.067059  2.311788  0.095
O  O332  1  0.19566211  0.67232599  0.29959907  1  -1.089166  0.104577  -0.31394  -0.521681  0.067056  2.31194  0.095
O  O333  1  0.30433961  0.17232506  0.20040181  1  -1.089253  0.104581  -0.313955  -0.521658  0.067059  2.311851  0.095
O  O334  1  0.80434000  0.32767437  0.29960017  1  -1.089439  0.104567  -0.313939  -0.521663  0.067049  2.311936  0.095
O  O335  1  0.32767600  0.19565935  0.29959851  1  -1.089122  0.104582  -0.313927  -0.521601  0.06706  2.311887  0.095
O  O336  1  0.17232448  0.69565909  0.79959777  1  -1.089088  0.104583  -0.313933  -0.521644  0.067061  2.311847  0.095
O  O337  1  0.82767569  0.30434049  0.79959830  1  -1.089131  0.104581  -0.313952  -0.521684  0.067059  2.311844  0.095
O  O338  1  0.32767533  0.19566031  0.70040194  1  -1.089109  0.104578  -0.313941  -0.521648  0.067057  2.311907  0.095
O  O339  1  0.30434046  0.17232438  0.79959779  1  -1.089113  0.104578  -0.313956  -0.521691  0.067058  2.311845  0.095
O  O340  1  0.80434039  0.32767533  0.70040216  1  -1.089238  0.104582  -0.313946  -0.521654  0.067059  2.311894  0.095
O  O341  1  0.69565918  0.82767573  0.79959799  1  -1.089107  0.10458  -0.313947  -0.52167  0.067059  2.311835  0.095
O  O342  1  0.19566197  0.67232483  0.70040049  1  -1.08921  0.104575  -0.313907  -0.521623  0.067054  2.311928  0.095
O  O343  1  0.67232438  0.80433985  0.70040157  1  -1.089127  0.104579  -0.313945  -0.521665  0.067058  2.31187  0.095
O  O344  1  0.88228463  0.24430685  0.24870173  1  -1.092811  0.100746  -0.312802  -0.510747  0.064508  2.323814  0.091
O  O345  1  0.11771752  0.75569459  0.24870149  1  -1.092735  0.100753  -0.312854  -0.510821  0.064512  2.32369  0.091
O  O346  1  0.61771732  0.74430506  0.25129817  1  -1.092704  0.100763  -0.312846  -0.510795  0.064519  2.323526  0.091
O  O347  1  0.75569532  0.88228258  0.24870141  1  -1.092725  0.10076  -0.312852  -0.510829  0.064517  2.323671  0.091
O  O348  1  0.25569430  0.61771777  0.25129822  1  -1.09272  0.100766  -0.312815  -0.510724  0.064521  2.32362  0.091
O  O349  1  0.24430470  0.11771781  0.24870152  1  -1.092714  0.100757  -0.312829  -0.510756  0.064515  2.323604  0.091
O  O350  1  0.74430732  0.38227997  0.25129933  1  -1.092802  0.100772  -0.312808  -0.510686  0.064526  2.323543  0.092
O  O351  1  0.38228271  0.25569532  0.25129852  1  -1.092708  0.100761  -0.312875  -0.510823  0.064518  2.323591  0.091
O  O352  1  0.11771734  0.75569447  0.75129835  1  -1.092763  0.100751  -0.312864  -0.510838  0.064511  2.323726  0.091
O  O353  1  0.88228180  0.24430514  0.75129831  1  -1.092711  0.100759  -0.312828  -0.510761  0.064516  2.323585  0.091
O  O354  1  0.38228307  0.25569573  0.74870163  1  -1.092717  0.100763  -0.312857  -0.510792  0.064519  2.323529  0.091
O  O355  1  0.24430506  0.11771768  0.75129838  1  -1.092727  0.100759  -0.312839  -0.510781  0.064516  2.323613  0.091
O  O356  1  0.74430449  0.38228302  0.74870158  1  -1.092732  0.100759  -0.312831  -0.510753  0.064516  2.323613  0.091
O  O357  1  0.75569462  0.88228298  0.75129856  1  -1.092715  0.100756  -0.312843  -0.510808  0.064515  2.32367  0.091
O  O358  1  0.25569412  0.61771765  0.74870133  1  -1.092686  0.100769  -0.312858  -0.51078  0.064523  2.323595  0.092
O  O359  1  0.61771767  0.74430441  0.74870157  1  -1.092705  0.100763  -0.312857  -0.510788  0.064519  2.32351  0.091
O  O360  1  0.20284247  0.27759766  0.19778507  1  -1.087034  0.105484  -0.313649  -0.511451  0.067495  2.330321  0.096
O  O361  1  0.79715707  0.72240169  0.19778469  1  -1.087038  0.105486  -0.313664  -0.511464  0.067496  2.330305  0.096
O  O362  1  0.29715726  0.77759764  0.30221465  1  -1.087055  0.105482  -0.313652  -0.511462  0.067494  2.330354  0.096
O  O363  1  0.72240163  0.20284493  0.19778531  1  -1.086756  0.105492  -0.313634  -0.511416  0.0675  2.330109  0.096
O  O364  1  0.22240237  0.29715705  0.30221526  1  -1.087069  0.105483  -0.313668  -0.511492  0.067494  2.330325  0.096
O  O365  1  0.27759896  0.79715706  0.19778445  1  -1.087078  0.105484  -0.313666  -0.511436  0.067495  2.330306  0.096
O  O366  1  0.77759762  0.70284225  0.30221517  1  -1.087207  0.105478  -0.31365  -0.511431  0.06749  2.330349  0.096
O  O367  1  0.70284062  0.22240430  0.30221493  1  -1.087197  0.105472  -0.313629  -0.511372  0.067485  2.330421  0.096
O  O368  1  0.79715685  0.72240207  0.80221530  1  -1.087074  0.105482  -0.31368  -0.511493  0.067494  2.330335  0.096
O  O369  1  0.20284331  0.27759804  0.80221539  1  -1.087078  0.105483  -0.31369  -0.511519  0.067495  2.330304  0.096
O  O370  1  0.70284365  0.22240209  0.69778458  1  -1.087109  0.105482  -0.31364  -0.511382  0.067493  2.330273  0.096
O  O371  1  0.27759928  0.79715639  0.80221535  1  -1.087097  0.105483  -0.313661  -0.51144  0.067495  2.330282  0.096
O  O372  1  0.77759748  0.70284321  0.69778482  1  -1.087076  0.105484  -0.313699  -0.511497  0.067495  2.330325  0.096
O  O373  1  0.72240195  0.20284320  0.80221563  1  -1.087106  0.105482  -0.31367  -0.511449  0.067494  2.330281  0.096
O  O374  1  0.22240276  0.29715748  0.69778491  1  -1.087078  0.10548  -0.313647  -0.511403  0.067492  2.330327  0.096
O  O375  1  0.29715765  0.77759755  0.69778544  1  -1.08706  0.105479  -0.313636  -0.511383  0.067492  2.33035  0.096
O  O376  1  0.14381300  0.22619265  0.24741745  1  -1.09793  0.103926  -0.309011  -0.514162  0.066756  2.29771  0.094
O  O377  1  0.85618650  0.77380720  0.24741734  1  -1.097926  0.103924  -0.309014  -0.514169  0.066755  2.297763  0.094
O  O378  1  0.35618560  0.72619114  0.25258256  1  -1.097965  0.103928  -0.309004  -0.51409  0.066758  2.297623  0.094
O  O379  1  0.77380758  0.14381340  0.24741710  1  -1.098019  0.103911  -0.309005  -0.514137  0.066746  2.297871  0.094
O  O380  1  0.27380790  0.35618600  0.25258288  1  -1.097905  0.103923  -0.309015  -0.51414  0.066754  2.297745  0.094
O  O381  1  0.22619245  0.85618593  0.24741711  1  -1.097919  0.10392  -0.309016  -0.514129  0.066753  2.297755  0.094
O  O382  1  0.72619160  0.64381438  0.25258281  1  -1.097949  0.103928  -0.30907  -0.514227  0.066758  2.297702  0.094
O  O383  1  0.64381389  0.27381030  0.25258170  1  -1.097899  0.103946  -0.309077  -0.514194  0.066769  2.297279  0.095
O  O384  1  0.85618632  0.77380761  0.75258292  1  -1.097906  0.103924  -0.309012  -0.514136  0.066755  2.297759  0.094
O  O385  1  0.14381388  0.22619253  0.75258275  1  -1.097908  0.103924  -0.308974  -0.514103  0.066755  2.29771  0.094
O  O386  1  0.64381372  0.27380753  0.74741695  1  -1.097879  0.103925  -0.309051  -0.51419  0.066756  2.29774  0.094
O  O387  1  0.22619227  0.85618580  0.75258298  1  -1.097923  0.103923  -0.309004  -0.514096  0.066755  2.297746  0.094
O  O388  1  0.72619248  0.64381426  0.74741778  1  -1.097977  0.103926  -0.308965  -0.514075  0.066757  2.297571  0.094
O  O389  1  0.77380740  0.14381433  0.75258269  1  -1.097887  0.103926  -0.309047  -0.514228  0.066757  2.297713  0.094
O  O390  1  0.27380825  0.35618588  0.74741727  1  -1.097957  0.103928  -0.309052  -0.51419  0.066758  2.297715  0.094
O  O391  1  0.35618543  0.72619102  0.74741752  1  -1.097961  0.10393  -0.308969  -0.514117  0.066759  2.297505  0.094
