# generated using pymatgen
data_Cu3Mo3H24C40N8O11
_symmetry_space_group_name_H-M   'P 1'
_cell_length_a   9.65562903
_cell_length_b   21.81338545
_cell_length_c   21.87940351
_cell_angle_alpha   89.99988338
_cell_angle_beta   99.13009795
_cell_angle_gamma   89.99997824
_symmetry_Int_Tables_number   1
_chemical_formula_structural   Cu3Mo3H24C40N8O11
_chemical_formula_sum   'Cu12 Mo12 H96 C160 N32 O44'
_cell_volume   4549.89857531
_cell_formula_units_Z   4
loop_
 _symmetry_equiv_pos_site_id
 _symmetry_equiv_pos_as_xyz
  1  'x, y, z'
loop_
 _atom_site_type_symbol
 _atom_site_label
 _atom_site_symmetry_multiplicity
 _atom_site_fract_x
 _atom_site_fract_y
 _atom_site_fract_z
 _atom_site_occupancy
 _atom_site_pbe_bader_charge
 _atom_site_pbe_bader_spin_density
 _atom_site_pbe_cm5_charge
 _atom_site_pbe_ddec_charge
 _atom_site_pbe_ddec_spin_density
 _atom_site_pbe_ddec_sum_bond_order
 _atom_site_pbe_magmom
Cu  Cu0  1  0.94770286  0.68965541  0.85167531  1  1.124675  0.565774  0.754236  0.950673  0.720793  2.230094  0.564
Cu  Cu1  1  0.44770188  0.81034465  0.85167537  1  1.124666  0.565777  0.754205  0.950593  0.720797  2.230148  0.564
Cu  Cu2  1  0.05229694  0.31034415  0.14832482  1  1.12467  0.565775  0.754222  0.950694  0.720794  2.230052  0.564
Cu  Cu3  1  0.55229687  0.18965583  0.14832513  1  1.12467  0.565777  0.754236  0.950699  0.720795  2.230074  0.564
Cu  Cu4  1  0.45271189  0.67193899  0.67133412  1  1.118922  0.577974  0.765626  0.940575  0.735879  2.337852  0.575
Cu  Cu5  1  0.95271265  0.82806052  0.67133467  1  1.118934  0.577974  0.765638  0.940619  0.735879  2.337807  0.575
Cu  Cu6  1  0.54728686  0.32806057  0.32866548  1  1.118968  0.577974  0.765641  0.94059  0.735878  2.337831  0.575
Cu  Cu7  1  0.04728820  0.17193904  0.32866598  1  1.11888  0.577972  0.765662  0.940708  0.735878  2.337747  0.575
Cu  Cu8  1  0.49548860  0.76072985  0.25249347  1  0.984768  0.552377  0.73744  0.608919  0.713625  2.31898  0.556
Cu  Cu9  1  0.99549054  0.73927051  0.25249291  1  0.984745  0.552375  0.737451  0.608954  0.713621  2.319007  0.556
Cu  Cu10  1  0.50450911  0.23927017  0.74750742  1  0.984747  0.552376  0.737422  0.608929  0.713623  2.318996  0.556
Cu  Cu11  1  0.00450926  0.26072997  0.74750721  1  0.984792  0.552376  0.737432  0.608949  0.713621  2.318952  0.556
Mo  Mo12  1  0.88139704  0.67250744  0.64685047  1  2.539485  0.007268  1.465272  2.067111  0.006387  4.813946  0.007
Mo  Mo13  1  0.38139814  0.82749305  0.64685202  1  2.539471  0.007267  1.465223  2.067049  0.006387  4.813927  0.007
Mo  Mo14  1  0.11860065  0.32749258  0.35314768  1  2.539447  0.007268  1.465292  2.067202  0.006387  4.813871  0.007
Mo  Mo15  1  0.61860166  0.17250697  0.35314902  1  2.53945  0.007268  1.465246  2.067089  0.006387  4.813979  0.007
Mo  Mo16  1  0.54181372  0.66259959  0.84129296  1  2.522034  0.020972  1.458932  2.045757  0.018419  4.840043  0.024
Mo  Mo17  1  0.04181481  0.83740102  0.84129449  1  2.522029  0.020973  1.458928  2.045748  0.018419  4.839888  0.024
Mo  Mo18  1  0.45818607  0.33740089  0.15870625  1  2.52205  0.020972  1.458888  2.045707  0.018419  4.839889  0.024
Mo  Mo19  1  0.95818710  0.16259808  0.15870715  1  2.522047  0.020974  1.458957  2.045809  0.01842  4.83996  0.024
Mo  Mo20  1  0.68889599  0.75116824  0.74011551  1  2.596778  0.006442  1.490031  2.158523  0.003903  4.655715  0.008
Mo  Mo21  1  0.18889721  0.74883118  0.74011586  1  2.596818  0.006442  1.490066  2.158522  0.003903  4.655774  0.008
Mo  Mo22  1  0.31110381  0.24883224  0.25988415  1  2.596833  0.006444  1.489999  2.158472  0.003905  4.655836  0.008
Mo  Mo23  1  0.81110364  0.25116792  0.25988434  1  2.596764  0.006442  1.490024  2.158507  0.003903  4.655857  0.008
H  H24  1  0.89030657  0.65574492  0.97820462  1  0.139375  0.002505  0.120148  0.105034  0.001166  1.000623  0.002
H  H25  1  0.39030660  0.84425536  0.97820606  1  0.139368  0.002505  0.120138  0.10504  0.001166  1.000639  0.002
H  H26  1  0.10969427  0.34425602  0.02179512  1  0.139369  0.002505  0.120148  0.105031  0.001166  1.000611  0.002
H  H27  1  0.60969426  0.15574421  0.02179551  1  0.139355  0.002504  0.120155  0.105021  0.001166  1.000612  0.002
H  H28  1  0.23970426  0.70601281  0.90084850  1  0.210711  0.002619  0.121436  0.123458  0.001363  1.045122  0.002
H  H29  1  0.73970192  0.79398811  0.90084753  1  0.210507  0.00262  0.121429  0.123444  0.001363  1.045145  0.002
H  H30  1  0.76029554  0.29398630  0.09915117  1  0.210708  0.002619  0.121413  0.123428  0.001363  1.04517  0.002
H  H31  1  0.26029787  0.20601329  0.09915122  1  0.210525  0.00262  0.121421  0.123431  0.001363  1.04517  0.002
H  H32  1  0.01889959  0.67501297  0.08629766  1  0.11171  0.001269  0.103533  0.115579  0.000628  1.053026  0.001
H  H33  1  0.51890036  0.82498735  0.08629868  1  0.111693  0.001269  0.103527  0.115572  0.000628  1.053012  0.001
H  H34  1  0.98110125  0.32498889  0.91370162  1  0.111688  0.001269  0.103518  0.115565  0.000628  1.053056  0.001
H  H35  1  0.48110154  0.17501129  0.91370205  1  0.11169  0.001269  0.103525  0.115592  0.000628  1.053022  0.001
H  H36  1  0.37999735  0.72554300  0.00370051  1  0.104384  0.001049  0.10802  0.119201  0.000526  1.019675  0.001
H  H37  1  0.87999609  0.77445834  0.00369966  1  0.104392  0.001049  0.10802  0.119232  0.000526  1.019629  0.001
H  H38  1  0.62000244  0.27445610  0.99629870  1  0.1044  0.001049  0.108018  0.119212  0.000526  1.019632  0.001
H  H39  1  0.12000370  0.22554397  0.99629955  1  0.104486  0.001049  0.10803  0.119235  0.000526  1.019599  0.001
H  H40  1  0.72835914  0.07816094  0.17700358  1  0.141324  0.002429  0.117578  0.084761  0.001134  1.031444  0.002
H  H41  1  0.22835903  0.42183941  0.17700348  1  0.14132  0.002429  0.117579  0.084779  0.001134  1.031426  0.002
H  H42  1  0.27164172  0.92184000  0.82299844  1  0.141331  0.002429  0.117604  0.084765  0.001134  1.031447  0.002
H  H43  1  0.77164076  0.57816061  0.82299664  1  0.141321  0.002429  0.117566  0.084742  0.001134  1.031461  0.002
H  H44  1  0.30263787  0.11489807  0.16027346  1  0.170073  0.002136  0.122448  0.105548  0.001027  1.017508  0.002
H  H45  1  0.80263748  0.38510230  0.16027290  1  0.170101  0.002136  0.122425  0.10557  0.001027  1.017428  0.002
H  H46  1  0.69736193  0.88510195  0.83972666  1  0.170047  0.002136  0.122465  0.105598  0.001027  1.017494  0.002
H  H47  1  0.19736126  0.61489772  0.83972623  1  0.169663  0.002137  0.122439  0.105568  0.001027  1.017447  0.002
H  H48  1  0.24676723  0.00855371  0.18381576  1  0.083972  0.001189  0.109302  0.125466  0.000606  1.00847  0.001
H  H49  1  0.74676668  0.49144662  0.18381589  1  0.083973  0.001189  0.109314  0.125468  0.000606  1.008475  0.001
H  H50  1  0.75323362  0.99144677  0.81618444  1  0.083962  0.001189  0.109304  0.125471  0.000606  1.008474  0.001
H  H51  1  0.25323207  0.50855340  0.81618371  1  0.083983  0.001189  0.109301  0.125432  0.000606  1.008511  0.001
H  H52  1  0.69077309  0.96843767  0.20260906  1  0.07219  0.001179  0.101223  0.104841  0.000592  1.046898  0.001
H  H53  1  0.19077256  0.53156238  0.20260927  1  0.072183  0.001179  0.101221  0.10484  0.000592  1.046903  0.001
H  H54  1  0.30922776  0.03156281  0.79739113  1  0.072187  0.001179  0.101221  0.104839  0.000592  1.046861  0.001
H  H55  1  0.80922618  0.46843764  0.79738986  1  0.072344  0.001179  0.10122  0.10483  0.000592  1.046921  0.001
H  H56  1  0.55433510  0.82769307  0.49456614  1  0.108491  0.001137  0.111987  0.135969  0.000595  1.005581  0.001
H  H57  1  0.05433331  0.67230595  0.49456689  1  0.108466  0.001137  0.112008  0.136009  0.000595  1.005537  0.001
H  H58  1  0.44566469  0.17230741  0.50543399  1  0.108498  0.001137  0.111979  0.135964  0.000595  1.005592  0.001
H  H59  1  0.94566440  0.32769269  0.50543401  1  0.108499  0.001137  0.111954  0.135926  0.000595  1.005665  0.001
H  H60  1  0.67350810  0.83658199  0.60320456  1  0.140591  0.002568  0.121756  0.096077  0.001235  1.040015  0.002
H  H61  1  0.17350735  0.66341725  0.60320357  1  0.140677  0.002568  0.121765  0.096091  0.001235  1.040027  0.002
H  H62  1  0.32649170  0.16341849  0.39679648  1  0.140611  0.002568  0.121768  0.096096  0.001235  1.040052  0.002
H  H63  1  0.82649244  0.33658093  0.39679655  1  0.140599  0.002568  0.121776  0.096082  0.001234  1.040071  0.002
H  H64  1  0.06714483  0.81293789  0.55441232  1  0.164165  0.002621  0.122882  0.106328  0.001255  1.005982  0.002
H  H65  1  0.56714267  0.68706559  0.55441341  1  0.164209  0.002621  0.122877  0.106392  0.001255  1.005855  0.002
H  H66  1  0.93285496  0.18706213  0.44558689  1  0.164159  0.002621  0.122898  0.106401  0.001255  1.005921  0.002
H  H67  1  0.43285503  0.31293809  0.44558748  1  0.164167  0.002621  0.122889  0.106423  0.001255  1.005864  0.002
H  H68  1  0.96453581  0.80162423  0.44165229  1  0.11563  0.001308  0.105473  0.11759  0.000675  1.023393  0.001
H  H69  1  0.46453293  0.69837850  0.44165337  1  0.115404  0.001308  0.105427  0.117521  0.000675  1.023397  0.001
H  H70  1  0.03546293  0.19837533  0.55834685  1  0.115637  0.001308  0.105467  0.117583  0.000675  1.023439  0.001
H  H71  1  0.53546373  0.30162336  0.55834700  1  0.115663  0.001307  0.105463  0.117596  0.000675  1.023433  0.001
H  H72  1  0.77694899  0.41631967  0.32386955  1  0.164511  0.002712  0.125096  0.113205  0.0013  1.00566  0.002
H  H73  1  0.27695257  0.08367946  0.32386994  1  0.164469  0.002713  0.125072  0.113233  0.001301  1.005612  0.002
H  H74  1  0.22305186  0.58367990  0.67613018  1  0.164517  0.002712  0.1251  0.113216  0.0013  1.005645  0.002
H  H75  1  0.72305142  0.91632010  0.67613002  1  0.164505  0.002712  0.12509  0.113185  0.0013  1.005679  0.002
H  H76  1  0.34639154  0.42476406  0.32132180  1  0.14497  0.002669  0.12349  0.097578  0.001189  1.01725  0.002
H  H77  1  0.84639480  0.07523414  0.32132258  1  0.145035  0.002669  0.123503  0.097598  0.001189  1.017156  0.002
H  H78  1  0.65360826  0.57523550  0.67867786  1  0.144978  0.002669  0.123492  0.097576  0.001189  1.017248  0.002
H  H79  1  0.15360815  0.92476542  0.67867776  1  0.145037  0.002669  0.123502  0.097595  0.001189  1.017247  0.002
H  H80  1  0.79184492  0.52928106  0.30538906  1  0.131115  0.001201  0.108381  0.117668  0.000622  1.028441  0.001
H  H81  1  0.29184893  0.97071831  0.30538960  1  0.131031  0.001201  0.108377  0.117666  0.000622  1.028472  0.001
H  H82  1  0.20815488  0.47071896  0.69461061  1  0.131112  0.001201  0.108384  0.117672  0.000622  1.028487  0.001
H  H83  1  0.70815507  0.02928125  0.69461127  1  0.131094  0.001201  0.108384  0.117673  0.000622  1.028483  0.001
H  H84  1  0.34319623  0.53816280  0.30120125  1  0.096975  0.001337  0.10594  0.11436  0.000674  1.032147  0.001
H  H85  1  0.84319989  0.96183702  0.30119899  1  0.097338  0.001337  0.105927  0.114352  0.000674  1.032088  0.001
H  H86  1  0.65680357  0.46183676  0.69879887  1  0.096978  0.001337  0.105937  0.114346  0.000674  1.032137  0.001
H  H87  1  0.15680200  0.03816300  0.69880037  1  0.097007  0.001337  0.105925  0.114374  0.000674  1.032091  0.001
H  H88  1  0.16341524  0.82661257  0.04834172  1  0.096876  0.001122  0.112415  0.133594  0.000571  0.994824  0.001
H  H89  1  0.66341519  0.67338780  0.04834207  1  0.096887  0.001122  0.112401  0.133556  0.000571  0.994837  0.001
H  H90  1  0.83658456  0.17338745  0.95165795  1  0.096894  0.001122  0.112408  0.13356  0.000571  0.994856  0.001
H  H91  1  0.33658565  0.32661313  0.95165812  1  0.096887  0.001122  0.112415  0.133584  0.000571  0.994825  0.001
H  H92  1  0.26218157  0.93278264  0.10091855  1  0.125222  0.001154  0.112028  0.132387  0.000594  1.001985  0.001
H  H93  1  0.76218066  0.56721761  0.10091952  1  0.125248  0.001154  0.112018  0.132382  0.000594  1.002012  0.001
H  H94  1  0.73781822  0.06721692  0.89908065  1  0.125225  0.001154  0.112025  0.13238  0.000594  1.001994  0.001
H  H95  1  0.23781809  0.43278333  0.89908099  1  0.125222  0.001154  0.11201  0.132366  0.000594  1.002022  0.001
H  H96  1  0.56775847  0.99240313  0.31652281  1  0.169392  0.000945  0.107292  0.146016  0.000474  1.021143  0.001
H  H97  1  0.06775799  0.50759718  0.31652353  1  0.169399  0.000945  0.107293  0.146017  0.000474  1.021148  0.001
H  H98  1  0.43224132  0.00759689  0.68347640  1  0.169388  0.000945  0.107283  0.14598  0.000475  1.021174  0.001
H  H99  1  0.93224181  0.49240285  0.68347614  1  0.16939  0.000945  0.107281  0.145996  0.000474  1.021172  0.001
H  H100  1  0.68387831  0.92826396  0.41689881  1  0.074707  0.0011  0.110399  0.130082  0.000536  0.99501  0.001
H  H101  1  0.18387563  0.57173704  0.41689970  1  0.07472  0.0011  0.110386  0.130083  0.000536  0.994963  0.001
H  H102  1  0.31612253  0.07173698  0.58310047  1  0.074716  0.0011  0.110396  0.130102  0.000536  0.994971  0.001
H  H103  1  0.81612207  0.42826298  0.58310028  1  0.074703  0.0011  0.110417  0.130141  0.000536  0.995035  0.001
H  H104  1  0.79320186  0.69286990  0.46533362  1  0.157603  0.000921  0.105227  0.142461  0.000475  1.033296  0.001
H  H105  1  0.29319879  0.80713144  0.46533355  1  0.157571  0.000921  0.105206  0.14242  0.000475  1.033344  0.001
H  H106  1  0.20680214  0.30713058  0.53466634  1  0.157578  0.000921  0.105207  0.142443  0.000475  1.033333  0.001
H  H107  1  0.70679787  0.19286950  0.53466682  1  0.157577  0.000921  0.105194  0.142407  0.000475  1.033396  0.001
H  H108  1  0.72698868  0.58840521  0.40372976  1  0.109553  0.001079  0.109389  0.128373  0.000544  1.003268  0.001
H  H109  1  0.22698752  0.91159488  0.40372732  1  0.109576  0.001079  0.109377  0.128349  0.000544  1.003299  0.001
H  H110  1  0.27301427  0.41159435  0.59627104  1  0.109586  0.001079  0.109381  0.12837  0.000544  1.003284  0.001
H  H111  1  0.77301227  0.08840422  0.59627143  1  0.109552  0.001079  0.109398  0.128389  0.000544  1.003249  0.001
H  H112  1  0.45603507  0.53070282  0.18076780  1  0.106945  0.001002  0.110208  0.136596  0.000494  1.007232  0.001
H  H113  1  0.95603454  0.96929724  0.18076661  1  0.10694  0.001002  0.110203  0.136582  0.000494  1.007255  0.001
H  H114  1  0.54396473  0.46929674  0.81923232  1  0.106955  0.001002  0.11021  0.136606  0.000494  1.00724  0.001
H  H115  1  0.04396632  0.03070324  0.81923405  1  0.106947  0.001002  0.110194  0.13658  0.000494  1.00725  0.001
H  H116  1  0.30366991  0.59380730  0.08785774  1  0.091315  0.001057  0.110791  0.1318  0.000527  0.994937  0.0
H  H117  1  0.80366844  0.90619297  0.08785752  1  0.091293  0.001057  0.110768  0.131761  0.000527  0.994973  0.0
H  H118  1  0.69632989  0.40619272  0.91214238  1  0.091318  0.001057  0.110785  0.131763  0.000527  0.994933  0.0
H  H119  1  0.19633136  0.09380797  0.91214260  1  0.091297  0.001057  0.110774  0.131772  0.000527  0.99499  0.0
C  C120  1  0.99937524  0.67095391  0.98687679  1  0.398963  0.000457  0.047934  0.091972  -0.000222  3.930027  0.001
C  C121  1  0.49937529  0.82904633  0.98687734  1  0.399431  0.000457  0.047949  0.091956  -0.000222  3.930073  0.001
C  C122  1  0.00062351  0.32904657  0.01312281  1  0.399446  0.000457  0.047934  0.091995  -0.000222  3.930043  0.001
C  C123  1  0.50062556  0.17095323  0.01312285  1  0.398971  0.000457  0.047935  0.091994  -0.000222  3.929949  0.001
C  C124  1  0.19415386  0.69900560  0.94282744  1  0.46457  -0.000754  0.052194  0.105567  -0.001665  3.890897  -0.001
C  C125  1  0.69415256  0.80099477  0.94282699  1  0.464942  -0.000755  0.052216  0.105589  -0.001666  3.890978  -0.001
C  C126  1  0.80584698  0.30099442  0.05717230  1  0.464554  -0.000755  0.052226  0.105598  -0.001666  3.890981  -0.001
C  C127  1  0.30584723  0.19900571  0.05717222  1  0.464758  -0.000755  0.052231  0.105612  -0.001665  3.89096  -0.001
C  C128  1  0.07102417  0.68217099  0.04628114  1  0.027004  0.006644  -0.0856  -0.18535  0.004505  3.933537  0.005
C  C129  1  0.57102600  0.81782986  0.04628178  1  0.027006  0.006644  -0.085614  -0.185348  0.004505  3.933543  0.005
C  C130  1  0.92897457  0.31783040  0.95371845  1  0.027019  0.006643  -0.085592  -0.185368  0.004505  3.933557  0.005
C  C131  1  0.42897485  0.18216970  0.95371841  1  0.027003  0.006643  -0.085618  -0.185384  0.004504  3.933562  0.005
C  C132  1  0.27172599  0.71050409  0.00066405  1  -0.065209  0.006655  -0.076317  -0.161257  0.004437  3.907293  0.005
C  C133  1  0.77172680  0.78949682  0.00066377  1  -0.065464  0.006655  -0.076324  -0.161305  0.004437  3.907369  0.005
C  C134  1  0.72827275  0.28949685  0.99933508  1  -0.065253  0.006655  -0.07634  -0.161311  0.004437  3.907415  0.005
C  C135  1  0.22827404  0.21050365  0.99933551  1  -0.065324  0.006655  -0.076317  -0.161275  0.004437  3.907339  0.005
C  C136  1  0.20867532  0.70448755  0.05355710  1  -0.013032  -0.003579  0.016653  0.125574  -0.004123  3.998439  -0.003
C  C137  1  0.70867612  0.79551281  0.05355681  1  -0.013304  -0.003579  0.016642  0.125591  -0.004123  3.99845  -0.003
C  C138  1  0.79132343  0.29551247  0.94644295  1  -0.013043  -0.003579  0.016654  0.125629  -0.004122  3.998537  -0.003
C  C139  1  0.29132473  0.20448676  0.94644339  1  -0.013008  -0.003579  0.016642  0.12556  -0.004123  3.998478  -0.003
C  C140  1  0.62402029  0.06046310  0.17953934  1  0.543773  -0.001068  0.054449  0.121493  -0.001497  3.915537  0.0
C  C141  1  0.12402015  0.43953726  0.17953920  1  0.543762  -0.001068  0.054445  0.121483  -0.001497  3.915528  0.0
C  C142  1  0.37597952  0.93953784  0.82046216  1  0.543738  -0.001068  0.054454  0.121532  -0.001497  3.915461  0.0
C  C143  1  0.87597964  0.56046276  0.82046001  1  0.543759  -0.001068  0.054451  0.121475  -0.001497  3.915545  0.0
C  C144  1  0.38623019  0.08103123  0.16898383  1  0.467172  -0.000881  0.056945  0.119366  -0.001409  3.881936  0.0
C  C145  1  0.88623080  0.41896956  0.16898372  1  0.467077  -0.000881  0.056947  0.119279  -0.001408  3.881972  0.0
C  C146  1  0.61376961  0.91896925  0.83101676  1  0.467215  -0.000881  0.056924  0.119286  -0.001408  3.881937  0.0
C  C147  1  0.11376794  0.58103091  0.83101541  1  0.467543  -0.000882  0.056905  0.11928  -0.001409  3.881919  0.0
C  C148  1  0.35577991  0.02061648  0.18262316  1  0.01297  0.006826  -0.077983  -0.171036  0.004512  3.910408  0.005
C  C149  1  0.85578042  0.47938383  0.18262339  1  0.012966  0.006826  -0.07798  -0.17101  0.004512  3.910395  0.005
C  C150  1  0.64422094  0.97938354  0.81737703  1  0.012967  0.006826  -0.077998  -0.171075  0.004512  3.910405  0.005
C  C151  1  0.14421937  0.52061619  0.81737582  1  0.013058  0.006827  -0.077967  -0.171033  0.004512  3.910366  0.005
C  C152  1  0.60188370  0.99967814  0.19381499  1  -0.051421  0.006496  -0.083913  -0.176137  0.004258  3.931362  0.005
C  C153  1  0.10188427  0.50032195  0.19381534  1  -0.051427  0.006497  -0.083919  -0.17616  0.004258  3.931374  0.005
C  C154  1  0.39811611  0.00032234  0.80618559  1  -0.051438  0.006497  -0.08392  -0.176167  0.004258  3.931295  0.005
C  C155  1  0.89811447  0.49967807  0.80618380  1  -0.05163  0.006496  -0.083919  -0.176155  0.004258  3.931381  0.005
C  C156  1  0.46560430  0.97845265  0.19640894  1  -0.060231  -0.004095  0.017385  0.127396  -0.004707  3.982247  -0.003
C  C157  1  0.96560450  0.52154783  0.19640962  1  -0.060227  -0.004095  0.017389  0.127405  -0.004708  3.982187  -0.003
C  C158  1  0.53439654  0.02154783  0.80359080  1  -0.060211  -0.004095  0.017379  0.127419  -0.004708  3.982204  -0.003
C  C159  1  0.03439424  0.47845265  0.80358952  1  -0.06032  -0.004095  0.017413  0.127502  -0.004707  3.982093  -0.003
C  C160  1  0.66839415  0.82497958  0.50457300  1  0.114231  0.006563  -0.076815  -0.168385  0.004533  3.901672  0.005
C  C161  1  0.16839233  0.67501803  0.50457146  1  0.114198  0.006564  -0.076836  -0.168498  0.004533  3.901746  0.005
C  C162  1  0.33160671  0.17502090  0.49542902  1  0.114179  0.006564  -0.076794  -0.168351  0.004533  3.901701  0.005
C  C163  1  0.83160642  0.32497970  0.49542859  1  0.114207  0.006564  -0.076783  -0.168365  0.004533  3.901777  0.005
C  C164  1  0.73357395  0.83044771  0.56554626  1  0.411425  -0.001313  0.052058  0.105118  -0.002158  3.925  -0.001
C  C165  1  0.23357320  0.66954976  0.56554572  1  0.411349  -0.001314  0.052062  0.105101  -0.002158  3.925111  -0.001
C  C166  1  0.26642690  0.16955277  0.43445439  1  0.411459  -0.001314  0.052082  0.105082  -0.002159  3.924994  -0.001
C  C167  1  0.76642764  0.33044751  0.43445402  1  0.411436  -0.001314  0.052058  0.105089  -0.002158  3.925042  -0.001
C  C168  1  0.75057860  0.81315156  0.45867821  1  -0.03015  -0.004408  0.020991  0.130994  -0.005049  3.992449  -0.003
C  C169  1  0.25057677  0.68684750  0.45867801  1  -0.030023  -0.004408  0.020972  0.131003  -0.005048  3.992615  -0.003
C  C170  1  0.24942120  0.18684938  0.54132146  1  -0.029956  -0.004408  0.020988  0.130991  -0.005048  3.992594  -0.003
C  C171  1  0.74942093  0.31315114  0.54132151  1  -0.029977  -0.004408  0.021005  0.130998  -0.005048  3.992543  -0.003
C  C172  1  0.95459060  0.81641872  0.53800144  1  0.499965  -0.000635  0.055616  0.111423  -0.001066  3.908546  0.0
C  C173  1  0.45458774  0.68358244  0.53800209  1  0.499528  -0.000635  0.055614  0.111299  -0.001066  3.908509  0.0
C  C174  1  0.04540919  0.18358176  0.46199823  1  0.499576  -0.000635  0.055595  0.111333  -0.001065  3.90856  0.0
C  C175  1  0.54540997  0.31641804  0.46199835  1  0.499555  -0.000635  0.055561  0.111228  -0.001066  3.908662  0.0
C  C176  1  0.89645590  0.81012999  0.47596655  1  -0.094261  0.00714  -0.077386  -0.16841  0.004705  3.914381  0.006
C  C177  1  0.39645407  0.68986993  0.47596681  1  -0.093873  0.00714  -0.07731  -0.168271  0.004705  3.914312  0.006
C  C178  1  0.10354284  0.18986911  0.52403304  1  -0.09417  0.00714  -0.077395  -0.168413  0.004705  3.914464  0.006
C  C179  1  0.60354363  0.31013055  0.52403363  1  -0.094161  0.007141  -0.077375  -0.168392  0.004705  3.914476  0.006
C  C180  1  0.68435466  0.44558336  0.32025140  1  0.415918  -0.001102  0.057595  0.109969  -0.001847  3.893748  -0.001
C  C181  1  0.18435934  0.05441625  0.32025238  1  0.416006  -0.001102  0.057634  0.109968  -0.001847  3.893553  -0.001
C  C182  1  0.31564513  0.55441666  0.67974781  1  0.415908  -0.001102  0.05759  0.109986  -0.001847  3.893774  -0.001
C  C183  1  0.81564361  0.94558332  0.67974842  1  0.415887  -0.001102  0.057636  0.110054  -0.001847  3.893717  -0.001
C  C184  1  0.44205872  0.45028417  0.31779282  1  0.443394  -0.001111  0.053148  0.104902  -0.00178  3.92071  -0.001
C  C185  1  0.94206306  0.04971494  0.31779281  1  0.443039  -0.001107  0.053095  0.104902  -0.00178  3.920572  -0.001
C  C186  1  0.55794108  0.54971539  0.68220685  1  0.443403  -0.001111  0.053168  0.104936  -0.00178  3.920672  -0.001
C  C187  1  0.05794094  0.95028462  0.68220806  1  0.443346  -0.001111  0.053112  0.104904  -0.00178  3.920714  -0.001
C  C188  1  0.56749896  0.54247023  0.30036372  1  -0.046867  -0.004637  0.019726  0.12995  -0.005309  3.998632  -0.003
C  C189  1  0.06750507  0.95752964  0.30036215  1  -0.0469  -0.004637  0.019792  0.130201  -0.00531  3.998556  -0.003
C  C190  1  0.43250084  0.45752979  0.69963640  1  -0.046841  -0.004637  0.019753  0.129988  -0.005309  3.998691  -0.003
C  C191  1  0.93249892  0.04246946  0.69963781  1  -0.046914  -0.004637  0.019757  0.130122  -0.005309  3.998578  -0.003
C  C192  1  0.69128868  0.50817384  0.30912555  1  -0.028762  0.007166  -0.076966  -0.171714  0.004838  3.928818  0.006
C  C193  1  0.19129474  0.99182600  0.30912481  1  -0.028749  0.007167  -0.076987  -0.171838  0.004839  3.928825  0.006
C  C194  1  0.30871112  0.49182618  0.69087458  1  -0.028765  0.007166  -0.076974  -0.171745  0.004838  3.928857  0.006
C  C195  1  0.80870925  0.00817357  0.69087560  1  -0.028783  0.007166  -0.077  -0.171813  0.004838  3.928893  0.006
C  C196  1  0.44135487  0.51267569  0.30595163  1  0.053527  0.006852  -0.079466  -0.17192  0.004628  3.92963  0.005
C  C197  1  0.94135955  0.98732411  0.30594984  1  0.053205  0.006852  -0.079454  -0.172003  0.004628  3.929642  0.005
C  C198  1  0.55864388  0.48732388  0.69404842  1  0.053514  0.006852  -0.079478  -0.171912  0.004628  3.929665  0.005
C  C199  1  0.05864340  0.01267545  0.69405096  1  0.053535  0.006852  -0.079414  -0.171988  0.004628  3.929643  0.005
C  C200  1  0.28902259  0.72181445  0.11499837  1  -0.009658  0.001312  0.001392  -0.075547  0.00059  3.955531  0.001
C  C201  1  0.78902447  0.77818622  0.11499818  1  -0.009253  0.001312  0.001359  -0.075616  0.00059  3.955563  0.001
C  C202  1  0.71097616  0.27818557  0.88500169  1  -0.009667  0.001312  0.001385  -0.075585  0.00059  3.955558  0.001
C  C203  1  0.21097742  0.22181518  0.88500163  1  -0.009676  0.001312  0.001459  -0.075525  0.00059  3.955446  0.001
C  C204  1  0.29868472  0.78400377  0.13081400  1  0.429694  0.001379  0.087529  0.175247  0.000558  4.071007  0.002
C  C205  1  0.79868461  0.71599641  0.13081426  1  0.429568  0.001379  0.087559  0.17531  0.000557  4.070923  0.002
C  C206  1  0.70131403  0.21599625  0.86918605  1  0.429698  0.001379  0.087527  0.175263  0.000557  4.070971  0.002
C  C207  1  0.20131519  0.28400453  0.86918632  1  0.429684  0.001379  0.087514  0.175276  0.000558  4.070929  0.002
C  C208  1  0.23484730  0.83278809  0.09151428  1  -0.099111  0.00371  -0.095164  -0.166668  0.002197  3.953825  0.003
C  C209  1  0.73484622  0.66721219  0.09151503  1  -0.099152  0.00371  -0.095171  -0.16665  0.002197  3.95384  0.003
C  C210  1  0.76515249  0.16721148  0.90848493  1  -0.099137  0.00371  -0.095148  -0.166625  0.002197  3.953867  0.003
C  C211  1  0.26515358  0.33278829  0.90848555  1  -0.09914  0.003709  -0.095159  -0.166655  0.002197  3.953839  0.003
C  C212  1  0.28541514  0.88665865  0.11806830  1  -0.025277  0.004294  -0.09712  -0.170953  0.002608  3.952178  0.003
C  C213  1  0.78541416  0.61334202  0.11806962  1  -0.025226  0.004294  -0.097065  -0.170888  0.002608  3.952287  0.003
C  C214  1  0.71458465  0.11334137  0.88193091  1  -0.025244  0.004294  -0.097093  -0.170912  0.002608  3.952264  0.003
C  C215  1  0.21458565  0.38665846  0.88193142  1  -0.025275  0.004294  -0.097099  -0.170943  0.002608  3.952279  0.003
C  C216  1  0.37637679  0.87119514  0.17493785  1  0.409278  0.00119  0.089737  0.184248  0.000529  4.054956  0.002
C  C217  1  0.87637577  0.62880448  0.17493823  1  0.409126  0.00119  0.089724  0.184216  0.00053  4.055003  0.002
C  C218  1  0.62362301  0.12880442  0.82506182  1  0.409137  0.00119  0.089744  0.184231  0.00053  4.055035  0.002
C  C219  1  0.12362403  0.37119554  0.82506190  1  0.409165  0.00119  0.089724  0.184259  0.000529  4.054942  0.002
C  C220  1  0.45096386  0.91365801  0.21565052  1  0.032993  0.001656  0.000785  -0.077724  0.000876  3.94151  0.002
C  C221  1  0.95096501  0.58634243  0.21565113  1  0.033113  0.001656  0.000825  -0.077611  0.000876  3.941435  0.002
C  C222  1  0.54903488  0.08634201  0.78434862  1  0.033518  0.001655  0.000775  -0.077669  0.000875  3.941604  0.002
C  C223  1  0.04903478  0.41365851  0.78434854  1  0.033537  0.001656  0.000746  -0.077772  0.000876  3.941494  0.002
C  C224  1  0.52428006  0.89801938  0.27422374  1  0.397703  0.001034  0.090902  0.184666  0.000358  4.045561  0.001
C  C225  1  0.02428047  0.60198101  0.27422433  1  0.3977  0.001034  0.090882  0.184623  0.000358  4.045607  0.001
C  C226  1  0.47571973  0.10198018  0.72577592  1  0.39717  0.001034  0.090906  0.184554  0.000358  4.045778  0.001
C  C227  1  0.97572037  0.39801947  0.72577541  1  0.397193  0.001034  0.090922  0.184612  0.000358  4.045718  0.001
C  C228  1  0.57686407  0.94277029  0.32121047  1  -0.12117  0.00398  -0.098936  -0.183687  0.002366  3.947242  0.003
C  C229  1  0.07686246  0.55723000  0.32121147  1  -0.121048  0.00398  -0.099027  -0.18381  0.002366  3.947113  0.003
C  C230  1  0.42313782  0.05722973  0.67878934  1  -0.121085  0.00398  -0.098991  -0.183682  0.002366  3.947178  0.003
C  C231  1  0.92313838  0.44277048  0.67878781  1  -0.121047  0.00398  -0.09904  -0.183805  0.002366  3.947156  0.003
C  C232  1  0.63492309  0.91039058  0.37234543  1  -0.059031  0.003851  -0.097956  -0.169941  0.002263  3.958928  0.003
C  C233  1  0.13491933  0.58961052  0.37234621  1  -0.059321  0.003851  -0.097861  -0.169832  0.002263  3.958756  0.003
C  C234  1  0.36507880  0.08960990  0.62765393  1  -0.059231  0.003851  -0.097863  -0.169855  0.002263  3.958782  0.003
C  C235  1  0.86507942  0.41038996  0.62765339  1  -0.059249  0.003851  -0.097866  -0.169851  0.002263  3.958791  0.003
C  C236  1  0.62153411  0.84628042  0.35641565  1  0.4748  0.001191  0.090325  0.188995  0.000536  4.060458  0.002
C  C237  1  0.12153339  0.65372025  0.35641559  1  0.475028  0.001191  0.090339  0.189041  0.000536  4.060532  0.002
C  C238  1  0.37846464  0.15371915  0.64358440  1  0.475023  0.001191  0.09032  0.188997  0.000536  4.060449  0.002
C  C239  1  0.87846640  0.34628023  0.64358362  1  0.475016  0.001191  0.090303  0.18892  0.000537  4.060561  0.002
C  C240  1  0.68159494  0.79892046  0.39461285  1  -0.044095  0.001263  0.002059  -0.074868  0.00059  3.959959  0.001
C  C241  1  0.18159414  0.70107920  0.39461407  1  -0.044365  0.001263  0.00208  -0.074881  0.00059  3.959898  0.001
C  C242  1  0.31840486  0.20107956  0.60538681  1  -0.044406  0.001263  0.002021  -0.074934  0.00059  3.959882  0.001
C  C243  1  0.81840566  0.29892036  0.60538651  1  -0.044408  0.001263  0.002082  -0.074799  0.00059  3.959905  0.001
C  C244  1  0.67739281  0.73706488  0.37787516  1  0.398943  0.001293  0.089882  0.180828  0.00041  4.064218  0.002
C  C245  1  0.17739295  0.76293574  0.37787403  1  0.39905  0.001293  0.089846  0.180745  0.00041  4.064199  0.002
C  C246  1  0.32260594  0.26293560  0.62212581  1  0.399072  0.001293  0.089844  0.180734  0.00041  4.064229  0.002
C  C247  1  0.82260684  0.23706383  0.62212518  1  0.39902  0.001293  0.089795  0.180682  0.00041  4.064261  0.002
C  C248  1  0.73673201  0.68807565  0.41841514  1  -0.072179  0.004003  -0.09885  -0.174146  0.002376  3.932261  0.003
C  C249  1  0.23673417  0.81192487  0.41841496  1  -0.072113  0.004004  -0.098811  -0.174015  0.002377  3.932195  0.003
C  C250  1  0.26326779  0.31192575  0.58158499  1  -0.072193  0.004004  -0.098789  -0.174013  0.002377  3.932254  0.003
C  C251  1  0.76326668  0.18807423  0.58158524  1  -0.072112  0.004004  -0.098747  -0.173912  0.002377  3.932237  0.003
C  C252  1  0.70203995  0.63465711  0.38737431  1  -0.082378  0.003994  -0.096899  -0.16629  0.002374  3.951212  0.003
C  C253  1  0.20203887  0.86534303  0.38737197  1  -0.082378  0.003994  -0.096872  -0.166274  0.002374  3.951258  0.003
C  C254  1  0.29796195  0.36534200  0.61262642  1  -0.08239  0.003994  -0.09686  -0.166267  0.002374  3.951274  0.003
C  C255  1  0.79796092  0.13465699  0.61262678  1  -0.08242  0.003994  -0.096904  -0.16639  0.002374  3.951255  0.003
C  C256  1  0.62256214  0.65075967  0.32796935  1  0.388893  0.001073  0.09144  0.191211  0.000416  4.063211  0.002
C  C257  1  0.12256422  0.84924060  0.32796680  1  0.388597  0.001074  0.091458  0.191197  0.000416  4.063216  0.002
C  C258  1  0.37743767  0.34924081  0.67203169  1  0.388597  0.001073  0.091451  0.191181  0.000416  4.063234  0.002
C  C259  1  0.87743451  0.15075897  0.67203142  1  0.388891  0.001074  0.091491  0.191345  0.000416  4.063128  0.002
C  C260  1  0.56188555  0.60834677  0.28401549  1  0.074269  0.0012  0.000281  -0.074221  0.000582  3.959145  0.001
C  C261  1  0.06189071  0.89165360  0.28401353  1  0.074532  0.0012  0.000221  -0.074298  0.000582  3.959141  0.001
C  C262  1  0.43811216  0.39165325  0.71598540  1  0.074495  0.0012  0.000309  -0.074151  0.000582  3.95916  0.001
C  C263  1  0.93811223  0.10834597  0.71598635  1  0.074413  0.0012  0.000182  -0.074361  0.000582  3.959118  0.001
C  C264  1  0.48292658  0.62372776  0.22685091  1  0.411845  0.000796  0.092571  0.192032  0.000174  4.049182  0.001
C  C265  1  0.98292829  0.87627219  0.22684915  1  0.411934  0.000796  0.092626  0.192031  0.000174  4.049049  0.001
C  C266  1  0.51707113  0.37627226  0.77314998  1  0.411899  0.000796  0.09251  0.191933  0.000174  4.049236  0.001
C  C267  1  0.01707151  0.12372783  0.77315052  1  0.411895  0.000797  0.092599  0.191996  0.000174  4.049168  0.001
C  C268  1  0.43281854  0.57951459  0.17916407  1  -0.035609  0.004012  -0.097545  -0.175849  0.002401  3.957203  0.003
C  C269  1  0.93281913  0.92048547  0.17916214  1  -0.035674  0.004012  -0.097543  -0.175797  0.002401  3.957211  0.003
C  C270  1  0.56717917  0.42048497  0.82083682  1  -0.035671  0.004012  -0.097496  -0.175821  0.0024  3.957185  0.003
C  C271  1  0.06718065  0.07951455  0.82083661  1  -0.035661  0.004012  -0.09749  -0.175742  0.002401  3.957078  0.003
C  C272  1  0.35649934  0.61149593  0.13180545  1  -0.110862  0.003806  -0.096875  -0.17004  0.002211  3.958306  0.003
C  C273  1  0.85650104  0.88850424  0.13180457  1  -0.110908  0.003806  -0.096863  -0.170033  0.002211  3.958368  0.003
C  C274  1  0.64349836  0.38850317  0.86819498  1  -0.110871  0.003806  -0.096868  -0.169976  0.002211  3.958355  0.003
C  C275  1  0.14350190  0.11149670  0.86819531  1  -0.110852  0.003806  -0.096904  -0.170118  0.002211  3.958386  0.003
C  C276  1  0.35973254  0.67500600  0.15050333  1  0.427906  0.001352  0.0898  0.187181  0.000633  4.066905  0.002
C  C277  1  0.85973434  0.82499368  0.15050259  1  0.427889  0.001352  0.089791  0.187182  0.000633  4.066919  0.002
C  C278  1  0.64026517  0.32499357  0.84949756  1  0.427879  0.001352  0.089793  0.187246  0.000633  4.066979  0.002
C  C279  1  0.14026756  0.17500680  0.84949722  1  0.427868  0.001352  0.089839  0.187322  0.000633  4.066898  0.002
N  N280  1  0.05938024  0.68106159  0.93631220  1  -1.210397  0.09862  -0.342919  -0.233523  0.064937  3.619075  0.085
N  N281  1  0.55937787  0.81893836  0.93631209  1  -1.21077  0.09862  -0.342894  -0.233457  0.064937  3.619087  0.085
N  N282  1  0.94062060  0.31893889  0.06368754  1  -1.210805  0.098616  -0.342875  -0.233476  0.064935  3.618995  0.085
N  N283  1  0.44062088  0.18106166  0.06368796  1  -1.210358  0.098619  -0.342921  -0.233506  0.064937  3.618983  0.085
N  N284  1  0.51785189  0.10067513  0.16761510  1  -1.201291  0.096829  -0.332201  -0.22494  0.06387  3.572356  0.084
N  N285  1  0.01785286  0.39932528  0.16761466  1  -1.201179  0.096827  -0.332182  -0.2249  0.063868  3.572344  0.084
N  N286  1  0.48214792  0.89932581  0.83238594  1  -1.201275  0.096829  -0.332195  -0.224872  0.06387  3.572202  0.084
N  N287  1  0.98214693  0.60067474  0.83238455  1  -1.20121  0.096828  -0.332153  -0.224813  0.063869  3.572244  0.084
N  N288  1  0.87342960  0.82552135  0.58180405  1  -1.251196  0.099865  -0.349054  -0.255756  0.065482  3.647154  0.087
N  N289  1  0.37342675  0.67447836  0.58180381  1  -1.250877  0.099866  -0.349042  -0.255657  0.065482  3.64727  0.087
N  N290  1  0.12657229  0.17447867  0.41819622  1  -1.25087  0.099865  -0.349055  -0.255711  0.065482  3.647233  0.087
N  N291  1  0.62657200  0.32552075  0.41819625  1  -1.250854  0.099866  -0.349047  -0.255656  0.065482  3.647286  0.087
N  N292  1  0.56182094  0.41774908  0.32408389  1  -1.210965  0.103653  -0.349425  -0.230139  0.068078  3.638047  0.09
N  N293  1  0.06182663  0.08225008  0.32408442  1  -1.210612  0.103651  -0.349399  -0.230151  0.068078  3.637984  0.09
N  N294  1  0.43817885  0.58225094  0.67591578  1  -1.210969  0.103654  -0.349449  -0.230214  0.068078  3.638074  0.09
N  N295  1  0.93817842  0.91774994  0.67591698  1  -1.210937  0.103654  -0.349436  -0.230202  0.068079  3.638076  0.09
N  N296  1  0.55049550  0.83950712  0.29684308  1  -1.184869  0.098634  -0.375276  -0.36067  0.065669  3.469412  0.086
N  N297  1  0.05049582  0.66049277  0.29684309  1  -1.184943  0.098635  -0.375294  -0.360722  0.065669  3.469475  0.086
N  N298  1  0.44950325  0.16049244  0.70315697  1  -1.1849  0.098635  -0.375279  -0.360656  0.06567  3.469452  0.086
N  N299  1  0.94950503  0.33950771  0.70315665  1  -1.184902  0.098633  -0.375227  -0.360569  0.065668  3.469446  0.086
N  N300  1  0.60927674  0.71353581  0.32263190  1  -1.130132  0.100301  -0.373005  -0.373611  0.066639  3.473243  0.088
N  N301  1  0.10927998  0.78646447  0.32263047  1  -1.130173  0.100301  -0.373071  -0.373649  0.066639  3.473199  0.088
N  N302  1  0.39072202  0.28646375  0.67736907  1  -1.130159  0.1003  -0.373038  -0.373615  0.066638  3.473301  0.088
N  N303  1  0.89072085  0.21353509  0.67736835  1  -1.130237  0.100301  -0.373031  -0.373674  0.06664  3.473291  0.088
N  N304  1  0.44059057  0.68189024  0.20799227  1  -1.178237  0.095996  -0.374926  -0.362854  0.063915  3.475587  0.084
N  N305  1  0.94059239  0.81810976  0.20799154  1  -1.17822  0.095994  -0.37495  -0.36286  0.063914  3.475596  0.084
N  N306  1  0.55940609  0.31810933  0.79200856  1  -1.178209  0.095997  -0.374957  -0.362949  0.063915  3.475638  0.084
N  N307  1  0.05940636  0.18188980  0.79200851  1  -1.178222  0.095997  -0.375018  -0.362978  0.063915  3.475692  0.084
N  N308  1  0.38169953  0.80825855  0.18250307  1  -1.147505  0.099611  -0.372479  -0.371701  0.066375  3.463176  0.087
N  N309  1  0.88169841  0.69174152  0.18250331  1  -1.147507  0.099613  -0.372494  -0.371771  0.066376  3.463193  0.087
N  N310  1  0.61830027  0.19174102  0.81749705  1  -1.147497  0.099612  -0.372489  -0.371741  0.066376  3.463245  0.087
N  N311  1  0.11830139  0.30825896  0.81749681  1  -1.147499  0.099611  -0.372475  -0.371742  0.066375  3.463171  0.087
O  O312  1  0.93954538  0.60224779  0.67838673  1  -0.911266  0.004264  -0.564701  -0.73937  0.002424  1.618141  0.003
O  O313  1  0.43954952  0.89775171  0.67838971  1  -0.911292  0.004264  -0.564673  -0.739361  0.002424  1.618162  0.003
O  O314  1  0.06045021  0.39775131  0.32161082  1  -0.911279  0.004263  -0.564716  -0.739399  0.002424  1.618095  0.003
O  O315  1  0.56045028  0.10224831  0.32161132  1  -0.911278  0.004264  -0.564677  -0.73937  0.002424  1.618168  0.003
O  O316  1  0.70136838  0.68670973  0.65576722  1  -1.049575  0.0081  -0.5911  -0.896582  0.004239  1.986068  0.007
O  O317  1  0.20136636  0.81329169  0.65576813  1  -1.049623  0.008101  -0.591073  -0.89649  0.00424  1.985922  0.007
O  O318  1  0.29863141  0.31329075  0.34423153  1  -1.049609  0.008101  -0.591112  -0.896597  0.00424  1.98602  0.007
O  O319  1  0.79863135  0.18670879  0.34423231  1  -1.04961  0.0081  -0.591111  -0.896583  0.004239  1.986067  0.007
O  O320  1  0.46292207  0.59210343  0.84884455  1  -0.908285  0.020162  -0.5741  -0.742735  0.012357  1.584049  0.016
O  O321  1  0.96292479  0.90789710  0.84884462  1  -0.908299  0.020161  -0.574124  -0.742756  0.012357  1.584076  0.016
O  O322  1  0.53707563  0.40789751  0.15115497  1  -0.908311  0.020161  -0.574115  -0.742736  0.012357  1.584035  0.016
O  O323  1  0.03707815  0.09210155  0.15115572  1  -0.908362  0.020161  -0.574148  -0.74278  0.012357  1.584051  0.016
O  O324  1  0.75420462  0.81307109  0.70230953  1  -0.937049  0.003709  -0.563658  -0.81705  0.001802  2.000465  0.005
O  O325  1  0.25420382  0.68692886  0.70230712  1  -0.937067  0.00371  -0.563643  -0.817031  0.001802  2.000459  0.005
O  O326  1  0.24579623  0.18692894  0.29769021  1  -0.937058  0.003709  -0.563653  -0.817055  0.001802  2.000505  0.005
O  O327  1  0.74579702  0.31307025  0.29769216  1  -0.937025  0.003711  -0.56365  -0.817016  0.001803  2.000447  0.005
O  O328  1  0.83857255  0.70554941  0.77064776  1  -0.949534  0.061087  -0.572041  -0.848022  0.039621  2.152005  0.054
O  O329  1  0.33857264  0.79445129  0.77064702  1  -0.949567  0.061088  -0.572077  -0.848077  0.039621  2.152087  0.054
O  O330  1  0.16142620  0.29445107  0.22935229  1  -0.949568  0.06109  -0.572061  -0.848055  0.039622  2.152028  0.054
O  O331  1  0.66142820  0.20554919  0.22935226  1  -0.949564  0.061088  -0.572064  -0.84805  0.039621  2.152062  0.054
O  O332  1  0.64190859  0.78499373  0.80573805  1  -0.895177  0.031558  -0.530948  -0.768251  0.01929  1.982795  0.028
O  O333  1  0.14191405  0.71500464  0.80573738  1  -0.895219  0.031555  -0.530963  -0.768223  0.019289  1.982756  0.028
O  O334  1  0.35809016  0.21500950  0.19426109  1  -0.895169  0.031557  -0.530935  -0.768227  0.01929  1.982819  0.028
O  O335  1  0.85808889  0.28499355  0.19426250  1  -0.895155  0.031556  -0.530952  -0.768251  0.019289  1.982816  0.028
O  O336  1  0.71142170  0.66124028  0.88437504  1  -0.947319  0.007248  -0.56798  -0.811779  0.00358  1.767874  0.006
O  O337  1  0.21142383  0.83875976  0.88437618  1  -0.947349  0.007248  -0.567969  -0.811773  0.00358  1.76776  0.006
O  O338  1  0.28857704  0.33875975  0.11562410  1  -0.947332  0.007249  -0.567949  -0.811752  0.003581  1.767763  0.006
O  O339  1  0.78857912  0.16123980  0.11562508  1  -0.947297  0.007248  -0.567964  -0.811771  0.00358  1.767873  0.006
O  O340  1  0.88289342  0.66821658  0.56761400  1  -0.923164  0.003088  -0.569825  -0.756835  0.001676  1.641569  0.002
O  O341  1  0.38289558  0.83178591  0.56761653  1  -0.923052  0.003088  -0.569819  -0.756838  0.001676  1.641577  0.002
O  O342  1  0.11710426  0.33178436  0.43238323  1  -0.923048  0.003089  -0.569783  -0.756812  0.001677  1.641578  0.002
O  O343  1  0.61710318  0.16821319  0.43238490  1  -0.923109  0.003088  -0.569824  -0.756838  0.001676  1.641582  0.002
O  O344  1  0.93868898  0.77882495  0.87078718  1  -0.981302  0.076276  -0.574221  -0.818618  0.048778  2.015486  0.065
O  O345  1  0.43868814  0.72117507  0.87078698  1  -0.981301  0.076281  -0.574219  -0.818583  0.048781  2.015493  0.065
O  O346  1  0.06131293  0.22117507  0.12921400  1  -0.981272  0.076279  -0.574218  -0.818607  0.04878  2.01546  0.065
O  O347  1  0.56131166  0.27882541  0.12921314  1  -0.981298  0.076279  -0.574215  -0.818617  0.04878  2.015551  0.065
O  O348  1  0.99884212  0.73846598  0.67672111  1  -1.077675  0.071422  -0.610409  -0.919487  0.045975  2.264548  0.061
O  O349  1  0.49884226  0.76153351  0.67672090  1  -1.077711  0.071419  -0.610412  -0.919462  0.045973  2.264526  0.061
O  O350  1  0.00115768  0.26153312  0.32327855  1  -1.077746  0.071421  -0.610417  -0.919533  0.045974  2.264562  0.061
O  O351  1  0.50115754  0.23846651  0.32327922  1  -1.07773  0.07142  -0.610413  -0.919472  0.045974  2.264558  0.061
O  O352  1  0.55642262  0.67337884  0.75773590  1  -1.073381  0.072853  -0.607323  -0.917666  0.046855  2.217222  0.064
O  O353  1  0.05642058  0.82661827  0.75773723  1  -1.073315  0.072851  -0.607293  -0.917611  0.046854  2.217191  0.064
O  O354  1  0.44357613  0.32662164  0.24226370  1  -1.073377  0.072854  -0.6073  -0.91766  0.046855  2.217259  0.064
O  O355  1  0.94357924  0.17337900  0.24226472  1  -1.073362  0.072852  -0.607338  -0.917733  0.046854  2.217272  0.064
