# generated using pymatgen
data_CdH18C26S(NO3)2
_symmetry_space_group_name_H-M   'P 1'
_cell_length_a   16.38378734
_cell_length_b   16.54870530
_cell_length_c   22.04887284
_cell_angle_alpha   90.00004351
_cell_angle_beta   89.99990404
_cell_angle_gamma   115.51227966
_symmetry_Int_Tables_number   1
_chemical_formula_structural   CdH18C26S(NO3)2
_chemical_formula_sum   'Cd8 H144 C208 S8 N16 O48'
_cell_volume   5395.21253064
_cell_formula_units_Z   8
loop_
 _symmetry_equiv_pos_site_id
 _symmetry_equiv_pos_as_xyz
  1  'x, y, z'
loop_
 _atom_site_type_symbol
 _atom_site_label
 _atom_site_symmetry_multiplicity
 _atom_site_fract_x
 _atom_site_fract_y
 _atom_site_fract_z
 _atom_site_occupancy
 _atom_site_pbe_bader_charge
 _atom_site_pbe_bader_spin_density
 _atom_site_pbe_cm5_charge
 _atom_site_pbe_ddec_charge
 _atom_site_pbe_ddec_spin_density
 _atom_site_pbe_ddec_sum_bond_order
 _atom_site_pbe_magmom
Cd  Cd0  1  0.44071935  0.23513766  0.23869907  1  1.284117  0  0.780357  0.890853  0  2.210712  0
Cd  Cd1  1  0.05927997  0.26486052  0.73869812  1  1.284102  0  0.78036  0.890844  0  2.210663  0
Cd  Cd2  1  0.55927937  0.76486067  0.76130092  1  1.284099  0  0.780389  0.890936  0  2.210625  0
Cd  Cd3  1  0.94072263  0.73514119  0.26130187  1  1.283998  0  0.780357  0.890865  0  2.210674  0
Cd  Cd4  1  0.20226796  0.79526898  0.21835956  1  1.275525  0  0.774804  0.870331  0  2.206997  0
Cd  Cd5  1  0.29773252  0.70473240  0.71835873  1  1.275516  0  0.774774  0.870308  0  2.207001  0
Cd  Cd6  1  0.79773129  0.20473203  0.78164043  1  1.27553  0  0.774785  0.870315  0  2.206926  0
Cd  Cd7  1  0.70226950  0.29526797  0.28164216  1  1.275538  0  0.774796  0.87033  0  2.206921  0
H  H8  1  0.44268272  0.42462120  0.25477478  1  0.133292  0  0.118466  0.09616  0  0.992519  0
H  H9  1  0.05731619  0.07537899  0.75477417  1  0.133264  0  0.118456  0.096148  0  0.992486  0
H  H10  1  0.55731591  0.57537981  0.74522612  1  0.133331  0  0.118467  0.096151  0  0.992516  0
H  H11  1  0.94268248  0.92462068  0.24522491  1  0.133285  0  0.118462  0.096158  0  0.99252  0
H  H12  1  0.41496306  0.51907534  0.33360152  1  0.07542  0  0.107291  0.114527  0  1.000844  0
H  H13  1  0.08503631  0.98092403  0.83360066  1  0.075422  0  0.10726  0.114481  0  1.00082  0
H  H14  1  0.58503411  0.48092365  0.66639983  1  0.075438  0  0.107252  0.114489  0  1.000819  0
H  H15  1  0.91496298  0.01907565  0.16639887  1  0.0754  0  0.107282  0.114547  0  1.000797  0
H  H16  1  0.42430251  0.33293093  0.46829270  1  0.110226  0  0.108295  0.115521  0  1.008807  0
H  H17  1  0.07569629  0.16706726  0.96829168  1  0.110273  0  0.108289  0.115513  0  1.008865  0
H  H18  1  0.57569620  0.66706740  0.53170819  1  0.11027  0  0.108308  0.115581  0  1.008838  0
H  H19  1  0.92430332  0.83293175  0.03170786  1  0.110245  0  0.108309  0.115554  0  1.008831  0
H  H20  1  0.45676426  0.25089823  0.38519136  1  0.154879  0  0.119447  0.10009  0  1.001227  0
H  H21  1  0.04323346  0.24910128  0.88519133  1  0.154849  0  0.119416  0.100083  0  1.001218  0
H  H22  1  0.54323531  0.74910212  0.61480863  1  0.154863  0  0.119447  0.100084  0  1.00122  0
H  H23  1  0.95676550  0.75089906  0.11480866  1  0.154873  0  0.119442  0.100099  0  1.001222  0
H  H24  1  0.39961530  0.55045031  0.43842141  1  0.062505  0  0.103068  0.105244  0  1.018967  0
H  H25  1  0.10038592  0.94955108  0.93842097  1  0.062518  0  0.103074  0.105262  0  1.018963  0
H  H26  1  0.60038517  0.44955071  0.56157948  1  0.062549  0  0.103084  0.105265  0  1.018997  0
H  H27  1  0.89961513  0.05045128  0.06157857  1  0.062516  0  0.103066  0.105273  0  1.018998  0
H  H28  1  0.34852649  0.38747479  0.52313684  1  0.091716  0  0.106016  0.110105  0  1.003215  0
H  H29  1  0.15147293  0.11252538  0.02313718  1  0.091697  0  0.106027  0.110083  0  1.003211  0
H  H30  1  0.65147247  0.61252555  0.47686224  1  0.091755  0  0.10603  0.110106  0  1.003177  0
H  H31  1  0.84852847  0.88747498  0.97686372  1  0.091784  0  0.106024  0.110084  0  1.003215  0
H  H32  1  0.32972254  0.70567883  0.58206377  1  0.09093  0  0.117552  0.094638  0  0.998316  0
H  H33  1  0.17027735  0.79432187  0.08206463  1  0.090926  0  0.11755  0.094631  0  0.998344  0
H  H34  1  0.67027944  0.29432288  0.41793713  1  0.090931  0  0.117547  0.094584  0  0.9984  0
H  H35  1  0.82972137  0.20567647  0.91793581  1  0.09098  0  0.117561  0.094651  0  0.998396  0
H  H36  1  0.35552699  0.62105131  0.49775239  1  0.12844  0  0.102858  0.117855  0  1.061377  0
H  H37  1  0.14447323  0.87894808  0.99775275  1  0.128453  0  0.102849  0.117866  0  1.061353  0
H  H38  1  0.64447324  0.37894771  0.50224806  1  0.12842  0  0.102873  0.117942  0  1.061283  0
H  H39  1  0.85552760  0.12105094  0.00224678  1  0.128517  0  0.102861  0.117884  0  1.061367  0
H  H40  1  0.31134502  0.40773434  0.62609406  1  0.094842  0  0.103711  0.110883  0  1.036355  0
H  H41  1  0.18865446  0.09226651  0.12609343  1  0.09483  0  0.103695  0.110862  0  1.03634  0
H  H42  1  0.68865398  0.59226467  0.37390638  1  0.094851  0  0.103708  0.110874  0  1.036371  0
H  H43  1  0.81134576  0.90773251  0.87390611  1  0.0948  0  0.103722  0.110918  0  1.036371  0
H  H44  1  0.28096970  0.49947508  0.70412122  1  0.134791  0  0.119472  0.099736  0  1.004872  0
H  H45  1  0.21902900  0.00052576  0.20412186  1  0.134765  0  0.119458  0.099738  0  1.004869  0
H  H46  1  0.71903110  0.50052527  0.29587922  1  0.134808  0  0.119417  0.099677  0  1.004816  0
H  H47  1  0.78096792  0.99947122  0.79587858  1  0.13476  0  0.119427  0.099708  0  1.004855  0
H  H48  1  0.43578013  0.04245428  0.20412582  1  0.131541  0  0.11911  0.095859  0  1.011592  0
H  H49  1  0.06421800  0.45754523  0.70412633  1  0.131535  0  0.119107  0.095834  0  1.011597  0
H  H50  1  0.56421793  0.95754539  0.79587417  1  0.131528  0  0.119112  0.095836  0  1.01161  0
H  H51  1  0.93578219  0.54245512  0.29587456  1  0.13157  0  0.119122  0.095871  0  1.011596  0
H  H52  1  0.41064065  0.94057067  0.11634383  1  0.114377  0  0.106559  0.117235  0  1.015254  0
H  H53  1  0.08935707  0.55942800  0.61634363  1  0.114392  0  0.106593  0.117311  0  1.015184  0
H  H54  1  0.58935802  0.05942900  0.88365571  1  0.114474  0  0.106576  0.117286  0  1.01518  0
H  H55  1  0.91064278  0.44057302  0.38365681  1  0.11441  0  0.10657  0.117311  0  1.015222  0
H  H56  1  0.40221565  0.15032355  0.00252464  1  0.087879  0  0.100686  0.104922  0  1.044921  0
H  H57  1  0.09778260  0.34967661  0.50252459  1  0.087662  0  0.100685  0.104942  0  1.044859  0
H  H58  1  0.59778270  0.84967678  0.99747399  1  0.087699  0  0.100684  0.104944  0  1.044874  0
H  H59  1  0.90221783  0.65032575  0.49747540  1  0.08797  0  0.10067  0.104976  0  1.044841  0
H  H60  1  0.43035408  0.24361011  0.09463865  1  0.12241  0  0.114477  0.091285  0  1.032733  0
H  H61  1  0.06964551  0.25638940  0.59463859  1  0.122407  0  0.11451  0.091344  0  1.032675  0
H  H62  1  0.56964487  0.75639023  0.90536088  1  0.122433  0  0.11449  0.091331  0  1.032684  0
H  H63  1  0.93035590  0.74361097  0.40536140  1  0.122398  0  0.114477  0.091304  0  1.032737  0
H  H64  1  0.38280150  0.90993695  0.01102598  1  0.088501  0  0.105311  0.100128  0  1.004588  0
H  H65  1  0.11719675  0.59006239  0.51102622  1  0.088507  0  0.105315  0.100128  0  1.004555  0
H  H66  1  0.61719721  0.09006139  0.98897491  1  0.088216  0  0.105301  0.100102  0  1.004607  0
H  H67  1  0.88280376  0.40993730  0.48897468  1  0.088498  0  0.105323  0.100138  0  1.004512  0
H  H68  1  0.37300007  0.05737858  0.92982283  1  0.061214  0  0.104005  0.104861  0  1.012649  0
H  H69  1  0.12699939  0.44262095  0.42982293  1  0.061204  0  0.10403  0.104886  0  1.012671  0
H  H70  1  0.62699681  0.94261974  0.07017716  1  0.061211  0  0.104006  0.104835  0  1.012665  0
H  H71  1  0.87300202  0.55737941  0.57017661  1  0.06111  0  0.104036  0.104911  0  1.012663  0
H  H72  1  0.29096812  0.70853293  0.85951743  1  0.122855  0  0.119413  0.091733  0  1.005743  0
H  H73  1  0.20902996  0.79146643  0.35951916  1  0.122866  0  0.119361  0.091694  0  1.005812  0
H  H74  1  0.70902872  0.29146672  0.14048301  1  0.122847  0  0.119422  0.091762  0  1.005703  0
H  H75  1  0.79096900  0.20853391  0.64048083  1  0.122885  0  0.119399  0.091746  0  1.005755  0
H  H76  1  0.31543266  0.80841078  0.94805984  1  0.061924  0  0.112077  0.118235  0  0.991471  0
H  H77  1  0.18456526  0.69158725  0.44805972  1  0.062005  0  0.112075  0.118259  0  0.991475  0
H  H78  1  0.68456266  0.19158819  0.05193925  1  0.061975  0  0.112127  0.118309  0  0.99143  0
H  H79  1  0.81543733  0.30841445  0.55193755  1  0.062014  0  0.112115  0.118329  0  0.991428  0
H  H80  1  0.37194623  0.02600349  0.82158010  1  0.085593  0  0.108647  0.115878  0  1.007514  0
H  H81  1  0.12805470  0.47399605  0.32157976  1  0.085598  0  0.108633  0.115905  0  1.00749  0
H  H82  1  0.62805424  0.97399753  0.17842035  1  0.085611  0  0.108629  0.115855  0  1.007576  0
H  H83  1  0.87194516  0.52600497  0.67841978  1  0.085509  0  0.108621  0.115845  0  1.007481  0
H  H84  1  0.34262704  0.91486677  0.73762460  1  0.103227  0  0.121574  0.095589  0  0.982589  0
H  H85  1  0.15737765  0.58513598  0.23762492  1  0.103095  0  0.121587  0.095601  0  0.982597  0
H  H86  1  0.65737437  0.08513359  0.26237539  1  0.103282  0  0.121569  0.095555  0  0.982628  0
H  H87  1  0.84262339  0.41486638  0.76237507  1  0.103439  0  0.121582  0.095573  0  0.982611  0
H  H88  1  0.11409296  0.17825562  0.22353023  1  0.105898  0  0.108009  0.115156  0  0.994221  0
H  H89  1  0.38590790  0.32174325  0.72353072  1  0.105914  0  0.108008  0.115162  0  0.994157  0
H  H90  1  0.88590751  0.82174540  0.77646976  1  0.105883  0  0.108021  0.11517  0  0.994162  0
H  H91  1  0.61409331  0.67825378  0.27647109  1  0.105897  0  0.107999  0.11513  0  0.994211  0
H  H92  1  0.98640703  0.19557454  0.16934007  1  0.058999  0  0.107708  0.112807  0  0.999551  0
H  H93  1  0.51359589  0.30442414  0.66934011  1  0.058992  0  0.107729  0.112831  0  0.999491  0
H  H94  1  0.01359683  0.80442584  0.83065992  1  0.058939  0  0.107728  0.11284  0  0.999467  0
H  H95  1  0.48640315  0.69557353  0.33065943  1  0.058941  0  0.107709  0.112787  0  0.999488  0
H  H96  1  0.17339993  0.35262816  0.03103242  1  0.097693  0  0.109134  0.11453  0  0.996817  0
H  H97  1  0.32660038  0.14737269  0.53103197  1  0.097683  0  0.109116  0.114495  0  0.996843  0
H  H98  1  0.82659600  0.64737082  0.96896803  1  0.097673  0  0.109125  0.114472  0  0.996879  0
H  H99  1  0.67340099  0.85262901  0.46896802  1  0.097671  0  0.109122  0.11453  0  0.996814  0
H  H100  1  0.30079087  0.34067427  0.08810963  1  0.162972  0  0.105508  0.121435  0  1.031656  0
H  H101  1  0.19921050  0.15932792  0.58810935  1  0.163004  0  0.10551  0.121437  0  1.031669  0
H  H102  1  0.69920838  0.65932674  0.91188991  1  0.162969  0  0.1055  0.121423  0  1.031682  0
H  H103  1  0.80079030  0.84067244  0.41189064  1  0.162996  0  0.1055  0.121416  0  1.031688  0
H  H104  1  0.88365372  0.45331419  0.20149423  1  0.157318  0  0.109229  0.12871  0  1.031593  0
H  H105  1  0.61634668  0.04668447  0.70149354  1  0.157021  0  0.109254  0.128746  0  1.031542  0
H  H106  1  0.11635010  0.54668753  0.79850394  1  0.159433  0  0.109204  0.128705  0  1.031509  0
H  H107  1  0.38365052  0.95331318  0.29850600  1  0.157001  0  0.10922  0.128713  0  1.031579  0
H  H108  1  0.88190005  0.31436093  0.15621342  1  0.088609  0  0.106126  0.113671  0  1.018118  0
H  H109  1  0.61810040  0.18563906  0.65621235  1  0.088496  0  0.106141  0.113701  0  1.018095  0
H  H110  1  0.11810103  0.68564009  0.84378521  1  0.088566  0  0.10615  0.113685  0  1.018103  0
H  H111  1  0.38189950  0.81436062  0.34378673  1  0.088581  0  0.106131  0.113669  0  1.018114  0
H  H112  1  0.09492798  0.47557607  0.03305165  1  0.094409  0  0.108704  0.114486  0  0.991602  0
H  H113  1  0.40507294  0.02442478  0.53305149  1  0.09441  0  0.108722  0.114547  0  0.991591  0
H  H114  1  0.90507462  0.52442563  0.96694652  1  0.094499  0  0.108716  0.114523  0  0.991556  0
H  H115  1  0.59492692  0.97557623  0.46694714  1  0.094444  0  0.108727  0.114542  0  0.991597  0
H  H116  1  0.10367095  0.61507311  0.08467111  1  0.085424  0  0.108793  0.119951  0  0.998434  0
H  H117  1  0.39632958  0.88492625  0.58466980  1  0.085325  0  0.108807  0.11997  0  0.998473  0
H  H118  1  0.89633201  0.38492660  0.91532843  1  0.085458  0  0.108789  0.119927  0  0.998428  0
H  H119  1  0.60366848  0.11507341  0.41532883  1  0.085298  0  0.108799  0.119958  0  0.998462  0
H  H120  1  0.32316971  0.67031772  0.06594985  1  0.058694  0  0.108233  0.116464  0  0.992957  0
H  H121  1  0.17682813  0.82968095  0.56594924  1  0.058719  0  0.108266  0.116483  0  0.992999  0
H  H122  1  0.67683162  0.32968531  0.93405060  1  0.058621  0  0.108233  0.116444  0  0.992974  0
H  H123  1  0.82316760  0.17031469  0.43405166  1  0.058596  0  0.10823  0.116439  0  0.993014  0
H  H124  1  0.44174235  0.63755388  0.01151297  1  0.119116  0  0.110259  0.118295  0  1.000636  0
H  H125  1  0.05825684  0.86244480  0.51151162  1  0.119085  0  0.110241  0.118235  0  1.000688  0
H  H126  1  0.55825783  0.36244647  0.98848974  1  0.119031  0  0.110233  0.118248  0  1.000665  0
H  H127  1  0.94174282  0.13755288  0.48848973  1  0.119012  0  0.110247  0.118258  0  1.000704  0
H  H128  1  0.63681745  0.78736698  0.14789537  1  0.10561  0  0.111477  0.118855  0  0.985132  0
H  H129  1  0.86318091  0.71263151  0.64789447  1  0.105584  0  0.111476  0.118845  0  0.985121  0
H  H130  1  0.36318216  0.21263204  0.85210689  1  0.105622  0  0.111473  0.118877  0  0.985103  0
H  H131  1  0.13681747  0.28736749  0.35210643  1  0.10563  0  0.111481  0.118891  0  0.985116  0
H  H132  1  0.51758805  0.82086638  0.20064237  1  0.109673  0  0.106345  0.111016  0  1.005729  0
H  H133  1  0.98241077  0.67913344  0.70064084  1  0.109722  0  0.106369  0.111024  0  1.00571  0
H  H134  1  0.48241242  0.17913464  0.79935989  1  0.109708  0  0.106356  0.11104  0  1.005756  0
H  H135  1  0.01758549  0.32086487  0.29935915  1  0.109459  0  0.106349  0.111049  0  1.005734  0
H  H136  1  0.50918903  0.38814468  0.12879141  1  0.134199  0  0.106895  0.122379  0  1.034067  0
H  H137  1  0.99080932  0.11185596  0.62879120  1  0.134217  0  0.106899  0.122394  0  1.034044  0
H  H138  1  0.49081115  0.61185567  0.87120767  1  0.134202  0  0.106888  0.122379  0  1.034093  0
H  H139  1  0.00919025  0.88814439  0.37120834  1  0.134207  0  0.106875  0.122377  0  1.034068  0
H  H140  1  0.49994893  0.50487813  0.06254226  1  0.099685  0  0.107106  0.115907  0  1.012944  0
H  H141  1  0.00005341  0.99512392  0.56254061  1  0.099615  0  0.107086  0.11586  0  1.012975  0
H  H142  1  0.50005579  0.49512427  0.93745818  1  0.099585  0  0.107077  0.115852  0  1.012967  0
H  H143  1  0.99994620  0.00487509  0.43745757  1  0.099638  0  0.107095  0.11588  0  1.012984  0
H  H144  1  0.77203921  0.68794398  0.11368036  1  0.115445  0  0.103584  0.107783  0  1.034312  0
H  H145  1  0.72796222  0.81205720  0.61367968  1  0.115478  0  0.10359  0.107798  0  1.034337  0
H  H146  1  0.22796278  0.31205772  0.88632009  1  0.115491  0  0.103595  0.107776  0  1.034354  0
H  H147  1  0.27203825  0.18794382  0.38632031  1  0.115464  0  0.103604  0.107755  0  1.034342  0
H  H148  1  0.78425809  0.56585063  0.17553609  1  0.163185  0  0.107863  0.124835  0  1.036065  0
H  H149  1  0.71574230  0.93414987  0.67553413  1  0.163173  0  0.107853  0.124841  0  1.036022  0
H  H150  1  0.21574299  0.43415039  0.82446390  1  0.163202  0  0.107864  0.12483  0  1.036062  0
H  H151  1  0.28425637  0.06584980  0.32446450  1  0.163215  0  0.107875  0.124832  0  1.036067  0
C  C152  1  0.43887111  0.40784006  0.30288199  1  0.450701  0  0.044306  0.093476  0  3.968789  0
C  C153  1  0.06112774  0.09215879  0.80288094  1  0.450628  0  0.04435  0.093502  0  3.968766  0
C  C154  1  0.56112728  0.59215894  0.69711890  1  0.450533  0  0.044358  0.093557  0  3.968836  0
C  C155  1  0.93887187  0.90784022  0.19711860  1  0.450651  0  0.044343  0.093534  0  3.968768  0
C  C156  1  0.42268361  0.45928193  0.34682213  1  -0.042718  0  -0.085009  -0.183116  0  3.940602  0
C  C157  1  0.07731599  0.04071893  0.84682148  1  -0.042718  0  -0.08496  -0.183037  0  3.940625  0
C  C158  1  0.57731624  0.54071908  0.65317922  1  -0.042711  0  -0.084972  -0.183109  0  3.940632  0
C  C159  1  0.92268448  0.95928209  0.15317941  1  -0.042735  0  -0.085029  -0.183179  0  3.940535  0
C  C160  1  0.41366544  0.43274739  0.40803887  1  0.02012  0  0.010988  0.155562  0  4.01421  0
C  C161  1  0.08633407  0.06725214  0.90803822  1  0.020179  0  0.010968  0.155504  0  4.014453  0
C  C162  1  0.58633384  0.56725228  0.59196203  1  0.020264  0  0.010996  0.155657  0  4.01433  0
C  C163  1  0.91366612  0.93274821  0.09196132  1  0.020036  0  0.011007  0.155574  0  4.014276  0
C  C164  1  0.42704012  0.35628258  0.42185315  1  -0.009759  0  -0.075436  -0.154387  0  3.907292  0
C  C165  1  0.07295666  0.14371493  0.92185211  1  -0.009838  0  -0.07547  -0.154451  0  3.907459  0
C  C166  1  0.57295916  0.64371710  0.57814820  1  -0.009886  0  -0.075512  -0.154607  0  3.907463  0
C  C167  1  0.92704234  0.85628408  0.07814743  1  -0.00979  0  -0.075484  -0.154449  0  3.907427  0
C  C168  1  0.44475629  0.30948312  0.37549792  1  0.420374  0  0.047028  0.091901  0  3.949008  0
C  C169  1  0.05523843  0.19051504  0.87549738  1  0.420277  0  0.047002  0.091877  0  3.948948  0
C  C170  1  0.55524116  0.69051654  0.62450298  1  0.420287  0  0.047064  0.092015  0  3.948946  0
C  C171  1  0.94475934  0.80948396  0.12450215  1  0.420264  0  0.046979  0.091855  0  3.949021  0
C  C172  1  0.39136119  0.48422038  0.45312737  1  -0.012838  0  -0.080836  -0.120476  0  3.934798  0
C  C173  1  0.10863789  0.01577982  0.95312712  1  -0.013043  0  -0.080826  -0.120509  0  3.934939  0
C  C174  1  0.60863626  0.51577928  0.54687262  1  -0.013108  0  -0.080827  -0.120545  0  3.934962  0
C  C175  1  0.89136347  0.98422187  0.04687333  1  -0.01292  0  -0.080766  -0.120495  0  3.934844  0
C  C176  1  0.35964773  0.45485484  0.50936563  1  -0.048551  0  -0.07391  -0.09668  0  3.930315  0
C  C177  1  0.14034899  0.04514464  0.00936594  1  -0.048336  0  -0.073919  -0.096577  0  3.930375  0
C  C178  1  0.64034637  0.54514413  0.49063346  1  -0.048385  0  -0.073974  -0.096678  0  3.930278  0
C  C179  1  0.85965058  0.95485570  0.99063405  1  -0.048424  0  -0.073954  -0.096591  0  3.930366  0
C  C180  1  0.32503409  0.63866005  0.58929405  1  0.470161  0  0.041962  0.09506  0  3.954586  0
C  C181  1  0.17496550  0.86133997  0.08929450  1  0.470203  0  0.041978  0.09509  0  3.954555  0
C  C182  1  0.67496822  0.36134099  0.41070639  1  0.47018  0  0.041987  0.095147  0  3.954645  0
C  C183  1  0.82503232  0.13865769  0.91070549  1  0.470038  0  0.041965  0.095008  0  3.954762  0
C  C184  1  0.34049809  0.59104825  0.54265536  1  -0.002146  0  -0.08654  -0.177596  0  3.930047  0
C  C185  1  0.15950131  0.90895110  0.04265586  1  -0.002169  0  -0.086562  -0.177655  0  3.930109  0
C  C186  1  0.65950271  0.40895210  0.45734554  1  -0.002141  0  -0.086557  -0.1777  0  3.929917  0
C  C187  1  0.84049830  0.09104792  0.95734368  1  -0.001971  0  -0.086542  -0.177627  0  3.930115  0
C  C188  1  0.33813988  0.50660457  0.55468634  1  -0.009082  0  0.006396  0.14133  0  4.026049  0
C  C189  1  0.16185766  0.99339476  0.05468643  1  -0.009062  0  0.006462  0.141356  0  4.026059  0
C  C190  1  0.66185879  0.49339510  0.44531365  1  -0.009058  0  0.006445  0.141379  0  4.025955  0
C  C191  1  0.83814167  0.00660358  0.94531266  1  -0.009065  0  0.0064  0.141304  0  4.026111  0
C  C192  1  0.31554505  0.47316605  0.61395559  1  -0.040861  0  -0.081794  -0.167639  0  3.917516  0
C  C193  1  0.18445356  0.02683412  0.11395583  1  -0.040827  0  -0.081801  -0.16761  0  3.917454  0
C  C194  1  0.68445514  0.52683430  0.38604440  1  -0.040842  0  -0.08177  -0.167596  0  3.917508  0
C  C195  1  0.81554601  0.97316622  0.88604325  1  -0.041044  0  -0.081824  -0.16776  0  3.91767  0
C  C196  1  0.29935254  0.52448049  0.65802861  1  0.453712  0  0.045339  0.095242  0  3.946878  0
C  C197  1  0.20064689  0.97551953  0.15802864  1  0.453704  0  0.045311  0.095168  0  3.946853  0
C  C198  1  0.70064646  0.47551851  0.34197183  1  0.453661  0  0.045322  0.095231  0  3.946865  0
C  C199  1  0.79935329  0.02448082  0.84197090  1  0.453881  0  0.045366  0.095287  0  3.946902  0
C  C200  1  0.43009235  0.06419989  0.15833075  1  0.421685  0  0.047655  0.096763  0  3.949197  0
C  C201  1  0.06990531  0.43579828  0.65833079  1  0.421565  0  0.047687  0.096838  0  3.949185  0
C  C202  1  0.56990571  0.93579978  0.84166924  1  0.42159  0  0.047683  0.096844  0  3.949238  0
C  C203  1  0.93009639  0.56420275  0.34167056  1  0.421568  0  0.047648  0.096818  0  3.949273  0
C  C204  1  0.41545682  0.00755210  0.10890599  1  0.006404  0  -0.080577  -0.169957  0  3.931331  0
C  C205  1  0.08453788  0.49244604  0.60890559  1  0.006249  0  -0.080639  -0.170033  0  3.931389  0
C  C206  1  0.58454124  0.99244757  0.89109400  1  0.006294  0  -0.080612  -0.170033  0  3.93133  0
C  C207  1  0.91546259  0.50755498  0.39109485  1  0.006289  0  -0.080574  -0.17007  0  3.931349  0
C  C208  1  0.40425881  0.03625958  0.05086086  1  -0.017171  0  0.004544  0.136773  0  4.037561  0
C  C209  1  0.09573573  0.46373788  0.55086089  1  -0.017006  0  0.004571  0.136688  0  4.037658  0
C  C210  1  0.59573896  0.96373942  0.94913867  1  -0.017167  0  0.004581  0.136839  0  4.037491  0
C  C211  1  0.90426564  0.53626381  0.44914092  1  -0.016987  0  0.004544  0.136821  0  4.037492  0
C  C212  1  0.41087663  0.12361347  0.04588149  1  -0.033224  0  -0.083893  -0.16684  0  3.924363  0
C  C213  1  0.08912005  0.37638467  0.54588147  1  -0.03326  0  -0.08391  -0.166811  0  3.924431  0
C  C214  1  0.58912114  0.87638552  0.95411759  1  -0.033132  0  -0.083928  -0.166902  0  3.924414  0
C  C215  1  0.91087920  0.62361634  0.45412033  1  -0.033659  0  -0.083963  -0.167011  0  3.924482  0
C  C216  1  0.42678617  0.17639824  0.09729818  1  0.471147  0  0.040929  0.086036  0  3.956524  0
C  C217  1  0.07321370  0.32360194  0.59729906  1  0.471424  0  0.040865  0.085887  0  3.956484  0
C  C218  1  0.57321368  0.82360278  0.90270045  1  0.471287  0  0.040911  0.08595  0  3.956415  0
C  C219  1  0.92678738  0.67639908  0.40270229  1  0.471398  0  0.04091  0.086014  0  3.956561  0
C  C220  1  0.38471051  0.97509220  0.99984526  1  -0.035711  0  -0.074565  -0.106608  0  3.966556  0
C  C221  1  0.11528272  0.52490513  0.49984468  1  -0.035696  0  -0.074572  -0.106552  0  3.966493  0
C  C222  1  0.61529212  0.02490818  0.00015428  1  -0.035339  0  -0.074572  -0.106658  0  3.966492  0
C  C223  1  0.88471656  0.47509455  0.50015531  1  -0.035676  0  -0.074551  -0.106552  0  3.966385  0
C  C224  1  0.36904578  0.99176691  0.94204776  1  -0.044703  0  -0.07815  -0.11585  0  3.932381  0
C  C225  1  0.13095183  0.50823179  0.44204806  1  -0.044699  0  -0.078134  -0.115852  0  3.932446  0
C  C226  1  0.63095469  0.00823411  0.05795269  1  -0.044739  0  -0.078127  -0.115748  0  3.932275  0
C  C227  1  0.86904897  0.49176857  0.55795284  1  -0.044602  0  -0.078194  -0.11597  0  3.932377  0
C  C228  1  0.31005170  0.77970622  0.85333708  1  0.417257  0  0.047743  0.098587  0  3.960502  0
C  C229  1  0.18994856  0.72029250  0.35333833  1  0.41729  0  0.047713  0.098479  0  3.960684  0
C  C230  1  0.68994787  0.22029413  0.14666246  1  0.417079  0  0.047668  0.098532  0  3.960549  0
C  C231  1  0.81005162  0.27970785  0.64666075  1  0.417125  0  0.047806  0.09866  0  3.960709  0
C  C232  1  0.32449436  0.83619551  0.90246567  1  0.023585  0  -0.075879  -0.157268  0  3.915959  0
C  C233  1  0.17550579  0.66380321  0.40246646  1  0.02344  0  -0.075913  -0.157321  0  3.916264  0
C  C234  1  0.67550521  0.16380484  0.09753341  1  0.023658  0  -0.075913  -0.157384  0  3.916185  0
C  C235  1  0.82449440  0.33619714  0.59753262  1  0.023543  0  -0.075959  -0.157512  0  3.916336  0
C  C236  1  0.34881637  0.92769433  0.89266926  1  0.01415  0  0.011618  0.153761  0  4.019483  0
C  C237  1  0.15118498  0.57230573  0.39267003  1  0.01397  0  0.011627  0.153789  0  4.019588  0
C  C238  1  0.65118683  0.07230738  0.10733073  1  0.014017  0  0.011623  0.153756  0  4.019579  0
C  C239  1  0.84881643  0.42769464  0.60733087  1  0.014048  0  0.011645  0.153829  0  4.01953  0
C  C240  1  0.35387700  0.95597312  0.83200222  1  -0.010598  0  -0.080121  -0.176516  0  3.924606  0
C  C241  1  0.14612752  0.54402829  0.33200252  1  -0.010403  0  -0.080119  -0.176593  0  3.924577  0
C  C242  1  0.64612593  0.04402792  0.16799777  1  -0.010474  0  -0.080054  -0.176428  0  3.924606  0
C  C243  1  0.85387691  0.45597343  0.66799701  1  -0.010466  0  -0.080122  -0.176488  0  3.924574  0
C  C244  1  0.33821160  0.89479889  0.78513497  1  0.461064  0  0.049796  0.095842  0  3.96003  0
C  C245  1  0.16179180  0.60520251  0.28513528  1  0.461016  0  0.049785  0.095825  0  3.959947  0
C  C246  1  0.66178859  0.10520146  0.21486548  1  0.461025  0  0.049773  0.095843  0  3.960054  0
C  C247  1  0.83821202  0.39479920  0.71486471  1  0.460873  0  0.049849  0.095903  0  3.960038  0
C  C248  1  0.29083541  0.25061538  0.19145231  1  1.559075  0  0.184683  0.539446  0  4.265098  0
C  C249  1  0.20916548  0.24938482  0.69145071  1  1.559127  0  0.18467  0.53946  0  4.265131  0
C  C250  1  0.70916604  0.74938365  0.80854723  1  1.559312  0  0.184689  0.539472  0  4.265016  0
C  C251  1  0.79083474  0.75061420  0.30854883  1  1.559604  0  0.184683  0.539473  0  4.265176  0
C  C252  1  0.21437788  0.26003458  0.15931920  1  -0.036568  0  -0.008829  -0.009818  0  3.944479  0
C  C253  1  0.28562455  0.23996763  0.65931886  1  -0.03659  0  -0.008908  -0.009987  0  3.944524  0
C  C254  1  0.78562414  0.73996579  0.84067943  1  -0.036588  0  -0.008857  -0.009915  0  3.944433  0
C  C255  1  0.71437624  0.76003273  0.34068068  1  -0.036688  0  -0.008851  -0.009913  0  3.944529  0
C  C256  1  0.12596817  0.21780248  0.18213809  1  0.006371  0  -0.082244  -0.095931  0  3.966153  0
C  C257  1  0.37403307  0.28219705  0.68213857  1  0.006308  0  -0.082157  -0.095744  0  3.966055  0
C  C258  1  0.87403304  0.78219454  0.81786008  1  0.006306  0  -0.082232  -0.095842  0  3.966033  0
C  C259  1  0.62596687  0.71780130  0.31786187  1  0.006312  0  -0.082202  -0.095846  0  3.966001  0
C  C260  1  0.05541771  0.22644571  0.15195837  1  -0.013007  0  -0.087477  -0.101773  0  4.005262  0
C  C261  1  0.44458334  0.27355182  0.65195875  1  -0.012967  0  -0.087502  -0.101855  0  4.005183  0
C  C262  1  0.94458324  0.77354931  0.84803890  1  -0.012931  0  -0.087445  -0.101836  0  4.005089  0
C  C263  1  0.55541565  0.72644719  0.34804078  1  -0.012953  0  -0.08743  -0.101724  0  4.00501  0
C  C264  1  0.07397869  0.27535810  0.09783633  1  -0.25669  0  -0.024365  -0.0861  0  4.005178  0
C  C265  1  0.42602094  0.22464007  0.59783626  1  -0.256686  0  -0.024437  -0.086233  0  4.005241  0
C  C266  1  0.92601769  0.72463621  0.90216276  1  -0.256662  0  -0.024418  -0.086121  0  4.005369  0
C  C267  1  0.57397863  0.77536027  0.40216237  1  -0.256675  0  -0.024383  -0.086072  0  4.00518  0
C  C268  1  0.16143105  0.31640697  0.07387497  1  -0.044474  0  -0.083397  -0.093609  0  3.987668  0
C  C269  1  0.33857035  0.18359522  0.57387362  1  -0.044236  0  -0.08336  -0.093521  0  3.987762  0
C  C270  1  0.83857093  0.68359473  0.92612638  1  -0.044575  0  -0.083369  -0.093479  0  3.987927  0
C  C271  1  0.66142767  0.81640578  0.42612637  1  -0.044195  0  -0.083412  -0.093676  0  3.987682  0
C  C272  1  0.23183974  0.30952442  0.10537222  1  -0.01778  0  -0.079341  -0.083276  0  3.925497  0
C  C273  1  0.26816249  0.19047845  0.60537142  1  -0.017968  0  -0.079334  -0.083251  0  3.925439  0
C  C274  1  0.76816069  0.69047794  0.89462867  1  -0.017674  0  -0.07935  -0.083318  0  3.925407  0
C  C275  1  0.73183774  0.80952056  0.39462902  1  -0.017908  0  -0.079322  -0.0832  0  3.925385  0
C  C276  1  0.99700678  0.62484189  0.17576637  1  1.573547  0  0.208447  0.571234  0  4.223878  0
C  C277  1  0.50299483  0.87515863  0.67576464  1  1.573533  0  0.208517  0.571301  0  4.223863  0
C  C278  1  0.00299737  0.37515917  0.82423362  1  1.572833  0  0.208521  0.571443  0  4.22368  0
C  C279  1  0.49700323  0.12484104  0.32423626  1  1.572808  0  0.208446  0.571349  0  4.223758  0
C  C280  1  0.99418963  0.54194788  0.14584781  1  -0.060737  0  -0.009907  -0.022784  0  3.940967  0
C  C281  1  0.50581209  0.95805130  0.64584567  1  -0.060832  0  -0.009922  -0.02276  0  3.941037  0
C  C282  1  0.00581517  0.45805184  0.85415309  1  -0.060766  0  -0.009925  -0.022938  0  3.941022  0
C  C283  1  0.49418540  0.04194703  0.35415386  1  -0.060752  0  -0.009917  -0.022903  0  3.941105  0
C  C284  1  0.93132560  0.45774138  0.16593593  1  -0.007324  0  -0.077181  -0.079402  0  3.922562  0
C  C285  1  0.56867516  0.04225795  0.66593574  1  -0.006822  0  -0.077207  -0.079433  0  3.92251  0
C  C286  1  0.06867765  0.54225900  0.83406270  1  -0.009031  0  -0.077144  -0.079292  0  3.922387  0
C  C287  1  0.43132294  0.95774039  0.33406470  1  -0.006872  0  -0.07714  -0.079289  0  3.922519  0
C  C288  1  0.92898557  0.38012568  0.13992414  1  0.019442  0  -0.084327  -0.089708  0  3.976237  0
C  C289  1  0.57101496  0.11987298  0.63992400  1  0.019539  0  -0.084327  -0.089736  0  3.97625  0
C  C290  1  0.07101584  0.61987468  0.86007358  1  0.019072  0  -0.084321  -0.089736  0  3.976298  0
C  C291  1  0.42898346  0.88012469  0.36007554  1  0.01941  0  -0.084348  -0.089748  0  3.976193  0
C  C292  1  0.98792056  0.38807570  0.09212530  1  -0.275815  0  -0.024392  -0.087048  0  4.006395  0
C  C293  1  0.51207886  0.11192295  0.59212567  1  -0.275807  0  -0.024385  -0.08699  0  4.006347  0
C  C294  1  0.01208118  0.61192400  0.90787243  1  -0.27559  0  -0.024389  -0.086902  0  4.006382  0
C  C295  1  0.48791953  0.88807605  0.40787432  1  -0.275588  0  -0.024384  -0.086969  0  4.0064  0
C  C296  1  0.05062343  0.47170270  0.07091484  1  0.019394  0  -0.085257  -0.099374  0  3.992403  0
C  C297  1  0.44937532  0.02829613  0.57091508  1  0.019017  0  -0.085304  -0.099524  0  3.992409  0
C  C298  1  0.94937676  0.52829765  0.92908334  1  0.019318  0  -0.085279  -0.099537  0  3.992368  0
C  C299  1  0.55062400  0.97170221  0.42908400  1  0.019333  0  -0.085315  -0.099523  0  3.992492  0
C  C300  1  0.05453774  0.54882736  0.09879429  1  0.016525  0  -0.074838  -0.074417  0  3.935156  0
C  C301  1  0.44546247  0.95117133  0.59879251  1  0.016846  0  -0.074806  -0.07441  0  3.935199  0
C  C302  1  0.94546489  0.45117301  0.90120570  1  0.016466  0  -0.074847  -0.07435  0  3.935139  0
C  C303  1  0.55453624  0.04882701  0.40120657  1  0.016569  0  -0.074822  -0.07438  0  3.935167  0
C  C304  1  0.34364962  0.76800881  0.16708292  1  1.560165  0  0.180029  0.534151  0  4.279903  0
C  C305  1  0.15634832  0.73198920  0.66708183  1  1.560311  0  0.179993  0.534112  0  4.280052  0
C  C306  1  0.65635114  0.23199288  0.83291843  1  1.560023  0  0.180021  0.534073  0  4.279813  0
C  C307  1  0.84364892  0.26800712  0.33291997  1  1.560275  0  0.179914  0.533862  0  4.280128  0
C  C308  1  0.41455323  0.74792468  0.13569850  1  -0.062518  0  -0.009943  -0.006609  0  3.941484  0
C  C309  1  0.08544478  0.75207333  0.63569615  1  -0.062507  0  -0.009959  -0.006573  0  3.941504  0
C  C310  1  0.58544749  0.25207835  0.86430330  1  -0.062406  0  -0.009857  -0.006443  0  3.94153  0
C  C311  1  0.91455246  0.24792299  0.36430429  1  -0.062506  0  -0.009907  -0.006454  0  3.941476  0
C  C312  1  0.39232750  0.69586411  0.08279693  1  0.090911  0  -0.079362  -0.086888  0  3.949214  0
C  C313  1  0.10767095  0.80413323  0.58279549  1  0.090891  0  -0.079348  -0.086867  0  3.949123  0
C  C314  1  0.60767232  0.30413824  0.91720442  1  0.090673  0  -0.079404  -0.086936  0  3.949318  0
C  C315  1  0.89232752  0.19586310  0.41720586  1  0.090457  0  -0.079365  -0.086904  0  3.949187  0
C  C316  1  0.45723864  0.67712738  0.05306385  1  -0.056273  0  -0.080508  -0.091714  0  3.983582  0
C  C317  1  0.04276017  0.82287064  0.55306159  1  -0.056176  0  -0.080529  -0.091676  0  3.983524  0
C  C318  1  0.54276151  0.32287431  0.94693796  1  -0.055894  0  -0.080459  -0.091602  0  3.983482  0
C  C319  1  0.95723977  0.17712771  0.44693931  1  -0.05547  0  -0.080487  -0.091626  0  3.983591  0
C  C320  1  0.54456621  0.71083177  0.07717705  1  -0.247839  0  -0.023063  -0.084203  0  4.001004  0
C  C321  1  0.95543292  0.78916672  0.57717517  1  -0.247902  0  -0.023066  -0.084268  0  4.001065  0
C  C322  1  0.45543307  0.28916791  0.92282520  1  -0.24785  0  -0.023142  -0.084409  0  4.001004  0
C  C323  1  0.04456640  0.21083162  0.42282482  1  -0.248058  0  -0.023101  -0.084339  0  4.001096  0
C  C324  1  0.56808120  0.76238133  0.13021378  1  -0.037021  0  -0.083951  -0.101797  0  3.998098  0
C  C325  1  0.93191839  0.73761849  0.63021280  1  -0.037091  0  -0.083914  -0.101747  0  3.998087  0
C  C326  1  0.43191960  0.23761902  0.86978803  1  -0.03708  0  -0.083908  -0.10174  0  3.998057  0
C  C327  1  0.06807999  0.26238051  0.36978855  1  -0.037064  0  -0.083923  -0.10178  0  3.99812  0
C  C328  1  0.50256668  0.78100448  0.15922166  1  -0.045122  0  -0.081869  -0.097471  0  3.966344  0
C  C329  1  0.99743194  0.71899467  0.65922013  1  -0.045112  0  -0.081919  -0.09751  0  3.966316  0
C  C330  1  0.49743465  0.21899855  0.84077969  1  -0.045123  0  -0.081892  -0.097543  0  3.966487  0
C  C331  1  0.00256440  0.28100097  0.34077940  1  -0.04487  0  -0.081899  -0.097582  0  3.966446  0
C  C332  1  0.65556407  0.39901694  0.19422551  1  1.554265  0  0.202761  0.564909  0  4.229816  0
C  C333  1  0.84443598  0.10098371  0.69422411  1  1.554263  0  0.202742  0.564829  0  4.229974  0
C  C334  1  0.34443673  0.60098341  0.80577448  1  1.554286  0  0.202785  0.564976  0  4.229726  0
C  C335  1  0.15556474  0.89901931  0.30577407  1  1.554139  0  0.202798  0.56498  0  4.229833  0
C  C336  1  0.64790089  0.46993625  0.15550201  1  -0.031987  0  -0.012667  -0.027867  0  3.950054  0
C  C337  1  0.85209863  0.03006440  0.65550056  1  -0.032141  0  -0.012551  -0.027687  0  3.950184  0
C  C338  1  0.35209933  0.53006277  0.84449843  1  -0.032161  0  -0.012617  -0.027794  0  3.950277  0
C  C339  1  0.14790213  0.96993729  0.34449716  1  -0.032083  0  -0.012632  -0.02791  0  3.950147  0
C  C340  1  0.56743110  0.45271689  0.12426554  1  -0.07479  0  -0.080187  -0.083389  0  3.929394  0
C  C341  1  0.93256849  0.04728376  0.62426309  1  -0.074521  0  -0.080239  -0.083486  0  3.929515  0
C  C342  1  0.43256847  0.54728345  0.87573490  1  -0.0746  0  -0.080206  -0.083467  0  3.929622  0
C  C343  1  0.06743170  0.95271659  0.37573463  1  -0.074746  0  -0.080206  -0.083442  0  3.929571  0
C  C344  1  0.56158828  0.51876783  0.08793990  1  -0.004226  0  -0.086249  -0.096117  0  3.983744  0
C  C345  1  0.93841197  0.98123333  0.58793769  1  -0.004375  0  -0.086235  -0.096074  0  3.983811  0
C  C346  1  0.43841308  0.48123386  0.91206145  1  -0.004243  0  -0.08619  -0.09601  0  3.983754  0
C  C347  1  0.06158699  0.01876701  0.41206003  1  -0.004249  0  -0.086205  -0.096077  0  3.983787  0
C  C348  1  0.63609541  0.60256322  0.08476874  1  -0.275812  0  -0.025374  -0.089701  0  4.015911  0
C  C349  1  0.86390702  0.89743730  0.58476930  1  -0.275811  0  -0.025394  -0.089648  0  4.015919  0
C  C350  1  0.36390661  0.39743715  0.91523171  1  -0.275846  0  -0.025421  -0.089719  0  4.015857  0
C  C351  1  0.13609288  0.10256238  0.41523115  1  -0.275865  0  -0.025353  -0.089584  0  4.015697  0
C  C352  1  0.71604709  0.62145242  0.11646238  1  -0.020504  0  -0.082101  -0.084682  0  3.963596  0
C  C353  1  0.78395527  0.87854810  0.61646166  1  -0.020519  0  -0.082148  -0.084792  0  3.963714  0
C  C354  1  0.28395489  0.37854928  0.88353943  1  -0.020472  0  -0.08214  -0.084734  0  3.96368  0
C  C355  1  0.21604586  0.12145159  0.38353969  1  -0.020489  0  -0.082114  -0.084684  0  3.96363  0
C  C356  1  0.72221606  0.55391661  0.15118113  1  0.042126  0  -0.073243  -0.064685  0  3.899211  0
C  C357  1  0.77778500  0.94608390  0.65117956  1  0.04219  0  -0.073275  -0.064733  0  3.899292  0
C  C358  1  0.27778502  0.44608442  0.84881931  1  0.042129  0  -0.073253  -0.064687  0  3.899361  0
C  C359  1  0.22221515  0.05391778  0.34881952  1  0.042204  0  -0.073291  -0.064656  0  3.899163  0
S  S360  1  0.98498790  0.28872665  0.05962247  1  2.457133  0  0.469473  0.957233  0  5.75396  0
S  S361  1  0.51501252  0.21127133  0.55962291  1  2.457447  0  0.469548  0.957442  0  5.754107  0
S  S362  1  0.01501236  0.71127103  0.94037525  1  2.457652  0  0.469512  0.957291  0  5.754097  0
S  S363  1  0.48498770  0.78872769  0.44037663  1  2.457198  0  0.469486  0.957323  0  5.754159  0
S  S364  1  0.62788177  0.68721378  0.03936463  1  2.468011  0  0.471566  0.953061  0  5.756877  0
S  S365  1  0.87211864  0.81278604  0.53936332  1  2.468015  0  0.471523  0.953005  0  5.757106  0
S  S366  1  0.37211842  0.31278657  0.96063581  1  2.467983  0  0.471536  0.953089  0  5.757048  0
S  S367  1  0.12788069  0.18721230  0.46063622  1  2.467989  0  0.471499  0.952966  0  5.757024  0
N  N368  1  0.44885750  0.33337749  0.31669900  1  -1.236045  0  -0.330365  -0.245446  0  3.508327  0
N  N369  1  0.05113915  0.16662201  0.81669755  1  -1.235874  0  -0.330298  -0.245334  0  3.508223  0
N  N370  1  0.55113962  0.66662283  0.68330235  1  -1.235916  0  -0.330391  -0.245515  0  3.508366  0
N  N371  1  0.94885953  0.83337766  0.18330154  1  -1.235861  0  -0.330339  -0.245447  0  3.508355  0
N  N372  1  0.30529157  0.60662692  0.64628518  1  -1.236206  0  -0.333765  -0.243578  0  3.517372  0
N  N373  1  0.19470637  0.89337242  0.14628562  1  -1.236205  0  -0.333771  -0.243585  0  3.517334  0
N  N374  1  0.69470894  0.39337276  0.35371572  1  -1.236181  0  -0.333745  -0.243571  0  3.517475  0
N  N375  1  0.80529112  0.10662591  0.85371483  1  -1.236307  0  -0.333752  -0.24351  0  3.517363  0
N  N376  1  0.43562110  0.14733157  0.15297448  1  -1.219603  0  -0.326191  -0.238423  0  3.484812  0
N  N377  1  0.06437746  0.35266727  0.65297494  1  -1.219568  0  -0.326176  -0.23837  0  3.484756  0
N  N378  1  0.56437696  0.85266809  0.84702460  1  -1.219573  0  -0.326197  -0.23841  0  3.484646  0
N  N379  1  0.93562456  0.64733310  0.34702596  1  -1.219538  0  -0.326115  -0.238389  0  3.484773  0
N  N380  1  0.31736351  0.80802238  0.79543253  1  -1.205485  0  -0.327236  -0.237549  0  3.503319  0
N  N381  1  0.18264048  0.69197903  0.29543242  1  -1.205279  0  -0.327155  -0.237364  0  3.503071  0
N  N382  1  0.68263549  0.19197662  0.20456700  1  -1.205458  0  -0.327215  -0.237531  0  3.503317  0
N  N383  1  0.81736363  0.30802336  0.70456621  1  -1.205393  0  -0.327299  -0.237579  0  3.503356  0
O  O384  1  0.27242030  0.18772191  0.22953588  1  -1.168918  0  -0.334315  -0.559768  0  2.142982  0
O  O385  1  0.22757838  0.31227760  0.72953475  1  -1.169083  0  -0.334283  -0.559747  0  2.143001  0
O  O386  1  0.72758221  0.81227246  0.77046093  1  -1.169157  0  -0.334289  -0.559754  0  2.142989  0
O  O387  1  0.77241939  0.68772140  0.27046615  1  -1.169415  0  -0.334281  -0.559758  0  2.143103  0
O  O388  1  0.37132394  0.30643226  0.17733228  1  -1.165426  0  -0.333055  -0.566122  0  2.226133  0
O  O389  1  0.12867674  0.19356593  0.67733120  1  -1.165405  0  -0.333055  -0.56612  0  2.226068  0
O  O390  1  0.62867625  0.69356809  0.82266681  1  -1.165399  0  -0.333101  -0.566176  0  2.226063  0
O  O391  1  0.87132528  0.80643444  0.32266652  1  -1.165446  0  -0.333093  -0.566145  0  2.226052  0
O  O392  1  0.92690036  0.61468037  0.20652580  1  -1.15481  0  -0.318635  -0.540368  0  2.302141  0
O  O393  1  0.57310089  0.88531948  0.70652354  1  -1.154823  0  -0.318667  -0.540396  0  2.302196  0
O  O394  1  0.07310501  0.38532070  0.79347509  1  -1.154212  0  -0.318698  -0.540443  0  2.302107  0
O  O395  1  0.42689443  0.11467949  0.29347735  1  -1.154128  0  -0.318658  -0.540407  0  2.30211  0
O  O396  1  0.06607683  0.69829773  0.16912853  1  -1.20525  0  -0.330381  -0.577384  0  2.330724  0
O  O397  1  0.43392380  0.80170230  0.66912850  1  -1.205255  0  -0.330424  -0.577458  0  2.330672  0
O  O398  1  0.93392789  0.30170466  0.83087100  1  -1.205188  0  -0.330375  -0.577479  0  2.330595  0
O  O399  1  0.56607365  0.19829735  0.33087376  1  -1.205241  0  -0.330356  -0.577447  0  2.330561  0
O  O400  1  0.90016224  0.21452323  0.07753498  1  -1.315692  0  -0.319259  -0.535173  0  2.190704  0
O  O401  1  0.59983692  0.28547475  0.57753399  1  -1.31596  0  -0.319293  -0.535267  0  2.190887  0
O  O402  1  0.09983525  0.78547510  0.92246365  1  -1.315973  0  -0.319297  -0.535238  0  2.191019  0
O  O403  1  0.40016363  0.71452361  0.42246509  1  -1.315986  0  -0.31929  -0.535265  0  2.190871  0
O  O404  1  0.00876930  0.30460661  0.99581244  1  -1.296118  0  -0.314082  -0.518881  0  2.150633  0
O  O405  1  0.49123095  0.19539227  0.49581285  1  -1.296097  0  -0.314136  -0.518985  0  2.150697  0
O  O406  1  0.99123154  0.69539241  0.00418665  1  -1.296448  0  -0.314121  -0.51895  0  2.150479  0
O  O407  1  0.50876985  0.80460809  0.50418714  1  -1.296077  0  -0.314096  -0.518938  0  2.150722  0
O  O408  1  0.36809959  0.82650216  0.20888143  1  -1.161759  0  -0.336802  -0.561943  0  2.138249  0
O  O409  1  0.13189916  0.67349652  0.70888034  1  -1.161914  0  -0.336783  -0.561937  0  2.138284  0
O  O410  1  0.63190117  0.17349953  0.79111992  1  -1.161645  0  -0.336772  -0.561888  0  2.138187  0
O  O411  1  0.86809927  0.32650114  0.29112237  1  -1.161733  0  -0.336731  -0.561801  0  2.13819  0
O  O412  1  0.26205217  0.72490636  0.14899859  1  -1.160141  0  -0.339865  -0.567123  0  2.202825  0
O  O413  1  0.23794609  0.77509232  0.64899742  1  -1.160082  0  -0.339861  -0.567122  0  2.202852  0
O  O414  1  0.73794895  0.27509334  0.85100457  1  -1.160144  0  -0.33992  -0.567133  0  2.20274  0
O  O415  1  0.76205143  0.22490467  0.35100484  1  -1.160216  0  -0.339839  -0.566995  0  2.202934  0
O  O416  1  0.58540507  0.32813089  0.20712506  1  -1.202691  0  -0.341044  -0.59646  0  2.380671  0
O  O417  1  0.91459400  0.17187043  0.70712270  1  -1.202679  0  -0.341012  -0.596428  0  2.38077  0
O  O418  1  0.41459478  0.67187013  0.79287493  1  -1.202723  0  -0.341044  -0.59647  0  2.380679  0
O  O419  1  0.08540700  0.82813326  0.29287321  1  -1.202483  0  -0.34107  -0.596501  0  2.380726  0
O  O420  1  0.73420798  0.41263087  0.21261008  1  -1.155563  0  -0.314756  -0.536411  0  2.255959  0
O  O421  1  0.76579112  0.08736911  0.71260922  1  -1.155585  0  -0.31476  -0.536386  0  2.255971  0
O  O422  1  0.26579195  0.58736748  0.78738946  1  -1.155548  0  -0.31475  -0.536424  0  2.255944  0
O  O423  1  0.23421050  0.91263459  0.28739122  1  -1.155618  0  -0.314756  -0.536405  0  2.255987  0
O  O424  1  0.59010168  0.64856980  0.98080234  1  -1.305514  0  -0.302939  -0.515832  0  2.218929  0
O  O425  1  0.90989831  0.85143139  0.48080113  1  -1.305595  0  -0.302852  -0.515702  0  2.219042  0
O  O426  1  0.40989785  0.35143188  0.01919856  1  -1.305561  0  -0.302859  -0.515759  0  2.219007  0
O  O427  1  0.09010008  0.14856761  0.51919796  1  -1.305581  0  -0.302915  -0.515784  0  2.219031  0
O  O428  1  0.71340514  0.76671755  0.04189580  1  -1.305312  0  -0.313946  -0.52655  0  2.198536  0
O  O429  1  0.78659395  0.73328493  0.54189500  1  -1.30528  0  -0.313937  -0.526571  0  2.198585  0
O  O430  1  0.28659467  0.23328480  0.95810419  1  -1.305285  0  -0.313956  -0.526573  0  2.198554  0
O  O431  1  0.21340468  0.26671607  0.45810499  1  -1.305243  0  -0.313933  -0.526538  0  2.198568  0
