# generated using pymatgen
data_Cu3MoH41C44S4N9O
_symmetry_space_group_name_H-M   'P 1'
_cell_length_a   9.94474054
_cell_length_b   17.55748076
_cell_length_c   26.62481910
_cell_angle_alpha   89.99998800
_cell_angle_beta   89.99994410
_cell_angle_gamma   101.03107527
_symmetry_Int_Tables_number   1
_chemical_formula_structural   Cu3MoH41C44S4N9O
_chemical_formula_sum   'Cu12 Mo4 H164 C176 S16 N36 O4'
_cell_volume   4562.92203221
_cell_formula_units_Z   4
loop_
 _symmetry_equiv_pos_site_id
 _symmetry_equiv_pos_as_xyz
  1  'x, y, z'
loop_
 _atom_site_type_symbol
 _atom_site_label
 _atom_site_symmetry_multiplicity
 _atom_site_fract_x
 _atom_site_fract_y
 _atom_site_fract_z
 _atom_site_occupancy
 _atom_site_pbe_bader_charge
 _atom_site_pbe_bader_spin_density
 _atom_site_pbe_cm5_charge
 _atom_site_pbe_ddec_charge
 _atom_site_pbe_ddec_spin_density
 _atom_site_pbe_ddec_sum_bond_order
 _atom_site_pbe_magmom
Cu  Cu0  1  0.75372802  0.17673353  0.58790844  1  0.639817  0  0.48667  0.405272  0  2.861773  0
Cu  Cu1  1  0.24627204  0.32326369  0.08790739  1  0.639796  0  0.486703  0.405361  0  2.861717  0
Cu  Cu2  1  0.24627176  0.82326466  0.41209247  1  0.639789  0  0.486676  0.405337  0  2.861759  0
Cu  Cu3  1  0.75372347  0.67673681  0.91209428  1  0.63969  0  0.486684  0.405312  0  2.861724  0
Cu  Cu4  1  0.11736547  0.17953470  0.54830078  1  0.603189  0  0.483203  0.306977  0  2.907431  0
Cu  Cu5  1  0.88263566  0.32046546  0.04829986  1  0.603186  0  0.483184  0.306943  0  2.907471  0
Cu  Cu6  1  0.88263531  0.82046350  0.45169788  1  0.603359  0  0.483217  0.307028  0  2.907411  0
Cu  Cu7  1  0.11736124  0.67953621  0.95169955  1  0.603242  0  0.483211  0.30702  0  2.907422  0
Cu  Cu8  1  0.05262607  0.29648274  0.65774604  1  0.602688  0  0.474378  0.312799  0  2.855297  0
Cu  Cu9  1  0.94737394  0.20351792  0.15774586  1  0.602681  0  0.474366  0.312772  0  2.855349  0
Cu  Cu10  1  0.94737730  0.70351721  0.34225375  1  0.602636  0  0.47437  0.31282  0  2.855276  0
Cu  Cu11  1  0.05262559  0.79648260  0.84225543  1  0.602679  0  0.474405  0.31283  0  2.855361  0
Mo  Mo12  1  0.97865727  0.14653788  0.63482065  1  1.6803  0  0.948556  1.111235  0  5.121633  0
Mo  Mo13  1  0.02134381  0.35346279  0.13481779  1  1.680608  0  0.948567  1.111267  0  5.121732  0
Mo  Mo14  1  0.02134830  0.85346265  0.36518027  1  1.680376  0  0.948594  1.111321  0  5.121634  0
Mo  Mo15  1  0.97864969  0.64653771  0.86518200  1  1.680535  0  0.948543  1.111203  0  5.121735  0
H  H16  1  0.13354623  0.01481344  0.55844771  1  0.096934  0  0.10807  0.081093  0  1.029994  0
H  H17  1  0.86645803  0.48519019  0.05844716  1  0.096857  0  0.10806  0.081091  0  1.029984  0
H  H18  1  0.86645638  0.98518418  0.44155133  1  0.096841  0  0.108075  0.081153  0  1.029884  0
H  H19  1  0.13354505  0.51481497  0.94155113  1  0.096862  0  0.108055  0.081095  0  1.02993  0
H  H20  1  0.30363436  0.93272336  0.54363589  1  0.070052  0  0.109852  0.117604  0  1.00018  0
H  H21  1  0.69636591  0.56727838  0.04363506  1  0.070011  0  0.109848  0.117613  0  1.000218  0
H  H22  1  0.69637404  0.06727660  0.45636503  1  0.070065  0  0.109843  0.117662  0  1.00026  0
H  H23  1  0.30362998  0.43272329  0.95636322  1  0.070032  0  0.10988  0.117694  0  1.000174  0
H  H24  1  0.55357443  0.12970984  0.46874486  1  0.094225  0  0.111865  0.11853  0  1.007209  0
H  H25  1  0.44642856  0.37029003  0.96874638  1  0.094111  0  0.111879  0.118537  0  1.00722  0
H  H26  1  0.44643234  0.87029127  0.53125493  1  0.09431  0  0.111867  0.118544  0  1.007223  0
H  H27  1  0.55356619  0.62970815  0.03125754  1  0.09432  0  0.111874  0.11852  0  1.00723  0
H  H28  1  0.37399539  0.20302458  0.48641975  1  0.087188  0  0.108639  0.075722  0  1.043717  0
H  H29  1  0.62600856  0.29697529  0.98642009  1  0.087263  0  0.108638  0.075716  0  1.043732  0
H  H30  1  0.62600836  0.79697653  0.51357816  1  0.087294  0  0.108636  0.075753  0  1.043723  0
H  H31  1  0.37399021  0.70302291  0.01358045  1  0.087255  0  0.108659  0.075709  0  1.043763  0
H  H32  1  0.32992445  0.80525396  0.80067125  1  0.1084  0  0.107638  0.091809  0  1.010073  0
H  H33  1  0.67008379  0.69474647  0.30067005  1  0.108391  0  0.107627  0.091764  0  1.010078  0
H  H34  1  0.67007854  0.19474483  0.19933004  1  0.108432  0  0.10766  0.091832  0  1.010126  0
H  H35  1  0.32992040  0.30525290  0.69933012  1  0.10837  0  0.107625  0.091757  0  1.010033  0
H  H36  1  0.48088107  0.88776981  0.73975813  1  0.071977  0  0.111746  0.120072  0  1.010217  0
H  H37  1  0.51912475  0.61222891  0.23976000  1  0.072067  0  0.111742  0.120082  0  1.010267  0
H  H38  1  0.51912513  0.11222956  0.26024242  1  0.072038  0  0.111758  0.120086  0  1.01027  0
H  H39  1  0.48087781  0.38777162  0.76024017  1  0.072008  0  0.111734  0.120069  0  1.010277  0
H  H40  1  0.12491778  0.97674359  0.69055222  1  0.115071  0  0.107345  0.125775  0  1.026282  0
H  H41  1  0.87508012  0.52325514  0.19054946  1  0.115053  0  0.107293  0.125659  0  1.026355  0
H  H42  1  0.87508257  0.02325634  0.30944907  1  0.115019  0  0.107321  0.125713  0  1.02629  0
H  H43  1  0.12492124  0.47674480  0.80944770  1  0.115124  0  0.107334  0.125768  0  1.026257  0
H  H44  1  0.99011382  0.89068474  0.75367399  1  0.085868  0  0.112552  0.080187  0  1.029542  0
H  H45  1  0.00989397  0.60931397  0.25366929  1  0.08578  0  0.112581  0.080238  0  1.029449  0
H  H46  1  0.00989018  0.10931404  0.24632805  1  0.085832  0  0.112573  0.080219  0  1.029483  0
H  H47  1  0.99011146  0.39068308  0.74632899  1  0.085869  0  0.112558  0.080205  0  1.029478  0
H  H48  1  0.29584983  0.08771409  0.67764774  1  0.118123  0  0.1043  0.11546  0  1.033938  0
H  H49  1  0.70414778  0.41228249  0.17764612  1  0.117934  0  0.104325  0.115501  0  1.033876  0
H  H50  1  0.70415095  0.91228411  0.32235356  1  0.118128  0  0.104329  0.115502  0  1.033871  0
H  H51  1  0.29585075  0.58771802  0.82235104  1  0.118049  0  0.104294  0.11546  0  1.033896  0
H  H52  1  0.46417202  0.17222710  0.62324620  1  0.097863  0  0.110589  0.093975  0  0.990803  0
H  H53  1  0.53582487  0.32777300  0.12324429  1  0.097901  0  0.110589  0.093943  0  0.990838  0
H  H54  1  0.53582569  0.82777399  0.37675471  1  0.097921  0  0.110576  0.093948  0  0.990847  0
H  H55  1  0.46417140  0.67222983  0.87675363  1  0.097856  0  0.110581  0.093948  0  0.990822  0
H  H56  1  0.69760492  0.00217779  0.60607497  1  0.09857  0  0.10344  0.077409  0  1.03566  0
H  H57  1  0.30239327  0.49782000  0.10607688  1  0.098573  0  0.103476  0.07744  0  1.035656  0
H  H58  1  0.30239625  0.99782157  0.39392519  1  0.09854  0  0.103455  0.07743  0  1.035742  0
H  H59  1  0.69760727  0.50218052  0.89392441  1  0.098583  0  0.10345  0.077395  0  1.03567  0
H  H60  1  0.53890495  0.90906715  0.65908001  1  0.086621  0  0.109256  0.119706  0  1.017802  0
H  H61  1  0.46109006  0.59092870  0.15908228  1  0.086656  0  0.109268  0.119755  0  1.017807  0
H  H62  1  0.46109401  0.09093163  0.34092016  1  0.086643  0  0.109248  0.11973  0  1.017846  0
H  H63  1  0.53891230  0.40907124  0.84091676  1  0.086651  0  0.109254  0.119701  0  1.017834  0
H  H64  1  0.29933441  0.33233209  0.51831631  1  0.11065  0  0.10926  0.079994  0  1.03167  0
H  H65  1  0.70066719  0.16766925  0.01831548  1  0.110663  0  0.109244  0.079963  0  1.03177  0
H  H66  1  0.70066537  0.66766611  0.48168310  1  0.110716  0  0.109282  0.080008  0  1.031665  0
H  H67  1  0.29933815  0.83233360  0.98168469  1  0.110499  0  0.109311  0.080045  0  1.031712  0
H  H68  1  0.26801060  0.45009797  0.47246623  1  0.10928  0  0.114771  0.12708  0  0.994574  0
H  H69  1  0.73198553  0.04990246  0.97246619  1  0.109244  0  0.114767  0.127037  0  0.994657  0
H  H70  1  0.73198535  0.54990080  0.52753393  1  0.10922  0  0.114788  0.127058  0  0.994646  0
H  H71  1  0.26801660  0.95009980  0.02753398  1  0.109195  0  0.114782  0.127055  0  0.994621  0
H  H72  1  0.84988116  0.33456806  0.44265485  1  0.124006  0  0.100596  0.105114  0  1.063935  0
H  H73  1  0.15011548  0.16543066  0.94265350  1  0.124027  0  0.100615  0.105085  0  1.064011  0
H  H74  1  0.15011541  0.66542955  0.55734494  1  0.124054  0  0.100639  0.105141  0  1.063958  0
H  H75  1  0.84988626  0.83457044  0.05734591  1  0.124104  0  0.100624  0.105106  0  1.063971  0
H  H76  1  0.90126733  0.22026447  0.48759036  1  0.123938  0  0.104565  0.083404  0  1.026176  0
H  H77  1  0.09873259  0.27973538  0.98758902  1  0.123947  0  0.104564  0.083409  0  1.026152  0
H  H78  1  0.09873025  0.77973314  0.51240905  1  0.123994  0  0.10457  0.083426  0  1.02622  0
H  H79  1  0.90127437  0.72026631  0.01241152  1  0.12415  0  0.104584  0.08345  0  1.026173  0
H  H80  1  0.18621150  0.55585617  0.46587352  1  0.096382  0  0.105089  0.111503  0  1.031377  0
H  H81  1  0.81378640  0.94414470  0.96587378  1  0.096384  0  0.1051  0.111518  0  1.031346  0
H  H82  1  0.81379129  0.44414204  0.53412589  1  0.096366  0  0.1051  0.111488  0  1.031413  0
H  H83  1  0.18621126  0.05585929  0.03412526  1  0.096362  0  0.105079  0.111448  0  1.031428  0
H  H84  1  0.13000249  0.66887347  0.42154158  1  0.119667  0  0.103195  0.070673  0  1.076673  0
H  H85  1  0.86999554  0.83112743  0.92154145  1  0.119658  0  0.103216  0.070732  0  1.076641  0
H  H86  1  0.86999647  0.33112531  0.57845934  1  0.11962  0  0.103253  0.070762  0  1.076619  0
H  H87  1  0.13000074  0.16887540  0.07845909  1  0.119622  0  0.103254  0.07076  0  1.076617  0
H  H88  1  0.81133401  0.53210060  0.34324572  1  0.089362  0  0.114408  0.086022  0  1.015195  0
H  H89  1  0.18866404  0.96789977  0.84324470  1  0.089363  0  0.114412  0.086035  0  1.015216  0
H  H90  1  0.18865948  0.46789991  0.65675558  1  0.089427  0  0.114458  0.086033  0  1.015141  0
H  H91  1  0.81133794  0.03209901  0.15675546  1  0.089407  0  0.114405  0.085993  0  1.01522  0
H  H92  1  0.85497341  0.41240412  0.38323773  1  0.09073  0  0.106885  0.115999  0  1.047641  0
H  H93  1  0.14502315  0.08759695  0.88323602  1  0.091221  0  0.106891  0.116047  0  1.047602  0
H  H94  1  0.14501927  0.58759696  0.61676394  1  0.091293  0  0.106904  0.116054  0  1.047616  0
H  H95  1  0.85497902  0.91240241  0.11676340  1  0.091246  0  0.106902  0.116073  0  1.047576  0
H  H96  1  0.13778376  0.82318040  0.21736178  1  0.432006  0  0.285167  0.277788  0  0.991546  0
H  H97  1  0.86221627  0.67681890  0.71736242  1  0.432004  0  0.285156  0.27773  0  0.991595  0
H  H98  1  0.86221655  0.17682244  0.78263876  1  0.432141  0  0.285163  0.277697  0  0.991585  0
H  H99  1  0.13778446  0.32318220  0.28263624  1  0.432056  0  0.285132  0.277695  0  0.991645  0
H  H100  1  0.07438503  0.88253113  0.25690234  1  0.457823  0  0.280749  0.278209  0  1.010487  0
H  H101  1  0.92561389  0.61746814  0.75690296  1  0.457805  0  0.280723  0.278178  0  1.010521  0
H  H102  1  0.92561307  0.11747112  0.74309783  1  0.457858  0  0.280747  0.278211  0  1.010525  0
H  H103  1  0.07438785  0.38253296  0.24309570  1  0.457717  0  0.280795  0.278343  0  1.01041  0
H  H104  1  0.00049856  0.74518811  0.15538055  1  0.076811  0  0.093584  0.1058  0  1.043193  0
H  H105  1  0.99949800  0.75481239  0.65538188  1  0.076965  0  0.093582  0.105803  0  1.04319  0
H  H106  1  0.99950073  0.25481473  0.84461887  1  0.076787  0  0.093576  0.105802  0  1.043183  0
H  H107  1  0.00050418  0.24518698  0.34461679  1  0.076947  0  0.093576  0.105793  0  1.04319  0
H  H108  1  0.76931646  0.70191027  0.11934298  1  0.047407  0  0.092603  0.089728  0  0.996456  0
H  H109  1  0.23068001  0.79808967  0.61934497  1  0.047142  0  0.092551  0.089614  0  0.996521  0
H  H110  1  0.23068365  0.29809199  0.88065569  1  0.047096  0  0.092576  0.089653  0  0.996504  0
H  H111  1  0.76932379  0.20190854  0.38065558  1  0.047442  0  0.092528  0.08958  0  0.99648  0
H  H112  1  0.57499173  0.76427999  0.14566206  1  0.080254  0  0.08665  0.087006  0  1.063442  0
H  H113  1  0.42500547  0.73571936  0.64566098  1  0.080273  0  0.086638  0.086967  0  1.063438  0
H  H114  1  0.42500742  0.23571937  0.85433811  1  0.080274  0  0.086653  0.086979  0  1.063405  0
H  H115  1  0.57499833  0.26427885  0.35433844  1  0.080309  0  0.086642  0.087  0  1.063431  0
H  H116  1  0.61557336  0.86877461  0.21094850  1  0.047054  0  0.093579  0.089454  0  1.016132  0
H  H117  1  0.38442122  0.63122643  0.71094745  1  0.047127  0  0.093599  0.089472  0  1.01618  0
H  H118  1  0.38442196  0.13122532  0.78905167  1  0.04711  0  0.093614  0.08951  0  1.016111  0
H  H119  1  0.61557831  0.36877409  0.28905272  1  0.047111  0  0.093592  0.08945  0  1.016182  0
H  H120  1  0.84748593  0.91212377  0.24697199  1  0.045309  0  0.091914  0.100141  0  1.048935  0
H  H121  1  0.15251258  0.58787725  0.74697253  1  0.045327  0  0.091859  0.100046  0  1.048871  0
H  H122  1  0.15251016  0.08787848  0.75302781  1  0.045341  0  0.091889  0.100107  0  1.048941  0
H  H123  1  0.84748715  0.41212385  0.25302802  1  0.045305  0  0.091874  0.100092  0  1.048913  0
H  H124  1  0.90991644  0.90847128  0.55994274  1  0.440052  0  0.287232  0.281709  0  0.983686  0
H  H125  1  0.09008321  0.59152871  0.05994214  1  0.440023  0  0.287211  0.28167  0  0.983679  0
H  H126  1  0.09008611  0.09152925  0.44005668  1  0.440053  0  0.287221  0.281688  0  0.983714  0
H  H127  1  0.90991470  0.40847296  0.94005652  1  0.440063  0  0.287211  0.281682  0  0.983673  0
H  H128  1  0.93267131  0.97365602  0.60758850  1  0.432559  0  0.274446  0.268064  0  1.037185  0
H  H129  1  0.06732979  0.52634568  0.10758754  1  0.432611  0  0.274479  0.268059  0  1.037244  0
H  H130  1  0.06733345  0.02634509  0.39241317  1  0.432593  0  0.274458  0.268057  0  1.037241  0
H  H131  1  0.93266630  0.47365657  0.89241112  1  0.432528  0  0.274434  0.267984  0  1.03726  0
H  H132  1  0.80201055  0.77416321  0.57144106  1  0.037383  0  0.092448  0.097599  0  1.067744  0
H  H133  1  0.19798461  0.72583850  0.07144116  1  0.037327  0  0.092458  0.097615  0  1.067722  0
H  H134  1  0.19798554  0.22583904  0.42855760  1  0.037404  0  0.092467  0.097638  0  1.067703  0
H  H135  1  0.80201248  0.27416375  0.92855901  1  0.037368  0  0.092464  0.097612  0  1.067765  0
H  H136  1  0.66028352  0.67739489  0.62566494  1  0.062666  0  0.096042  0.092927  0  1.033152  0
H  H137  1  0.33970948  0.82260678  0.12566422  1  0.062939  0  0.096012  0.092878  0  1.033209  0
H  H138  1  0.33971036  0.32260678  0.37433335  1  0.062637  0  0.095997  0.092876  0  1.0332  0
H  H139  1  0.66029288  0.17739317  0.87433445  1  0.062998  0  0.095986  0.092868  0  1.03318  0
H  H140  1  0.61560929  0.71004735  0.71550217  1  0.045374  0  0.093649  0.095981  0  1.017923  0
H  H141  1  0.38438869  0.78995485  0.21550069  1  0.045385  0  0.093664  0.096  0  1.017943  0
H  H142  1  0.38438963  0.28995433  0.28449762  1  0.045351  0  0.093644  0.095961  0  1.01795  0
H  H143  1  0.61561631  0.21004394  0.78449760  1  0.045325  0  0.09363  0.095934  0  1.018028  0
H  H144  1  0.71219134  0.84327953  0.74735926  1  0.069014  0  0.092425  0.093527  0  1.034509  0
H  H145  1  0.28780937  0.65672208  0.24735746  1  0.06912  0  0.092438  0.09358  0  1.034458  0
H  H146  1  0.28781021  0.15672100  0.25264165  1  0.069049  0  0.092405  0.09352  0  1.034508  0
H  H147  1  0.71219117  0.34327844  0.75264121  1  0.06905  0  0.092418  0.093505  0  1.034481  0
H  H148  1  0.84895286  0.94097710  0.69197257  1  0.080319  0  0.096361  0.115649  0  1.032944  0
H  H149  1  0.15104983  0.55902396  0.19197120  1  0.080372  0  0.096399  0.115658  0  1.032967  0
H  H150  1  0.15105253  0.05902285  0.30802760  1  0.080331  0  0.096365  0.115603  0  1.032979  0
H  H151  1  0.84894606  0.44097771  0.80802747  1  0.080329  0  0.096408  0.115714  0  1.032898  0
H  H152  1  0.84838789  0.92878695  0.81542693  1  0.413224  0  0.28718  0.272604  0  0.992805  0
H  H153  1  0.15160257  0.57121458  0.31542593  1  0.413142  0  0.287203  0.272595  0  0.992844  0
H  H154  1  0.15161409  0.07121183  0.18457286  1  0.413263  0  0.287146  0.272558  0  0.992866  0
H  H155  1  0.84839256  0.42878477  0.68457311  1  0.413135  0  0.287214  0.272607  0  0.992859  0
H  H156  1  0.83826411  0.02133668  0.79971081  1  0.47607  0  0.279266  0.275888  0  1.01751  0
H  H157  1  0.16172702  0.47866560  0.29970902  1  0.476045  0  0.279242  0.275812  0  1.017552  0
H  H158  1  0.16173447  0.97866093  0.20028898  1  0.476043  0  0.279256  0.275897  0  1.017496  0
H  H159  1  0.83827093  0.52133317  0.70029002  1  0.476071  0  0.27925  0.275806  0  1.017593  0
H  H160  1  0.66280437  0.84046584  0.85712791  1  0.060727  0  0.087882  0.107194  0  1.033954  0
H  H161  1  0.33718880  0.65953509  0.35712721  1  0.060657  0  0.087917  0.107278  0  1.034011  0
H  H162  1  0.33719785  0.15953063  0.14287188  1  0.060829  0  0.087874  0.107231  0  1.033893  0
H  H163  1  0.66280451  0.34046483  0.64287296  1  0.06069  0  0.087924  0.107296  0  1.033968  0
H  H164  1  0.45827057  0.83258188  0.91060324  1  0.051669  0  0.086731  0.09042  0  1.026912  0
H  H165  1  0.54172131  0.66741553  0.41060284  1  0.051826  0  0.086682  0.090278  0  1.026942  0
H  H166  1  0.54172983  0.16741516  0.08939618  1  0.051716  0  0.086731  0.090433  0  1.026877  0
H  H167  1  0.45827138  0.33258555  0.58939808  1  0.051759  0  0.086678  0.090331  0  1.026941  0
H  H168  1  0.34700788  0.94780269  0.92141610  1  0.047184  0  0.086185  0.085198  0  1.047923  0
H  H169  1  0.65298277  0.55219413  0.42141417  1  0.04734  0  0.086184  0.085212  0  1.047822  0
H  H170  1  0.65299252  0.05219435  0.07858445  1  0.047185  0  0.086181  0.08519  0  1.047906  0
H  H171  1  0.34701231  0.44780812  0.57858638  1  0.04753  0  0.086215  0.085272  0  1.047851  0
H  H172  1  0.44020540  0.06978440  0.87502633  1  0.06415  0  0.089997  0.092272  0  1.025118  0
H  H173  1  0.55978558  0.43021493  0.37502214  1  0.064107  0  0.09001  0.092257  0  1.025101  0
H  H174  1  0.55979740  0.93021380  0.12497534  1  0.06407  0  0.090038  0.09233  0  1.025177  0
H  H175  1  0.44021453  0.56978733  0.62497765  1  0.064072  0  0.090055  0.092293  0  1.025134  0
H  H176  1  0.64499181  0.07740696  0.82023268  1  0.013946  0  0.094081  0.100729  0  1.038723  0
H  H177  1  0.35500027  0.42259531  0.32022856  1  0.014319  0  0.094104  0.100797  0  1.038772  0
H  H178  1  0.35501060  0.92259009  0.17976862  1  0.014236  0  0.094102  0.100796  0  1.038671  0
H  H179  1  0.64500046  0.57740579  0.67977048  1  0.014297  0  0.094108  0.100798  0  1.03873  0
C  C180  1  0.63649136  0.28576889  0.51553877  1  0.512705  0  0.135392  0.260788  0  4.349583  0
C  C181  1  0.36351595  0.21422840  0.01553880  1  0.512671  0  0.135355  0.260698  0  4.349474  0
C  C182  1  0.36350827  0.71422582  0.48446253  1  0.512614  0  0.135469  0.260951  0  4.349283  0
C  C183  1  0.63649020  0.78577387  0.98446474  1  0.512613  0  0.135359  0.260673  0  4.349486  0
C  C184  1  0.22824590  0.03789885  0.53846296  1  0.478027  0  0.035561  0.090341  0  3.94646  0
C  C185  1  0.77175865  0.46210248  0.03846131  1  0.478011  0  0.035553  0.090365  0  3.946415  0
C  C186  1  0.77176173  0.96209879  0.46153721  1  0.477963  0  0.035566  0.090393  0  3.946446  0
C  C187  1  0.22823983  0.53790093  0.96153773  1  0.478019  0  0.035575  0.090419  0  3.946442  0
C  C188  1  0.32497236  0.99220988  0.53001137  1  0.057097  0  -0.08036  -0.148006  0  3.934458  0
C  C189  1  0.67502996  0.50779187  0.03001207  1  0.057036  0  -0.080391  -0.148119  0  3.934389  0
C  C190  1  0.67503585  0.00778950  0.46998729  1  0.057327  0  -0.080385  -0.148249  0  3.934612  0
C  C191  1  0.32496714  0.49221038  0.96998622  1  0.057103  0  -0.080401  -0.148212  0  3.934455  0
C  C192  1  0.44679123  0.02310989  0.50449386  1  -0.079005  0  0.01288  0.098782  0  3.970849  0
C  C193  1  0.55320858  0.47689204  0.00449417  1  -0.078726  0  0.012892  0.098867  0  3.970582  0
C  C194  1  0.55321794  0.97689239  0.49550631  1  -0.037796  0  0.012914  0.098877  0  3.970762  0
C  C195  1  0.44678228  0.52310962  0.99550637  1  -0.03765  0  0.012947  0.098861  0  3.970777  0
C  C196  1  0.46233908  0.10037241  0.48831759  1  -0.052275  0  -0.073576  -0.149805  0  3.925187  0
C  C197  1  0.53766222  0.39962861  0.98831758  1  -0.05246  0  -0.07358  -0.149808  0  3.925178  0
C  C198  1  0.53766668  0.89962870  0.51168333  1  -0.052392  0  -0.073559  -0.149768  0  3.925131  0
C  C199  1  0.46233329  0.60037190  0.01168447  1  -0.052381  0  -0.073565  -0.149765  0  3.925262  0
C  C200  1  0.36106678  0.14256555  0.49822153  1  0.54132  0  0.043135  0.096502  0  3.92784  0
C  C201  1  0.63893330  0.35743487  0.99822261  1  0.541468  0  0.043096  0.096427  0  3.927859  0
C  C202  1  0.63893357  0.85743438  0.50177601  1  0.541012  0  0.043145  0.096399  0  3.927859  0
C  C203  1  0.36106504  0.64256506  0.00177869  1  0.541226  0  0.043114  0.096504  0  3.927986  0
C  C204  1  0.28876254  0.84382292  0.77533737  1  0.500648  0  0.048435  0.106094  0  3.918666  0
C  C205  1  0.71123834  0.65617635  0.27533616  1  0.500856  0  0.04846  0.106136  0  3.918617  0
C  C206  1  0.71123480  0.15617701  0.22466392  1  0.500899  0  0.048453  0.106066  0  3.918539  0
C  C207  1  0.28876062  0.34382243  0.72466363  1  0.500939  0  0.048484  0.106192  0  3.918658  0
C  C208  1  0.37212893  0.88972271  0.74096304  1  0.009782  0  -0.073546  -0.155737  0  3.922916  0
C  C209  1  0.62787108  0.61027368  0.24096336  1  0.009737  0  -0.073649  -0.155785  0  3.923055  0
C  C210  1  0.62787065  0.11027491  0.25903788  1  0.009762  0  -0.073633  -0.155722  0  3.922973  0
C  C211  1  0.37213071  0.38972453  0.75903530  1  0.009716  0  -0.073565  -0.155701  0  3.922973  0
C  C212  1  0.31613166  0.93997626  0.70974180  1  -0.026716  0  0.011477  0.099492  0  3.983773  0
C  C213  1  0.68386479  0.56002129  0.20973911  1  -0.026672  0  0.011547  0.09945  0  3.98417  0
C  C214  1  0.68386610  0.06002193  0.29026137  1  -0.026831  0  0.011491  0.099375  0  3.984018  0
C  C215  1  0.31613618  0.43997749  0.79025806  1  -0.026473  0  0.011486  0.099448  0  3.98408  0
C  C216  1  0.17573600  0.94023702  0.71427031  1  -0.034636  0  -0.079835  -0.164531  0  3.921224  0
C  C217  1  0.82426245  0.55976054  0.21426906  1  -0.034452  0  -0.07977  -0.164348  0  3.921313  0
C  C218  1  0.82426535  0.05976292  0.28573061  1  -0.034227  0  -0.079785  -0.164372  0  3.92119  0
C  C219  1  0.17573890  0.44023941  0.78572998  1  -0.034457  0  -0.079823  -0.164555  0  3.921329  0
C  C220  1  0.09958432  0.89224324  0.74963920  1  0.443749  0  0.04167  0.086669  0  3.948556  0
C  C221  1  0.90042084  0.60775663  0.24963530  1  0.443429  0  0.041643  0.086638  0  3.948465  0
C  C222  1  0.90042005  0.10775670  0.25036359  1  0.443363  0  0.041726  0.086707  0  3.948466  0
C  C223  1  0.09958334  0.39224274  0.75036337  1  0.443412  0  0.041741  0.086798  0  3.948475  0
C  C224  1  0.40467180  0.99094049  0.67434023  1  0.044166  0  0.011582  0.104773  0  3.979103  0
C  C225  1  0.59531814  0.50905533  0.17434208  1  0.044386  0  0.011543  0.104784  0  3.979488  0
C  C226  1  0.59532376  0.00905712  0.32565844  1  0.044202  0  0.011602  0.10485  0  3.979317  0
C  C227  1  0.40468039  0.49094518  0.82565584  1  0.044249  0  0.011486  0.104708  0  3.97936  0
C  C228  1  0.38288083  0.06559935  0.66259372  1  -0.040506  0  -0.082217  -0.169807  0  3.924261  0
C  C229  1  0.61711860  0.43439956  0.16259214  1  -0.04033  0  -0.082202  -0.16984  0  3.924162  0
C  C230  1  0.61712072  0.93440117  0.33740870  1  -0.040535  0  -0.082263  -0.169898  0  3.924158  0
C  C231  1  0.38288012  0.56560153  0.83740465  1  -0.040554  0  -0.082152  -0.169773  0  3.924149  0
C  C232  1  0.47719505  0.11345298  0.63235462  1  0.437403  0  0.041748  0.100148  0  3.93424  0
C  C233  1  0.52280187  0.38654421  0.13235458  1  0.437428  0  0.04174  0.100233  0  3.934089  0
C  C234  1  0.52280372  0.88654521  0.36764554  1  0.43744  0  0.04178  0.100217  0  3.934082  0
C  C235  1  0.47719547  0.61345572  0.86764483  1  0.437512  0  0.041769  0.100246  0  3.93409  0
C  C236  1  0.60703249  0.01860732  0.62278158  1  0.429785  0  0.038344  0.088962  0  3.96768  0
C  C237  1  0.39296082  0.48139102  0.12278346  1  0.430594  0  0.038406  0.089141  0  3.967676  0
C  C238  1  0.39296202  0.98139318  0.37721859  1  0.429564  0  0.038424  0.08915  0  3.967479  0
C  C239  1  0.60704030  0.51861124  0.87721446  1  0.430574  0  0.038421  0.089212  0  3.967591  0
C  C240  1  0.51823076  0.96699175  0.65252785  1  0.00082  0  -0.08108  -0.167737  0  3.926414  0
C  C241  1  0.48176787  0.53300585  0.15252674  1  -0.000369  0  -0.081178  -0.167948  0  3.926738  0
C  C242  1  0.48177280  0.03300878  0.34747532  1  0.00083  0  -0.08119  -0.167994  0  3.926475  0
C  C243  1  0.51822927  0.46699350  0.84747380  1  -0.000228  0  -0.081137  -0.167877  0  3.926591  0
C  C244  1  0.20102607  0.33509537  0.50096297  1  0.441013  0  0.04137  0.088086  0  3.937899  0
C  C245  1  0.79897399  0.16490424  0.00096248  1  0.440712  0  0.041375  0.088098  0  3.93809  0
C  C246  1  0.79897088  0.66490340  0.49903682  1  0.44078  0  0.041377  0.088113  0  3.9378  0
C  C247  1  0.20103058  0.83509629  0.99903769  1  0.441022  0  0.041291  0.088037  0  3.938016  0
C  C248  1  0.18241738  0.40120135  0.47539585  1  -0.047111  0  -0.074364  -0.156725  0  3.905046  0
C  C249  1  0.81757773  0.09879909  0.97539464  1  -0.046976  0  -0.074331  -0.15664  0  3.905005  0
C  C250  1  0.81757856  0.59879742  0.52460394  1  -0.04695  0  -0.074352  -0.156698  0  3.904936  0
C  C251  1  0.18242401  0.90120202  0.02460365  1  -0.047031  0  -0.074321  -0.156656  0  3.904999  0
C  C252  1  0.05458299  0.40330767  0.45357037  1  0.020713  0  0.014762  0.107821  0  3.960984  0
C  C253  1  0.94541683  0.09669163  0.95357174  1  0.02061  0  0.014746  0.107783  0  3.960761  0
C  C254  1  0.94541458  0.59668995  0.54642867  1  0.021048  0  0.014758  0.107863  0  3.960907  0
C  C255  1  0.05458874  0.90330890  0.04642880  1  0.02069  0  0.014778  0.107826  0  3.961022  0
C  C256  1  0.95236990  0.33642485  0.45753981  1  -0.001397  0  -0.076642  -0.154214  0  3.930526  0
C  C257  1  0.04762665  0.16357675  0.95753738  1  -0.001369  0  -0.076645  -0.154179  0  3.930585  0
C  C258  1  0.04762705  0.66357392  0.54246073  1  0.000571  0  -0.076721  -0.154282  0  3.930665  0
C  C259  1  0.95237667  0.83642609  0.04246204  1  0.000529  0  -0.076715  -0.154217  0  3.930845  0
C  C260  1  0.97959029  0.27247015  0.48307238  1  0.423592  0  0.038827  0.090703  0  3.936875  0
C  C261  1  0.02040882  0.22753028  0.98307183  1  0.423562  0  0.038827  0.090712  0  3.937034  0
C  C262  1  0.02040948  0.72752804  0.51692704  1  0.421619  0  0.038838  0.090657  0  3.936986  0
C  C263  1  0.97959512  0.77247140  0.01692872  1  0.421524  0  0.038803  0.090604  0  3.937119  0
C  C264  1  0.02562118  0.47293966  0.42838373  1  -0.041705  0  0.012424  0.10328  0  3.959777  0
C  C265  1  0.97437324  0.02706138  0.92838246  1  -0.041607  0  0.01242  0.103298  0  3.959629  0
C  C266  1  0.97437615  0.52706027  0.57161644  1  -0.042008  0  0.012377  0.103141  0  3.959834  0
C  C267  1  0.02562467  0.97294029  0.07161620  1  -0.04158  0  0.012374  0.103195  0  3.959813  0
C  C268  1  0.10231730  0.54689549  0.43883486  1  -0.017074  0  -0.077012  -0.153727  0  3.91681  0
C  C269  1  0.89768049  0.95310481  0.93883395  1  -0.01706  0  -0.077053  -0.153767  0  3.916754  0
C  C270  1  0.89767965  0.45310328  0.56116606  1  -0.017053  0  -0.077057  -0.153651  0  3.916926  0
C  C271  1  0.10231622  0.04689628  0.06116471  1  -0.016993  0  -0.077018  -0.153628  0  3.916848  0
C  C272  1  0.07077243  0.61097348  0.41439901  1  0.485699  0  0.037977  0.092268  0  3.934909  0
C  C273  1  0.92922826  0.88902627  0.91439998  1  0.485721  0  0.037982  0.092216  0  3.934861  0
C  C274  1  0.92922634  0.38902472  0.58560003  1  0.485669  0  0.037946  0.092159  0  3.934947  0
C  C275  1  0.07077267  0.11097541  0.08560094  1  0.485648  0  0.03795  0.092165  0  3.934765  0
C  C276  1  0.89361641  0.53480304  0.37059011  1  0.42487  0  0.038941  0.080824  0  3.952895  0
C  C277  1  0.10638119  0.96519615  0.87058913  1  0.424922  0  0.038935  0.080798  0  3.952751  0
C  C278  1  0.10637733  0.46519515  0.62941156  1  0.425014  0  0.03889  0.080806  0  3.952716  0
C  C279  1  0.89362075  0.03480553  0.12941104  1  0.424671  0  0.038928  0.080813  0  3.952708  0
C  C280  1  0.91804512  0.46792250  0.39358895  1  0.054926  0  -0.076759  -0.157635  0  3.915372  0
C  C281  1  0.08195223  0.03207799  0.89358803  1  0.054348  0  -0.076817  -0.157775  0  3.915396  0
C  C282  1  0.08195202  0.53207685  0.60641196  1  0.05431  0  -0.076824  -0.157772  0  3.915441  0
C  C283  1  0.91804970  0.96792369  0.10641214  1  0.05439  0  -0.076827  -0.157786  0  3.915385  0
C  C284  1  0.94021234  0.83247171  0.20322895  1  0.37825  0  0.086115  0.292715  0  4.069522  0
C  C285  1  0.05978686  0.66753108  0.70323027  1  0.378232  0  0.086169  0.292691  0  4.069522  0
C  C286  1  0.05978230  0.16753227  0.79677046  1  0.378228  0  0.08617  0.292744  0  4.069491  0
C  C287  1  0.94021488  0.33247002  0.29676990  1  0.378229  0  0.086157  0.292705  0  4.069493  0
C  C288  1  0.91612723  0.77246729  0.16740111  1  0.024053  0  -0.111276  -0.203258  0  3.954119  0
C  C289  1  0.08386954  0.72753087  0.66740016  1  0.023849  0  -0.111295  -0.203266  0  3.954118  0
C  C290  1  0.08387332  0.22753323  0.83260018  1  0.024022  0  -0.111331  -0.203345  0  3.954155  0
C  C291  1  0.91613302  0.27246965  0.33259926  1  0.023836  0  -0.11123  -0.203174  0  3.954017  0
C  C292  1  0.78558545  0.74839547  0.14722748  1  -0.162792  0  -0.101167  -0.069463  0  4.074811  0
C  C293  1  0.21441358  0.75160329  0.64722760  1  -0.162508  0  -0.101144  -0.069368  0  4.074834  0
C  C294  1  0.21441773  0.25160389  0.85277194  1  -0.162503  0  -0.101171  -0.06939  0  4.074869  0
C  C295  1  0.78558682  0.24839375  0.35276994  1  -0.16247  0  -0.101195  -0.069437  0  4.074725  0
C  C296  1  0.67623549  0.78281894  0.16203924  1  -0.085572  0  -0.121872  -0.149448  0  4.084752  0
C  C297  1  0.32376186  0.71718097  0.66203970  1  -0.085606  0  -0.121838  -0.149323  0  4.08479  0
C  C298  1  0.32376246  0.21717983  0.83795980  1  -0.085558  0  -0.121895  -0.149389  0  4.084714  0
C  C299  1  0.67624108  0.28282072  0.33796121  1  -0.085866  0  -0.121816  -0.149347  0  4.084654  0
C  C300  1  0.69944027  0.84131366  0.19847742  1  -0.057263  0  -0.103645  -0.077531  0  4.07026  0
C  C301  1  0.30055517  0.65868681  0.69847714  1  -0.057211  0  -0.103633  -0.077602  0  4.070518  0
C  C302  1  0.30055266  0.15868511  0.80152200  1  -0.05718  0  -0.103694  -0.077696  0  4.070423  0
C  C303  1  0.69944562  0.34131139  0.30152077  1  -0.056748  0  -0.10365  -0.07757  0  4.07042  0
C  C304  1  0.82945978  0.86599984  0.21895866  1  -0.0543  0  -0.11514  -0.217052  0  3.985451  0
C  C305  1  0.17053761  0.63400061  0.71895806  1  -0.054317  0  -0.115095  -0.216918  0  3.985383  0
C  C306  1  0.17053334  0.13399950  0.78104226  1  -0.054331  0  -0.115059  -0.216932  0  3.985412  0
C  C307  1  0.82946332  0.36600107  0.28104173  1  -0.054791  0  -0.115113  -0.217006  0  3.98543  0
C  C308  1  0.83795529  0.86395832  0.62794697  1  0.395305  0  0.087946  0.300344  0  4.081883  0
C  C309  1  0.16204010  0.63604451  0.12794597  1  0.395872  0  0.087948  0.300277  0  4.08201  0
C  C310  1  0.16204238  0.13604567  0.37205207  1  0.395794  0  0.087912  0.300236  0  4.082193  0
C  C311  1  0.83795498  0.36395774  0.87205270  1  0.395284  0  0.087889  0.300173  0  4.081912  0
C  C312  1  0.78180778  0.78920063  0.60998856  1  -0.072682  0  -0.116531  -0.218408  0  3.986111  0
C  C313  1  0.21819269  0.71080223  0.10998715  1  -0.072641  0  -0.116545  -0.218425  0  3.986064  0
C  C314  1  0.21819636  0.21080164  0.39001124  1  -0.072441  0  -0.116563  -0.218525  0  3.986065  0
C  C315  1  0.78180704  0.28919887  0.89001152  1  -0.072684  0  -0.116518  -0.218397  0  3.986028  0
C  C316  1  0.70271314  0.73448308  0.64105395  1  -0.04503  0  -0.098985  -0.071177  0  4.05987  0
C  C317  1  0.29728283  0.76551858  0.14105326  1  -0.045232  0  -0.098971  -0.071108  0  4.059789  0
C  C318  1  0.29728596  0.26551917  0.35894434  1  -0.045262  0  -0.09893  -0.071006  0  4.059752  0
C  C319  1  0.70271671  0.23448194  0.85894541  1  -0.045432  0  -0.09896  -0.071104  0  4.05982  0
C  C320  1  0.67809816  0.75246765  0.69102950  1  -0.035436  0  -0.120404  -0.147292  0  4.070725  0
C  C321  1  0.32189969  0.74753398  0.19102805  1  -0.035667  0  -0.120435  -0.147345  0  4.070799  0
C  C322  1  0.32190037  0.24753286  0.30896916  1  -0.035452  0  -0.120405  -0.147297  0  4.07088  0
C  C323  1  0.67810186  0.25246654  0.80897061  1  -0.035391  0  -0.120376  -0.147235  0  4.070882  0
C  C324  1  0.73175625  0.82707104  0.70885834  1  -0.119298  0  -0.102327  -0.07944  0  4.069074  0
C  C325  1  0.26824275  0.67293116  0.20885654  1  -0.119209  0  -0.102309  -0.079483  0  4.068948  0
C  C326  1  0.26824473  0.17292774  0.29114258  1  -0.119313  0  -0.102321  -0.079513  0  4.069108  0
C  C327  1  0.73175779  0.32706936  0.79114175  1  -0.119305  0  -0.102328  -0.079412  0  4.069015  0
C  C328  1  0.80974147  0.88259218  0.67786318  1  -0.050241  0  -0.113336  -0.219132  0  3.968755  0
C  C329  1  0.19026207  0.61740832  0.17786105  1  -0.050267  0  -0.113396  -0.219142  0  3.968727  0
C  C330  1  0.19026535  0.11740604  0.32213773  1  -0.050223  0  -0.113328  -0.218978  0  3.96867  0
C  C331  1  0.80973665  0.38259278  0.82213649  1  -0.050197  0  -0.11336  -0.219194  0  3.968689  0
C  C332  1  0.66944290  0.96016113  0.83533658  1  0.352882  0  0.084571  0.2953  0  4.098625  0
C  C333  1  0.33055014  0.53983923  0.33533364  1  0.352762  0  0.084544  0.295201  0  4.098565  0
C  C334  1  0.33056109  0.03983766  0.16466472  1  0.353236  0  0.084599  0.295307  0  4.098487  0
C  C335  1  0.66944719  0.46016070  0.66466615  1  0.352449  0  0.08456  0.295227  0  4.098397  0
C  C336  1  0.61320155  0.89064958  0.86038916  1  -0.073705  0  -0.11805  -0.219497  0  3.970968  0
C  C337  1  0.38678639  0.60935075  0.36038769  1  -0.073983  0  -0.118137  -0.219659  0  3.970952  0
C  C338  1  0.38679847  0.10934630  0.13960951  1  -0.074135  0  -0.118077  -0.219513  0  3.970949  0
C  C339  1  0.61320471  0.39064858  0.63961247  1  -0.073713  0  -0.118115  -0.21965  0  3.970823  0
C  C340  1  0.49794756  0.88650896  0.89076272  1  -0.030348  0  -0.103644  -0.065685  0  4.070777  0
C  C341  1  0.50204294  0.61349020  0.39076046  1  -0.030402  0  -0.103509  -0.065331  0  4.07053  0
C  C342  1  0.50205543  0.11348983  0.10923820  1  -0.030334  0  -0.10366  -0.065739  0  4.070799  0
C  C343  1  0.49794773  0.38651088  0.60924008  1  -0.030284  0  -0.103586  -0.065561  0  4.070626  0
C  C344  1  0.43513486  0.95067627  0.89671695  1  -0.03588  0  -0.12394  -0.144849  0  4.075663  0
C  C345  1  0.56485763  0.54932289  0.39671542  1  -0.036078  0  -0.124034  -0.145061  0  4.075762  0
C  C346  1  0.56486472  0.04932135  0.10328360  1  -0.035867  0  -0.124019  -0.144956  0  4.075576  0
C  C347  1  0.43513922  0.45068168  0.60328474  1  -0.036215  0  -0.124034  -0.145026  0  4.075671  0
C  C348  1  0.48811495  0.01913476  0.87081822  1  -0.065564  0  -0.10571  -0.077457  0  4.0723  0
C  C349  1  0.51187724  0.48086515  0.37081667  1  -0.065466  0  -0.105656  -0.077284  0  4.072243  0
C  C350  1  0.51188646  0.98086228  0.12918157  1  -0.065597  0  -0.105716  -0.077451  0  4.072166  0
C  C351  1  0.48812205  0.51913768  0.62918500  1  -0.065475  0  -0.105654  -0.077345  0  4.072242  0
C  C352  1  0.60296733  0.02381353  0.84012353  1  -0.052495  0  -0.11843  -0.222433  0  3.988961  0
C  C353  1  0.39702695  0.47618641  0.34012052  1  -0.052601  0  -0.11847  -0.222592  0  3.989095  0
C  C354  1  0.39703326  0.97618409  0.15987664  1  -0.052831  0  -0.118401  -0.222415  0  3.988783  0
C  C355  1  0.60297441  0.52381353  0.65988002  1  -0.052704  0  -0.118509  -0.222542  0  3.989012  0
S  S356  1  0.83850777  0.22387246  0.66470256  1  -0.692667  0  -0.421469  -0.565814  0  2.715553  0
S  S357  1  0.16149165  0.27612646  0.16470117  1  -0.692613  0  -0.421491  -0.565873  0  2.715582  0
S  S358  1  0.16149622  0.77612633  0.33529911  1  -0.692617  0  -0.421478  -0.565843  0  2.715623  0
S  S359  1  0.83850463  0.72387637  0.83530050  1  -0.692659  0  -0.421512  -0.565845  0  2.715507  0
S  S360  1  0.19127729  0.22039138  0.62566317  1  -0.690842  0  -0.418517  -0.55875  0  2.821077  0
S  S361  1  0.80872602  0.27960989  0.12566266  1  -0.690906  0  -0.418507  -0.558754  0  2.821123  0
S  S362  1  0.80872867  0.77961031  0.37433474  1  -0.690906  0  -0.418553  -0.558845  0  2.821139  0
S  S363  1  0.19126935  0.72038714  0.87433601  1  -0.690816  0  -0.418531  -0.558803  0  2.82114  0
S  S364  1  0.90421721  0.10504034  0.55680248  1  -0.731928  0  -0.427674  -0.607235  0  2.831987  0
S  S365  1  0.09578414  0.39495749  0.05680072  1  -0.731971  0  -0.427688  -0.607292  0  2.832105  0
S  S366  1  0.09578238  0.89495728  0.44319881  1  -0.731997  0  -0.427678  -0.607323  0  2.832106  0
S  S367  1  0.90421358  0.60504360  0.94319982  1  -0.731978  0  -0.427681  -0.607307  0  2.832104  0
S  S368  1  0.58151929  0.34276096  0.47595954  1  0.060273  0  -0.177305  -0.3468  0  2.234618  0
S  S369  1  0.41848311  0.15723718  0.97595847  1  0.060115  0  -0.177313  -0.346758  0  2.234631  0
S  S370  1  0.41848030  0.65723666  0.52404326  1  0.060085  0  -0.17734  -0.346849  0  2.234586  0
S  S371  1  0.58151705  0.84276218  0.02404621  1  0.060054  0  -0.177298  -0.346756  0  2.234651  0
N  N372  1  0.24484285  0.11236204  0.52307392  1  -1.261807  0  -0.366277  -0.213783  0  3.658007  0
N  N373  1  0.75516074  0.38763930  0.02307342  1  -1.261811  0  -0.366235  -0.213696  0  3.657941  0
N  N374  1  0.75516297  0.88763617  0.47692474  1  -1.261815  0  -0.366311  -0.213754  0  3.658082  0
N  N375  1  0.24484057  0.61236354  0.97692599  1  -1.262022  0  -0.366299  -0.21379  0  3.658058  0
N  N376  1  0.15432204  0.84512939  0.78028729  1  -1.213853  0  -0.356487  -0.207222  0  3.620411  0
N  N377  1  0.84568084  0.65486987  0.28028453  1  -1.21381  0  -0.356479  -0.207264  0  3.620349  0
N  N378  1  0.84567693  0.15486938  0.21971475  1  -1.213917  0  -0.356551  -0.207295  0  3.620216  0
N  N379  1  0.15432114  0.34512891  0.71971451  1  -1.214032  0  -0.356564  -0.207393  0  3.620595  0
N  N380  1  0.58925682  0.09133883  0.61340574  1  -1.224882  0  -0.350084  -0.224853  0  3.599949  0
N  N381  1  0.41074193  0.40866070  0.11340461  1  -1.224893  0  -0.350092  -0.224958  0  3.599876  0
N  N382  1  0.41074253  0.90866111  0.38659668  1  -1.224854  0  -0.350079  -0.224861  0  3.599695  0
N  N383  1  0.58925478  0.59134039  0.88659593  1  -1.224914  0  -0.350104  -0.224997  0  3.599866  0
N  N384  1  0.10126342  0.27129883  0.50514330  1  -1.256525  0  -0.366668  -0.216063  0  3.66295  0
N  N385  1  0.89873663  0.22870078  0.00514201  1  -1.256273  0  -0.366664  -0.216057  0  3.663092  0
N  N386  1  0.89873737  0.72869937  0.49485649  1  -1.256418  0  -0.366695  -0.216055  0  3.662892  0
N  N387  1  0.10126573  0.77129917  0.99485740  1  -1.25648  0  -0.366636  -0.21602  0  3.663061  0
N  N388  1  0.96876878  0.60577829  0.38043392  1  -1.242559  0  -0.35965  -0.216853  0  3.628453  0
N  N389  1  0.03122941  0.89421973  0.88043372  1  -1.242657  0  -0.359622  -0.216769  0  3.628312  0
N  N390  1  0.03122678  0.39421931  0.61956700  1  -1.242782  0  -0.359584  -0.216714  0  3.62832  0
N  N391  1  0.96877051  0.10578194  0.11956645  1  -1.242472  0  -0.359618  -0.216724  0  3.628276  0
N  N392  1  0.67682644  0.24352143  0.54438891  1  -1.345446  0  -0.458009  -0.489847  0  3.461843  0
N  N393  1  0.32317652  0.25647816  0.04438783  1  -1.345327  0  -0.457983  -0.489825  0  3.461733  0
N  N394  1  0.32317410  0.75647909  0.45561464  1  -1.345219  0  -0.458062  -0.490034  0  3.461576  0
N  N395  1  0.67681980  0.74352177  0.95561647  1  -1.345185  0  -0.457993  -0.48978  0  3.461641  0
N  N396  1  0.07215271  0.86083939  0.22127205  1  -1.226358  0  -0.597178  -0.606779  0  3.315113  0
N  N397  1  0.92784429  0.63915990  0.72127230  1  -1.226381  0  -0.597189  -0.606715  0  3.315168  0
N  N398  1  0.92784199  0.13916169  0.77872849  1  -1.22659  0  -0.597163  -0.60664  0  3.315163  0
N  N399  1  0.07215726  0.36084062  0.27872599  1  -1.226398  0  -0.597215  -0.606823  0  3.315104  0
N  N400  1  0.92255974  0.91688821  0.59754487  1  -1.235974  0  -0.608494  -0.619542  0  3.324942  0
N  N401  1  0.07744302  0.58311234  0.09754390  1  -1.236587  0  -0.608494  -0.619448  0  3.325045  0
N  N402  1  0.07744804  0.08311290  0.40245530  1  -1.236501  0  -0.608466  -0.619463  0  3.325232  0
N  N403  1  0.92255388  0.41688933  0.90245514  1  -1.235927  0  -0.608444  -0.619353  0  3.324915  0
N  N404  1  0.78591833  0.96580596  0.80558011  1  -1.237753  0  -0.604632  -0.613394  0  3.313358  0
N  N405  1  0.21407336  0.53419616  0.30557910  1  -1.237578  0  -0.604592  -0.613189  0  3.313308  0
N  N406  1  0.21408246  0.03419224  0.19441931  1  -1.237726  0  -0.604576  -0.613368  0  3.313365  0
N  N407  1  0.78592297  0.46580377  0.69442032  1  -1.237517  0  -0.60462  -0.613206  0  3.313322  0
O  O408  1  0.98154416  0.06815319  0.67412984  1  -0.89793  0  -0.525868  -0.568186  0  1.878303  0
O  O409  1  0.01846347  0.43184632  0.17412698  1  -0.898065  0  -0.525862  -0.568166  0  1.878416  0
O  O410  1  0.01846846  0.93184736  0.32587183  1  -0.897868  0  -0.525867  -0.568177  0  1.878345  0
O  O411  1  0.98152581  0.56815359  0.82587319  1  -0.89798  0  -0.525822  -0.568101  0  1.878389  0
