# generated using pymatgen
data_CdH15C25N7O4
_symmetry_space_group_name_H-M   'P 1'
_cell_length_a   15.33884084
_cell_length_b   18.04865842
_cell_length_c   20.87256002
_cell_angle_alpha   89.99972747
_cell_angle_beta   90.00012531
_cell_angle_gamma   101.17941425
_symmetry_Int_Tables_number   1
_chemical_formula_structural   CdH15C25N7O4
_chemical_formula_sum   'Cd8 H120 C200 N56 O32'
_cell_volume   5668.82703762
_cell_formula_units_Z   8
loop_
 _symmetry_equiv_pos_site_id
 _symmetry_equiv_pos_as_xyz
  1  'x, y, z'
loop_
 _atom_site_type_symbol
 _atom_site_label
 _atom_site_symmetry_multiplicity
 _atom_site_fract_x
 _atom_site_fract_y
 _atom_site_fract_z
 _atom_site_occupancy
 _atom_site_pbe_bader_charge
 _atom_site_pbe_bader_spin_density
 _atom_site_pbe_cm5_charge
 _atom_site_pbe_ddec_charge
 _atom_site_pbe_ddec_spin_density
 _atom_site_pbe_ddec_sum_bond_order
 _atom_site_pbe_magmom
Cd  Cd0  1  0.16081281  0.13275667  0.06052957  1  1.272462  0  0.776808  0.881306  0  2.250618  0
Cd  Cd1  1  0.33918554  0.86724093  0.56052916  1  1.272393  0  0.776784  0.881251  0  2.250736  0
Cd  Cd2  1  0.83918871  0.86724290  0.93947253  1  1.272422  0  0.776796  0.881248  0  2.250662  0
Cd  Cd3  1  0.66081299  0.13275692  0.43946911  1  1.272295  0  0.776827  0.88126  0  2.250706  0
Cd  Cd4  1  0.85226913  0.10614347  0.56052251  1  1.273352  0  0.77277  0.878859  0  2.223055  0
Cd  Cd5  1  0.64772802  0.89385546  0.06052312  1  1.273389  0  0.772766  0.878873  0  2.22301  0
Cd  Cd6  1  0.14772997  0.89386002  0.43947863  1  1.273167  0  0.772789  0.87893  0  2.222997  0
Cd  Cd7  1  0.35227089  0.10614408  0.93947562  1  1.273327  0  0.772744  0.878804  0  2.223142  0
H  H8  1  0.15931360  0.63831422  0.04531525  1  0.092651  0  0.110136  0.107805  0  1.009997  0
H  H9  1  0.34068218  0.36168682  0.54531309  1  0.09262  0  0.110139  0.107807  0  1.01006  0
H  H10  1  0.84068709  0.36168760  0.95468206  1  0.092577  0  0.110135  0.107817  0  1.009942  0
H  H11  1  0.65932190  0.63831559  0.45468422  1  0.092518  0  0.11012  0.107864  0  1.009922  0
H  H12  1  0.04800124  0.49912551  0.88477309  1  0.123423  0  0.113689  0.08843  0  0.98388  0
H  H13  1  0.45200283  0.50087609  0.38477149  1  0.123345  0  0.113671  0.088399  0  0.983911  0
H  H14  1  0.95199665  0.50087234  0.11522662  1  0.123475  0  0.113694  0.088447  0  0.983899  0
H  H15  1  0.54800689  0.49912525  0.61522390  1  0.12301  0  0.11364  0.088372  0  0.983927  0
H  H16  1  0.02696062  0.72452024  0.88854311  1  0.098958  0  0.116367  0.089498  0  0.999927  0
H  H17  1  0.47303692  0.27548128  0.38854056  1  0.099055  0  0.116359  0.08951  0  0.999889  0
H  H18  1  0.97303477  0.27547814  0.11145516  1  0.098876  0  0.116406  0.089517  0  0.999987  0
H  H19  1  0.52696697  0.72451719  0.61145723  1  0.098987  0  0.116426  0.089581  0  0.999844  0
H  H20  1  0.05292390  0.83239618  0.93780807  1  0.577638  0  0.311647  0.306485  0  0.997986  0
H  H21  1  0.44707312  0.16760226  0.43780688  1  0.577603  0  0.31165  0.306489  0  0.99802  0
H  H22  1  0.94707500  0.16760336  0.06218924  1  0.577672  0  0.311687  0.306547  0  0.99795  0
H  H23  1  0.55293154  0.83239678  0.56219139  1  0.577506  0  0.311705  0.306591  0  0.997923  0
H  H24  1  0.08380077  0.98584542  0.98178034  1  0.110401  0  0.122508  0.108579  0  0.994611  0
H  H25  1  0.41619698  0.01415280  0.48178213  1  0.110431  0  0.122496  0.108581  0  0.994487  0
H  H26  1  0.91619711  0.01415243  0.01821888  1  0.110421  0  0.122494  0.108605  0  0.994514  0
H  H27  1  0.58380804  0.98584793  0.51822093  1  0.110417  0  0.12249  0.10859  0  0.994525  0
H  H28  1  0.22991289  0.01598927  0.15078376  1  0.097954  0  0.115758  0.094309  0  1.000865  0
H  H29  1  0.27008284  0.98401009  0.65078229  1  0.097943  0  0.115764  0.094309  0  1.000941  0
H  H30  1  0.77008422  0.98400800  0.84921882  1  0.097992  0  0.115733  0.094309  0  1.000963  0
H  H31  1  0.72991577  0.01599114  0.34921646  1  0.097964  0  0.115799  0.094346  0  1.000915  0
H  H32  1  0.24380053  0.87992248  0.15716263  1  0.086341  0  0.113498  0.132589  0  0.986541  0
H  H33  1  0.25619260  0.12007682  0.65715893  1  0.086325  0  0.113505  0.132547  0  0.986532  0
H  H34  1  0.75619580  0.12007422  0.84283756  1  0.086337  0  0.113499  0.132572  0  0.986553  0
H  H35  1  0.74380078  0.87992436  0.34283647  1  0.086309  0  0.113506  0.132546  0  0.986564  0
H  H36  1  0.18834008  0.53429485  0.08630279  1  0.49285  0  0.342764  0.307394  0  0.88999  0
H  H37  1  0.31165939  0.46570150  0.58630064  1  0.49282  0  0.342717  0.307333  0  0.890059  0
H  H38  1  0.81166311  0.46570643  0.91369547  1  0.492525  0  0.342747  0.307356  0  0.88998  0
H  H39  1  0.68834353  0.53429245  0.41369571  1  0.492537  0  0.34276  0.307387  0  0.889994  0
H  H40  1  0.11903221  0.26390760  0.96852474  1  0.133436  0  0.120837  0.111445  0  1.005678  0
H  H41  1  0.38096748  0.73609070  0.46852541  1  0.133565  0  0.120842  0.11149  0  1.005683  0
H  H42  1  0.88097191  0.73609199  0.03147305  1  0.133563  0  0.120824  0.111459  0  1.005731  0
H  H43  1  0.61903082  0.26390602  0.53147429  1  0.133407  0  0.120817  0.11141  0  1.005706  0
H  H44  1  0.23870743  0.27171889  0.14708940  1  0.09351  0  0.121389  0.098478  0  0.984798  0
H  H45  1  0.26129488  0.72827774  0.64709088  1  0.093522  0  0.121411  0.09848  0  0.984748  0
H  H46  1  0.76129470  0.72828351  0.85291030  1  0.093839  0  0.121386  0.098477  0  0.984758  0
H  H47  1  0.73870661  0.27171563  0.35291122  1  0.093747  0  0.121406  0.09851  0  0.984764  0
H  H48  1  0.24547433  0.41104717  0.16064711  1  0.087638  0  0.116371  0.134919  0  0.977864  0
H  H49  1  0.25452421  0.58894991  0.66064579  1  0.087686  0  0.116332  0.134891  0  0.977997  0
H  H50  1  0.75452429  0.58895406  0.83935307  1  0.087634  0  0.116351  0.134928  0  0.977911  0
H  H51  1  0.74547985  0.41104630  0.33935343  1  0.087714  0  0.116344  0.134933  0  0.977948  0
H  H52  1  0.84773418  0.61171265  0.53899224  1  0.108077  0  0.111257  0.111977  0  1.006045  0
H  H53  1  0.65226893  0.38828702  0.03899303  1  0.108039  0  0.111281  0.112026  0  1.006076  0
H  H54  1  0.15226872  0.38829031  0.46101081  1  0.108156  0  0.111239  0.112015  0  1.005926  0
H  H55  1  0.34773031  0.61170802  0.96101051  1  0.108162  0  0.111217  0.111962  0  1.005938  0
H  H56  1  0.93263375  0.73405419  0.36613114  1  0.086864  0  0.117788  0.092835  0  0.98707  0
H  H57  1  0.56737018  0.26594491  0.86613228  1  0.086849  0  0.117766  0.092787  0  0.987098  0
H  H58  1  0.06736331  0.26594590  0.63387048  1  0.08684  0  0.117784  0.092865  0  0.987102  0
H  H59  1  0.43263639  0.73405697  0.13386598  1  0.087114  0  0.117798  0.092858  0  0.987061  0
H  H60  1  0.94760515  0.50749476  0.37451870  1  0.108048  0  0.115682  0.092096  0  0.981745  0
H  H61  1  0.55240113  0.49250601  0.87451794  1  0.107754  0  0.115705  0.09213  0  0.981761  0
H  H62  1  0.05239726  0.49250595  0.62548292  1  0.108018  0  0.115709  0.092145  0  0.981715  0
H  H63  1  0.44760883  0.50749646  0.12548464  1  0.108106  0  0.115735  0.092173  0  0.981817  0
H  H64  1  0.81826894  0.49885676  0.57985950  1  0.47863  0  0.343276  0.307215  0  0.889001  0
H  H65  1  0.68172942  0.50114153  0.07985747  1  0.478675  0  0.343313  0.307121  0  0.889074  0
H  H66  1  0.18172914  0.50114503  0.42014403  1  0.478764  0  0.343385  0.30729  0  0.88893  0
H  H67  1  0.31827161  0.49885578  0.92014558  1  0.478996  0  0.343374  0.307241  0  0.889021  0
H  H68  1  0.91826363  0.25735104  0.47392387  1  0.122177  0  0.124139  0.112771  0  0.986478  0
H  H69  1  0.58173450  0.74264687  0.97391972  1  0.122475  0  0.12407  0.112712  0  0.986493  0
H  H70  1  0.08173387  0.74265413  0.52607871  1  0.121998  0  0.124104  0.112698  0  0.986473  0
H  H71  1  0.41826919  0.25734765  0.02608094  1  0.121965  0  0.124106  0.112748  0  0.986373  0
H  H72  1  0.79520971  0.22526018  0.65173575  1  0.130661  0  0.120205  0.100862  0  0.995326  0
H  H73  1  0.70478785  0.77473940  0.15173264  1  0.130773  0  0.12021  0.100802  0  0.995293  0
H  H74  1  0.20479046  0.77474219  0.34826826  1  0.1307  0  0.120205  0.100808  0  0.995339  0
H  H75  1  0.29521314  0.22526073  0.84827090  1  0.130829  0  0.120185  0.100747  0  0.995364  0
H  H76  1  0.77679709  0.36027757  0.66036114  1  0.090162  0  0.116909  0.136605  0  0.975247  0
H  H77  1  0.72319791  0.63971912  0.16035765  1  0.090158  0  0.116938  0.136627  0  0.9753  0
H  H78  1  0.22319920  0.63972194  0.33964575  1  0.090243  0  0.116961  0.136712  0  0.975341  0
H  H79  1  0.27679944  0.36027928  0.83964924  1  0.090341  0  0.116982  0.136743  0  0.975348  0
H  H80  1  0.92993382  0.83818878  0.42449080  1  0.567484  0  0.307237  0.298635  0  1.008048  0
H  H81  1  0.57006769  0.16181336  0.92449094  1  0.567513  0  0.307286  0.29869  0  1.007957  0
H  H82  1  0.07006765  0.16181360  0.57551130  1  0.567451  0  0.307276  0.298661  0  1.008013  0
H  H83  1  0.42993342  0.83818733  0.07550877  1  0.567504  0  0.307268  0.298685  0  1.008004  0
H  H84  1  0.90248427  0.98154700  0.47141956  1  0.152954  0  0.120759  0.113649  0  1.010632  0
H  H85  1  0.59752010  0.01845267  0.97141938  1  0.152958  0  0.120815  0.113669  0  1.010603  0
H  H86  1  0.09752034  0.01845485  0.52858111  1  0.152979  0  0.120816  0.11371  0  1.010613  0
H  H87  1  0.40247957  0.98154744  0.02857985  1  0.152982  0  0.120808  0.113669  0  1.010622  0
H  H88  1  0.75586700  0.96126091  0.63991295  1  0.11568  0  0.116804  0.093973  0  0.997019  0
H  H89  1  0.74413462  0.03873653  0.13991388  1  0.115617  0  0.116794  0.093966  0  0.996938  0
H  H90  1  0.24412912  0.03874086  0.36008484  1  0.115735  0  0.116796  0.094013  0  0.997013  0
H  H91  1  0.25585922  0.96126071  0.86008774  1  0.115635  0  0.116758  0.093954  0  0.996949  0
H  H92  1  0.74212315  0.82037570  0.64509467  1  0.060574  0  0.112204  0.130193  0  0.985081  0
H  H93  1  0.75787611  0.17962281  0.14509504  1  0.060567  0  0.112213  0.130217  0  0.985052  0
H  H94  1  0.25787387  0.17962720  0.35490455  1  0.060573  0  0.112206  0.13015  0  0.98506  0
H  H95  1  0.24211744  0.82037612  0.85490658  1  0.060455  0  0.112233  0.130179  0  0.985121  0
H  H96  1  0.88948606  0.16284247  0.19357558  1  0.037257  0  0.095993  0.090717  0  1.037726  0
H  H97  1  0.61051742  0.83715076  0.69357541  1  0.037182  0  0.096015  0.090728  0  1.037723  0
H  H98  1  0.11050831  0.83715421  0.80642556  1  0.0373  0  0.095994  0.090745  0  1.037706  0
H  H99  1  0.38948606  0.16284883  0.30642142  1  0.037161  0  0.095998  0.090716  0  1.037705  0
H  H100  1  0.81470657  0.16143845  0.30104820  1  0.091296  0  0.102246  0.112878  0  1.016616  0
H  H101  1  0.68529769  0.83856606  0.80104767  1  0.091298  0  0.102254  0.112895  0  1.016633  0
H  H102  1  0.18528592  0.83856159  0.69895342  1  0.091521  0  0.102305  0.112996  0  1.016535  0
H  H103  1  0.31470508  0.16143634  0.19894916  1  0.091287  0  0.102239  0.112857  0  1.016583  0
H  H104  1  0.03197497  0.08000923  0.38785981  1  0.100938  0  0.09871  0.098726  0  1.052624  0
H  H105  1  0.46803150  0.91999745  0.88785460  1  0.101107  0  0.098725  0.098715  0  1.052685  0
H  H106  1  0.96802694  0.91999823  0.61214325  1  0.101025  0  0.098693  0.098648  0  1.052742  0
H  H107  1  0.53197192  0.08000496  0.11213936  1  0.10099  0  0.098714  0.098726  0  1.052591  0
H  H108  1  0.10788978  0.08427824  0.28100282  1  0.098718  0  0.102439  0.106407  0  1.017199  0
H  H109  1  0.39211199  0.91571712  0.78099750  1  0.098803  0  0.102427  0.10638  0  1.017046  0
H  H110  1  0.89210312  0.91572068  0.71899880  1  0.098583  0  0.102431  0.106481  0  1.017158  0
H  H111  1  0.60789250  0.08428417  0.21899645  1  0.098857  0  0.102453  0.106427  0  1.01719  0
H  H112  1  0.10341757  0.05936292  0.69600275  1  0.074467  0  0.100121  0.100821  0  1.021049  0
H  H113  1  0.39657796  0.94063789  0.19600501  1  0.07452  0  0.100146  0.100852  0  1.021025  0
H  H114  1  0.89657908  0.94063829  0.30399743  1  0.074462  0  0.100106  0.100813  0  1.021011  0
H  H115  1  0.60341898  0.05936163  0.80399422  1  0.074195  0  0.100114  0.100832  0  1.021084  0
H  H116  1  0.18251132  0.05911853  0.80159504  1  0.081646  0  0.104628  0.113966  0  1.006651  0
H  H117  1  0.31748671  0.94088345  0.30159860  1  0.081568  0  0.104687  0.114056  0  1.006636  0
H  H118  1  0.81748794  0.94088271  0.19840323  1  0.081617  0  0.10465  0.113997  0  1.006634  0
H  H119  1  0.68251158  0.05911327  0.69840302  1  0.081558  0  0.104654  0.114021  0  1.006632  0
H  H120  1  0.99683370  0.17929059  0.88756286  1  0.090509  0  0.099208  0.10232  0  1.037838  0
H  H121  1  0.50316558  0.82070778  0.38756498  1  0.090449  0  0.099215  0.102368  0  1.037822  0
H  H122  1  0.00316745  0.82070728  0.11243972  1  0.090468  0  0.099192  0.102274  0  1.037892  0
H  H123  1  0.49683198  0.17928555  0.61243185  1  0.090443  0  0.099273  0.102484  0  1.037766  0
H  H124  1  0.91631022  0.17770285  0.78294602  1  0.095402  0  0.102219  0.105521  0  1.005703  0
H  H125  1  0.58368912  0.82229719  0.28294682  1  0.095435  0  0.102198  0.105518  0  1.005676  0
H  H126  1  0.08368469  0.82229327  0.21705944  1  0.095933  0  0.102228  0.105506  0  1.005686  0
H  H127  1  0.41630905  0.17769896  0.71705049  1  0.095454  0  0.102167  0.105463  0  1.005695  0
C  C128  1  0.09573418  0.68989608  0.97133902  1  0.035796  0  0.003013  -0.013637  0  4.003242  0
C  C129  1  0.40426470  0.31010446  0.47133765  1  0.035833  0  0.002985  -0.013697  0  4.003279  0
C  C130  1  0.90426526  0.31010291  0.02865829  1  0.035716  0  0.003008  -0.013604  0  4.003244  0
C  C131  1  0.59573943  0.68989514  0.52866205  1  0.035698  0  0.003007  -0.013644  0  4.003009  0
C  C132  1  0.12427750  0.62855745  0.99969745  1  -0.000741  0  -0.060267  -0.090504  0  3.904313  0
C  C133  1  0.37572082  0.37144011  0.49969627  1  -0.000714  0  -0.060246  -0.090406  0  3.904279  0
C  C134  1  0.87572283  0.37144267  0.00029985  1  -0.001036  0  -0.06019  -0.090401  0  3.904216  0
C  C135  1  0.62428556  0.62855782  0.50030056  1  -0.000595  0  -0.06022  -0.090497  0  3.904234  0
C  C136  1  0.10720639  0.55863742  0.96889973  1  -0.025517  0  -0.011744  -0.047203  0  4.047356  0
C  C137  1  0.39279378  0.44136314  0.46889685  1  -0.025645  0  -0.011822  -0.047492  0  4.04754  0
C  C138  1  0.89279410  0.44136045  0.03109853  1  -0.025094  0  -0.011774  -0.047302  0  4.04758  0
C  C139  1  0.60721161  0.55863929  0.53109950  1  -0.025609  0  -0.011823  -0.047438  0  4.047433  0
C  C140  1  0.06199590  0.55337980  0.90967075  1  0.527901  0  0.048627  0.067186  0  3.941352  0
C  C141  1  0.43800625  0.44662165  0.40966792  1  0.528053  0  0.048668  0.067295  0  3.941598  0
C  C142  1  0.93800288  0.44661918  0.09032848  1  0.528325  0  0.048629  0.067243  0  3.941555  0
C  C143  1  0.56199931  0.55337852  0.59032891  1  0.528831  0  0.04874  0.067456  0  3.941282  0
C  C144  1  0.05093943  0.67828139  0.91235152  1  0.512954  0  0.050651  0.063021  0  3.918537  0
C  C145  1  0.44906024  0.32172059  0.41234969  1  0.512908  0  0.050691  0.063054  0  3.918498  0
C  C146  1  0.94905650  0.32171643  0.08764627  1  0.512971  0  0.050616  0.063023  0  3.918731  0
C  C147  1  0.55094764  0.67828130  0.58764857  1  0.512944  0  0.050557  0.062886  0  3.918468  0
C  C148  1  0.11488371  0.76311120  0.00305709  1  0.988332  0  0.229321  0.31352  0  4.029227  0
C  C149  1  0.38511579  0.23688954  0.50305647  1  0.988328  0  0.2294  0.313637  0  4.029235  0
C  C150  1  0.88511739  0.23688950  0.99693975  1  0.987687  0  0.229384  0.313621  0  4.029  0
C  C151  1  0.61488817  0.76311231  0.49694324  1  0.988357  0  0.229422  0.313737  0  4.029002  0
C  C152  1  0.16791860  0.85256517  0.06867132  1  0.442004  0  0.098497  0.166598  0  4.090753  0
C  C153  1  0.33208114  0.14743579  0.56867098  1  0.442014  0  0.098484  0.166532  0  4.090697  0
C  C154  1  0.83208173  0.14743495  0.93132839  1  0.441968  0  0.098504  0.166517  0  4.090847  0
C  C155  1  0.66791960  0.85256321  0.43132489  1  0.441943  0  0.098472  0.166538  0  4.090705  0
C  C156  1  0.12266739  0.88441362  0.01940031  1  0.388978  0  0.103448  0.1129  0  4.029751  0
C  C157  1  0.37733411  0.11558705  0.51940066  1  0.388823  0  0.103459  0.112968  0  4.029683  0
C  C158  1  0.87733347  0.11558594  0.98059892  1  0.389124  0  0.103432  0.112963  0  4.029867  0
C  C159  1  0.62266891  0.88441648  0.48059857  1  0.389346  0  0.103489  0.113017  0  4.029796  0
C  C160  1  0.11783237  0.96033414  0.01911940  1  0.571352  0  0.049851  0.031417  0  3.934985  0
C  C161  1  0.38216937  0.03966766  0.51912054  1  0.57136  0  0.04981  0.031325  0  3.934992  0
C  C162  1  0.88216653  0.03966541  0.98087983  1  0.571368  0  0.049854  0.031304  0  3.93499  0
C  C163  1  0.61783667  0.96033477  0.48088108  1  0.571354  0  0.049756  0.031203  0  3.935133  0
C  C164  1  0.20111243  0.97568369  0.11404310  1  0.456136  0  0.030455  0.067333  0  3.975735  0
C  C165  1  0.29888544  0.02431701  0.61404226  1  0.456061  0  0.030365  0.067231  0  3.975713  0
C  C166  1  0.79888635  0.02431529  0.88595660  1  0.455908  0  0.030419  0.067257  0  3.975746  0
C  C167  1  0.70111371  0.97568366  0.38595601  1  0.455839  0  0.030359  0.067185  0  3.975818  0
C  C168  1  0.20853149  0.90036189  0.11764416  1  -0.003174  0  -0.082591  -0.190642  0  3.954596  0
C  C169  1  0.29146561  0.09963822  0.61764300  1  -0.003136  0  -0.082551  -0.190535  0  3.954555  0
C  C170  1  0.79146700  0.09963878  0.88235650  1  -0.003113  0  -0.082565  -0.190546  0  3.954584  0
C  C171  1  0.70853210  0.90036187  0.38235383  1  -0.003022  0  -0.082547  -0.190481  0  3.954687  0
C  C172  1  0.13201615  0.49132666  0.99608487  1  0.97429  0  0.222843  0.302716  0  4.063524  0
C  C173  1  0.36798175  0.50867205  0.49608215  1  0.974378  0  0.222891  0.30285  0  4.063523  0
C  C174  1  0.86798822  0.50867407  0.00391388  1  0.974318  0  0.222776  0.302547  0  4.063827  0
C  C175  1  0.63201822  0.49132638  0.50391469  1  0.974445  0  0.22291  0.302869  0  4.063493  0
C  C176  1  0.18264991  0.41744313  0.06704473  1  0.373215  0  0.106866  0.178865  0  4.051215  0
C  C177  1  0.31734637  0.58255386  0.56704402  1  0.355514  0  0.106857  0.178895  0  4.051008  0
C  C178  1  0.81735042  0.58255700  0.93295258  1  0.373126  0  0.106874  0.178856  0  4.05128  0
C  C179  1  0.68265204  0.41744342  0.43295377  1  0.373412  0  0.106877  0.178868  0  4.051155  0
C  C180  1  0.14791892  0.37674439  0.01143637  1  0.416224  0  0.08659  0.095896  0  4.092124  0
C  C181  1  0.35207739  0.62325346  0.51143411  1  0.415706  0  0.086699  0.095939  0  4.092021  0
C  C182  1  0.85208337  0.62325576  0.98856142  1  0.416243  0  0.086558  0.095796  0  4.092219  0
C  C183  1  0.64792013  0.37674269  0.48856320  1  0.41623  0  0.086554  0.095849  0  4.092072  0
C  C184  1  0.14675485  0.29932122  0.00876077  1  0.529881  0  0.048688  0.026599  0  3.911178  0
C  C185  1  0.35324495  0.70067780  0.50875867  1  0.52981  0  0.048582  0.026445  0  3.91118  0
C  C186  1  0.85325005  0.70067895  0.99123990  1  0.52979  0  0.048731  0.02667  0  3.911213  0
C  C187  1  0.64675281  0.29931948  0.49124008  1  0.529834  0  0.048703  0.026662  0  3.911195  0
C  C188  1  0.21357295  0.30469198  0.11006750  1  0.484398  0  0.04136  0.091916  0  3.955567  0
C  C189  1  0.28642329  0.69530422  0.61006723  1  0.484538  0  0.041215  0.091799  0  3.955244  0
C  C190  1  0.78642489  0.69530868  0.88993412  1  0.484351  0  0.041268  0.091803  0  3.95541  0
C  C191  1  0.71357505  0.30468968  0.38993343  1  0.484422  0  0.041305  0.091841  0  3.955311  0
C  C192  1  0.21717922  0.38175049  0.11763901  1  0.049932  0  -0.089298  -0.213078  0  3.986862  0
C  C193  1  0.28281768  0.61824567  0.61763953  1  0.049694  0  -0.089139  -0.212898  0  3.986601  0
C  C194  1  0.78281886  0.61825130  0.88236070  1  0.049744  0  -0.089245  -0.213047  0  3.986923  0
C  C195  1  0.71718363  0.38174995  0.38236065  1  0.049505  0  -0.089296  -0.213111  0  3.986793  0
C  C196  1  0.89574238  0.54862694  0.46116871  1  -0.038944  0  -0.009967  -0.0386  0  4.050997  0
C  C197  1  0.60425870  0.45137275  0.96116867  1  -0.038831  0  -0.00994  -0.038456  0  4.050751  0
C  C198  1  0.10425754  0.45137430  0.53883627  1  -0.039023  0  -0.009922  -0.038546  0  4.050821  0
C  C199  1  0.39574518  0.54862571  0.03883391  1  -0.038902  0  -0.009913  -0.038553  0  4.050749  0
C  C200  1  0.87365317  0.61216235  0.49029388  1  -0.060381  0  -0.067031  -0.110925  0  3.918674  0
C  C201  1  0.62634980  0.38783665  0.99029462  1  -0.060302  0  -0.06707  -0.111066  0  3.918791  0
C  C202  1  0.12634960  0.38784005  0.50970870  1  -0.060215  0  -0.067004  -0.110915  0  3.918426  0
C  C203  1  0.37365277  0.61216181  0.00970796  1  -0.060355  0  -0.067023  -0.110841  0  3.918396  0
C  C204  1  0.88674672  0.68059710  0.45682492  1  -0.006339  0  -0.001027  -0.02396  0  4.02389  0
C  C205  1  0.61325525  0.31940375  0.95682593  1  -0.006751  0  -0.001016  -0.023908  0  4.023897  0
C  C206  1  0.11325588  0.31940755  0.54317718  1  -0.006792  0  -0.00095  -0.02379  0  4.023744  0
C  C207  1  0.38674757  0.68059583  0.04317426  1  -0.006397  0  -0.00102  -0.024039  0  4.023897  0
C  C208  1  0.92130716  0.68196650  0.39424758  1  0.587486  0  0.049047  0.058633  0  3.934774  0
C  C209  1  0.57869707  0.31803357  0.89424757  1  0.587593  0  0.049016  0.058565  0  3.934665  0
C  C210  1  0.07869316  0.31803362  0.60575452  1  0.587613  0  0.049096  0.058596  0  3.934717  0
C  C211  1  0.42130926  0.68196717  0.10575166  1  0.586971  0  0.049052  0.058596  0  3.93475  0
C  C212  1  0.92992424  0.55645352  0.39827945  1  0.571772  0  0.045898  0.058225  0  3.944676  0
C  C213  1  0.57008040  0.44354542  0.89827843  1  0.571968  0  0.045891  0.05811  0  3.944817  0
C  C214  1  0.07007829  0.44354775  0.60172313  1  0.571691  0  0.045811  0.058099  0  3.94488  0
C  C215  1  0.42992711  0.55645478  0.10172271  1  0.571652  0  0.04584  0.058123  0  3.944902  0
C  C216  1  0.88464126  0.47572620  0.49327368  1  0.980192  0  0.225329  0.305383  0  4.05073  0
C  C217  1  0.61535763  0.52427500  0.99327288  1  0.9802  0  0.225311  0.305331  0  4.050804  0
C  C218  1  0.11535481  0.52427839  0.50672938  1  0.981087  0  0.225276  0.305227  0  4.050766  0
C  C219  1  0.38464471  0.47572233  0.00673114  1  0.98109  0  0.225342  0.305231  0  4.051001  0
C  C220  1  0.84219102  0.38728630  0.56758910  1  0.321338  0  0.108619  0.179365  0  4.051545  0
C  C221  1  0.65780601  0.61271204  0.06758561  1  0.321158  0  0.108657  0.179448  0  4.051612  0
C  C222  1  0.15780420  0.61271434  0.43241396  1  0.321505  0  0.108708  0.179554  0  4.05138  0
C  C223  1  0.34219852  0.38728644  0.93241601  1  0.321108  0  0.108689  0.179491  0  4.051438  0
C  C224  1  0.88309113  0.35876775  0.51433027  1  0.440819  0  0.088708  0.09732  0  4.070569  0
C  C225  1  0.61690647  0.64123087  0.01432612  1  0.440499  0  0.088625  0.097126  0  4.070656  0
C  C226  1  0.11690262  0.64123513  0.48567566  1  0.440714  0  0.088603  0.097206  0  4.070348  0
C  C227  1  0.38309967  0.35876593  0.98567885  1  0.440503  0  0.088701  0.097335  0  4.070345  0
C  C228  1  0.88922839  0.28266628  0.51395242  1  0.554815  0  0.054629  0.046091  0  3.90788  0
C  C229  1  0.61076712  0.71733175  0.01394795  1  0.554394  0  0.054649  0.046102  0  3.907848  0
C  C230  1  0.11076601  0.71733660  0.48605160  1  0.554774  0  0.054597  0.046134  0  3.907756  0
C  C231  1  0.38923979  0.28266562  0.98605415  1  0.554637  0  0.054568  0.046047  0  3.9078  0
C  C232  1  0.81855602  0.26590609  0.61385917  1  0.489708  0  0.036673  0.08274  0  3.965492  0
C  C233  1  0.68144081  0.73409369  0.11385570  1  0.48951  0  0.036701  0.08286  0  3.965372  0
C  C234  1  0.18144123  0.73409795  0.38614485  1  0.489376  0  0.036749  0.08296  0  3.965286  0
C  C235  1  0.31856165  0.26590420  0.88614688  1  0.489422  0  0.036723  0.082998  0  3.965364  0
C  C236  1  0.80901929  0.34075436  0.61888618  1  0.015639  0  -0.088195  -0.213827  0  3.982323  0
C  C237  1  0.69097886  0.65924540  0.11888256  1  0.016013  0  -0.088167  -0.213825  0  3.982278  0
C  C238  1  0.19097654  0.65924909  0.38111832  1  0.016248  0  -0.088301  -0.214083  0  3.982377  0
C  C239  1  0.30902348  0.34075192  0.88112146  1  0.016332  0  -0.088281  -0.214068  0  3.982385  0
C  C240  1  0.86541887  0.74712622  0.48803513  1  0.99466  0  0.225954  0.31239  0  4.037528  0
C  C241  1  0.63457965  0.25287331  0.98803500  1  0.994983  0  0.225929  0.312395  0  4.037494  0
C  C242  1  0.13458272  0.25287673  0.51196602  1  0.994101  0  0.225873  0.312347  0  4.037407  0
C  C243  1  0.36541991  0.74712624  0.01196471  1  0.994977  0  0.225977  0.312563  0  4.037549  0
C  C244  1  0.81567186  0.81863422  0.55563086  1  0.43849  0  0.100153  0.180893  0  4.069316  0
C  C245  1  0.68432932  0.18136534  0.05563159  1  0.438116  0  0.100162  0.180744  0  4.06925  0
C  C246  1  0.18432842  0.18136872  0.44437028  1  0.438256  0  0.100183  0.180764  0  4.069344  0
C  C247  1  0.31566697  0.81863418  0.94437003  1  0.438018  0  0.100117  0.180718  0  4.069452  0
C  C248  1  0.85913837  0.86573026  0.50595841  1  0.413432  0  0.102035  0.111269  0  4.03122  0
C  C249  1  0.64086456  0.13426901  0.00595830  1  0.413843  0  0.101998  0.111328  0  4.031103  0
C  C250  1  0.14086363  0.13427156  0.49404369  1  0.41348  0  0.102089  0.111505  0  4.031045  0
C  C251  1  0.35913434  0.86573053  0.99404140  1  0.413921  0  0.101996  0.111287  0  4.03119  0
C  C252  1  0.86681123  0.94365129  0.50744106  1  0.505315  0  0.046373  0.012934  0  3.930523  0
C  C253  1  0.63319337  0.05634968  0.00744126  1  0.506875  0  0.046388  0.012986  0  3.93047  0
C  C254  1  0.13319232  0.05635168  0.49255960  1  0.50686  0  0.046292  0.012764  0  3.930544  0
C  C255  1  0.36680655  0.94365156  0.99255892  1  0.506877  0  0.046429  0.013064  0  3.930547  0
C  C256  1  0.78495817  0.93085411  0.60301579  1  0.426597  0  0.029944  0.063146  0  3.979678  0
C  C257  1  0.71504285  0.06914408  0.10301750  1  0.426509  0  0.029938  0.063134  0  3.979666  0
C  C258  1  0.21504081  0.06914882  0.39698200  1  0.426598  0  0.029845  0.062938  0  3.979729  0
C  C259  1  0.28495450  0.93085432  0.89698460  1  0.426711  0  0.029964  0.063091  0  3.979673  0
C  C260  1  0.77659928  0.85287781  0.60551204  1  0.03233  0  -0.085766  -0.197432  0  3.959355  0
C  C261  1  0.72340175  0.14712037  0.10551297  1  0.032287  0  -0.085723  -0.197344  0  3.959427  0
C  C262  1  0.22340112  0.14712570  0.39448862  1  0.032431  0  -0.085778  -0.197277  0  3.95927  0
C  C263  1  0.27659364  0.85287802  0.89448913  1  0.032555  0  -0.085761  -0.197299  0  3.959491  0
C  C264  1  0.00421184  0.12553806  0.23160382  1  -0.008506  0  -0.015371  -0.021294  0  3.969077  0
C  C265  1  0.49578906  0.87445698  0.73160220  1  -0.008391  0  -0.015474  -0.021557  0  3.969217  0
C  C266  1  0.99577963  0.87446028  0.76839636  1  -0.008387  0  -0.015346  -0.021232  0  3.968954  0
C  C267  1  0.50421465  0.12554374  0.26839367  1  -0.008493  0  -0.015441  -0.021325  0  3.968893  0
C  C268  1  0.92053242  0.14548038  0.23659049  1  -0.119967  0  -0.090193  -0.102825  0  3.990496  0
C  C269  1  0.57947056  0.85451600  0.73658828  1  -0.12009  0  -0.090171  -0.102652  0  3.99023  0
C  C270  1  0.07946052  0.85451573  0.76341113  1  -0.120428  0  -0.090166  -0.102703  0  3.990176  0
C  C271  1  0.42053406  0.14548585  0.26340759  1  -0.11996  0  -0.090126  -0.102697  0  3.990435  0
C  C272  1  0.87906934  0.14481745  0.29602351  1  0.014501  0  -0.088134  -0.100797  0  3.96964  0
C  C273  1  0.62093304  0.85518144  0.79602184  1  0.014441  0  -0.088165  -0.100975  0  3.969571  0
C  C274  1  0.12092384  0.85517979  0.70397859  1  0.015045  0  -0.08824  -0.101117  0  3.969584  0
C  C275  1  0.37907068  0.14481928  0.20397451  1  0.014646  0  -0.088142  -0.100873  0  3.969583  0
C  C276  1  0.92064723  0.12298660  0.35092917  1  -0.014882  0  -0.02077  -0.035839  0  3.973656  0
C  C277  1  0.57935521  0.87701481  0.85092878  1  -0.014834  0  -0.020785  -0.035809  0  3.973636  0
C  C278  1  0.07934770  0.87701572  0.64907197  1  -0.015176  0  -0.02087  -0.035973  0  3.973628  0
C  C279  1  0.42064476  0.12298361  0.14906853  1  -0.014892  0  -0.020765  -0.035789  0  3.973561  0
C  C280  1  0.00185770  0.09893081  0.34523057  1  -0.075706  0  -0.085846  -0.089416  0  3.969965  0
C  C281  1  0.49814475  0.90106985  0.84522644  1  -0.075662  0  -0.085936  -0.089551  0  3.970186  0
C  C282  1  0.99813765  0.90107039  0.65477153  1  -0.07583  0  -0.085805  -0.089227  0  3.970051  0
C  C283  1  0.50185677  0.09892972  0.15476847  1  -0.075754  0  -0.085897  -0.08946  0  3.970025  0
C  C284  1  0.04369834  0.10090770  0.28609123  1  0.006544  0  -0.084912  -0.093383  0  3.969795  0
C  C285  1  0.45630369  0.89908876  0.78608609  1  0.006334  0  -0.08477  -0.093088  0  3.969771  0
C  C286  1  0.95629432  0.89909009  0.71391039  1  0.006567  0  -0.084777  -0.093418  0  3.969974  0
C  C287  1  0.54370056  0.10091140  0.21390691  1  0.006405  0  -0.084926  -0.093455  0  3.96975  0
C  C288  1  0.05377961  0.13136721  0.16959708  1  1.551087  0  0.198302  0.57255  0  4.213958  0
C  C289  1  0.44622095  0.86862703  0.66959349  1  1.550932  0  0.198418  0.572709  0  4.213838  0
C  C290  1  0.94621382  0.86863115  0.83040454  1  1.551376  0  0.198299  0.572438  0  4.214051  0
C  C291  1  0.55378265  0.13137313  0.33040191  1  1.551598  0  0.198356  0.572556  0  4.213919  0
C  C292  1  0.88054782  0.12835065  0.41583540  1  1.56085  0  0.201413  0.567113  0  4.2328  0
C  C293  1  0.61945297  0.87165436  0.91583510  1  1.561007  0  0.201416  0.567081  0  4.232988  0
C  C294  1  0.11944850  0.87165507  0.58416575  1  1.561398  0  0.201585  0.567359  0  4.232688  0
C  C295  1  0.38054682  0.12834632  0.08416174  1  1.560948  0  0.201558  0.567171  0  4.23288  0
C  C296  1  0.00484160  0.11804065  0.73367067  1  -0.044338  0  -0.016712  -0.025499  0  3.977405  0
C  C297  1  0.49516031  0.88196510  0.23367572  1  -0.043267  0  -0.016644  -0.025484  0  3.977561  0
C  C298  1  0.99515595  0.88196170  0.26632904  1  -0.043869  0  -0.016727  -0.025569  0  3.977728  0
C  C299  1  0.50483830  0.11803613  0.76632399  1  -0.04348  0  -0.016738  -0.02565  0  3.977644  0
C  C300  1  0.08097513  0.08592184  0.73822031  1  -0.022851  0  -0.087924  -0.103608  0  3.982189  0
C  C301  1  0.41902262  0.91408272  0.23822415  1  -0.023383  0  -0.087982  -0.103514  0  3.982037  0
C  C302  1  0.91902152  0.91407937  0.26177940  1  -0.022722  0  -0.087977  -0.103611  0  3.982194  0
C  C303  1  0.58097318  0.08591454  0.76177556  1  -0.023551  0  -0.087954  -0.10356  0  3.982115  0
C  C304  1  0.12435121  0.08512809  0.79677473  1  -0.022052  0  -0.083984  -0.089884  0  3.953626  0
C  C305  1  0.37564849  0.91487562  0.29677802  1  -0.022358  0  -0.084123  -0.090114  0  3.953664  0
C  C306  1  0.87564948  0.91487373  0.20322449  1  -0.022407  0  -0.084033  -0.089921  0  3.953607  0
C  C307  1  0.62434915  0.08512109  0.70322120  1  -0.022684  0  -0.084051  -0.089954  0  3.953591  0
C  C308  1  0.09263534  0.11759560  0.85097547  1  -0.010467  0  -0.021589  -0.036057  0  3.968195  0
C  C309  1  0.40736736  0.88240616  0.35097990  1  -0.009364  0  -0.021642  -0.036222  0  3.968611  0
C  C310  1  0.90736887  0.88240738  0.14902376  1  -0.01005  0  -0.02157  -0.036084  0  3.968229  0
C  C311  1  0.59263134  0.11758944  0.64901933  1  -0.008815  0  -0.021639  -0.036305  0  3.968694  0
C  C312  1  0.01941136  0.15303542  0.84539384  1  -0.064716  0  -0.089052  -0.095912  0  3.98032  0
C  C313  1  0.48058676  0.84696633  0.34539710  1  -0.065282  0  -0.089064  -0.095979  0  3.980407  0
C  C314  1  0.98058962  0.84696471  0.15460730  1  -0.064638  0  -0.089006  -0.095816  0  3.98037  0
C  C315  1  0.51941064  0.15302925  0.65460117  1  -0.065124  0  -0.089056  -0.096041  0  3.980598  0
C  C316  1  0.97511343  0.15255906  0.78737538  1  -0.042414  0  -0.087243  -0.096513  0  3.983521  0
C  C317  1  0.52488706  0.84744323  0.28737742  1  -0.042878  0  -0.087156  -0.096368  0  3.983451  0
C  C318  1  0.02488352  0.84744047  0.21262816  1  -0.043617  0  -0.087304  -0.09652  0  3.983723  0
C  C319  1  0.47511177  0.15255293  0.71262037  1  -0.042583  0  -0.087128  -0.096273  0  3.983542  0
C  C320  1  0.95272126  0.11401203  0.67293859  1  1.523845  0  0.195137  0.561867  0  4.221919  0
C  C321  1  0.54727790  0.88599479  0.17294051  1  1.523771  0  0.195204  0.561909  0  4.222033  0
C  C322  1  0.04727677  0.88599258  0.32706303  1  1.524042  0  0.195248  0.561833  0  4.222169  0
C  C323  1  0.45271948  0.11400981  0.82705776  1  1.524099  0  0.195059  0.561816  0  4.222055  0
C  C324  1  0.13442213  0.11260409  0.91529536  1  1.566491  0  0.204344  0.572129  0  4.229986  0
C  C325  1  0.36557836  0.88739562  0.41529875  1  1.566472  0  0.204348  0.572053  0  4.229969  0
C  C326  1  0.86558224  0.88739663  0.08470290  1  1.566491  0  0.204352  0.572029  0  4.229942  0
C  C327  1  0.63441916  0.11260052  0.58470096  1  1.566413  0  0.204392  0.572243  0  4.229788  0
N  N328  1  0.03440410  0.61147343  0.88197731  1  -1.183357  0  -0.33293  -0.272323  0  3.328365  0
N  N329  1  0.46559841  0.38852704  0.38197620  1  -1.183495  0  -0.332923  -0.272318  0  3.328601  0
N  N330  1  0.96559117  0.38852438  0.11802096  1  -1.18374  0  -0.33296  -0.272443  0  3.328664  0
N  N331  1  0.53440927  0.61147090  0.61802207  1  -1.183826  0  -0.33292  -0.272387  0  3.328441  0
N  N332  1  0.16151817  0.77652715  0.05761772  1  -1.13811  0  -0.346563  -0.423259  0  3.157435  0
N  N333  1  0.33848091  0.22347386  0.55761565  1  -1.138095  0  -0.346584  -0.423253  0  3.157473  0
N  N334  1  0.83848020  0.22347296  0.94238054  1  -1.137524  0  -0.346582  -0.423289  0  3.157405  0
N  N335  1  0.66151996  0.77652570  0.44238262  1  -1.13815  0  -0.346617  -0.423347  0  3.157457  0
N  N336  1  0.08980604  0.82623469  0.97863204  1  -1.307449  0  -0.370417  -0.311862  0  3.589349  0
N  N337  1  0.41019403  0.17376525  0.47863029  1  -1.307285  0  -0.370446  -0.311933  0  3.589314  0
N  N338  1  0.91019613  0.17376488  0.02136527  1  -1.307574  0  -0.370484  -0.311936  0  3.589278  0
N  N339  1  0.58981291  0.82623832  0.52136894  1  -1.307549  0  -0.370471  -0.312027  0  3.589323  0
N  N340  1  0.15760480  0.00471908  0.06622055  1  -1.226381  0  -0.339269  -0.250483  0  3.564559  0
N  N341  1  0.34239667  0.99528078  0.56622106  1  -1.226282  0  -0.339179  -0.250334  0  3.564365  0
N  N342  1  0.84239582  0.99527935  0.93377867  1  -1.226287  0  -0.33922  -0.250396  0  3.564464  0
N  N343  1  0.65760492  0.00472217  0.43377817  1  -1.22629  0  -0.339216  -0.250359  0  3.564357  0
N  N344  1  0.11761671  0.42397858  0.96822114  1  -1.137998  0  -0.340551  -0.408592  0  3.18905  0
N  N345  1  0.38237918  0.57602025  0.46821816  1  -1.137865  0  -0.340559  -0.408545  0  3.189114  0
N  N346  1  0.88238689  0.57602157  0.03177713  1  -1.137959  0  -0.340483  -0.408458  0  3.189216  0
N  N347  1  0.61761959  0.42397873  0.53177867  1  -1.137921  0  -0.34051  -0.408619  0  3.188996  0
N  N348  1  0.17191404  0.49011559  0.05581356  1  -1.273158  0  -0.378529  -0.328776  0  3.578709  0
N  N349  1  0.32808418  0.50988148  0.55581029  1  -1.255115  0  -0.378593  -0.328869  0  3.578794  0
N  N350  1  0.82808771  0.50988511  0.94418471  1  -1.272863  0  -0.378556  -0.328692  0  3.578764  0
N  N351  1  0.67191714  0.49011415  0.44418654  1  -1.272986  0  -0.378578  -0.328823  0  3.578804  0
N  N352  1  0.17893651  0.26497021  0.05779749  1  -1.225392  0  -0.332376  -0.241744  0  3.530357  0
N  N353  1  0.32106184  0.73502741  0.55779616  1  -1.225421  0  -0.332289  -0.241686  0  3.530279  0
N  N354  1  0.82106471  0.73503105  0.94220461  1  -1.225465  0  -0.332307  -0.241684  0  3.530221  0
N  N355  1  0.67893842  0.26496933  0.44220354  1  -1.225438  0  -0.332323  -0.241665  0  3.530274  0
N  N356  1  0.94221607  0.62132442  0.36547597  1  -1.211912  0  -0.332485  -0.272861  0  3.335154  0
N  N357  1  0.55779138  0.37867584  0.86547472  1  -1.211959  0  -0.332467  -0.272744  0  3.335255  0
N  N358  1  0.05778569  0.37867628  0.63452709  1  -1.211675  0  -0.332511  -0.272873  0  3.335184  0
N  N359  1  0.44221846  0.62132607  0.13452498  1  -1.211734  0  -0.332496  -0.272818  0  3.335289  0
N  N360  1  0.84481827  0.46190690  0.55313217  1  -1.255241  0  -0.375719  -0.319522  0  3.559342  0
N  N361  1  0.65517780  0.53809319  0.05312946  1  -1.255088  0  -0.375736  -0.319389  0  3.559536  0
N  N362  1  0.15517678  0.53809599  0.44687281  1  -1.256086  0  -0.375812  -0.319556  0  3.559582  0
N  N363  1  0.34482192  0.46190411  0.94687455  1  -1.256135  0  -0.375901  -0.319606  0  3.559692  0
N  N364  1  0.90886587  0.41484308  0.46922406  1  -1.127235  0  -0.3328  -0.400041  0  3.195394  0
N  N365  1  0.59113225  0.58515485  0.96922010  1  -1.127055  0  -0.33281  -0.4  0  3.195319  0
N  N366  1  0.09112776  0.58515923  0.53077995  1  -1.127523  0  -0.332767  -0.400024  0  3.195391  0
N  N367  1  0.40887359  0.41484364  0.03078104  1  -1.127344  0  -0.332813  -0.400009  0  3.195427  0
N  N368  1  0.85686040  0.23778108  0.56300541  1  -1.221611  0  -0.331413  -0.259041  0  3.537196  0
N  N369  1  0.64313651  0.76221671  0.06300224  1  -1.221647  0  -0.331365  -0.258965  0  3.537103  0
N  N370  1  0.14313739  0.76222240  0.43699765  1  -1.221741  0  -0.331343  -0.259042  0  3.537267  0
N  N371  1  0.35686571  0.23778005  0.93699986  1  -1.221665  0  -0.331303  -0.258993  0  3.537281  0
N  N372  1  0.82121235  0.74469198  0.54360566  1  -1.149904  0  -0.347103  -0.426506  0  3.156062  0
N  N373  1  0.67878619  0.25530762  0.04360608  1  -1.149844  0  -0.347125  -0.426483  0  3.155993  0
N  N374  1  0.17878793  0.25531096  0.45639596  1  -1.149312  0  -0.347106  -0.42652  0  3.156238  0
N  N375  1  0.32121140  0.74469191  0.95639650  1  -1.149926  0  -0.347126  -0.426527  0  3.156155  0
N  N376  1  0.88894632  0.81851696  0.46340266  1  -1.297519  0  -0.368918  -0.302059  0  3.568597  0
N  N377  1  0.61105530  0.18148217  0.96340231  1  -1.297523  0  -0.368901  -0.302128  0  3.568503  0
N  N378  1  0.11105425  0.18148429  0.53659896  1  -1.29752  0  -0.368929  -0.302189  0  3.568548  0
N  N379  1  0.38894663  0.81851628  0.03659692  1  -1.29782  0  -0.368935  -0.302217  0  3.568545  0
N  N380  1  0.82953613  0.97487298  0.55601862  1  -1.212709  0  -0.335795  -0.240104  0  3.538821  0
N  N381  1  0.67046403  0.02512488  0.05601949  1  -1.214174  0  -0.335878  -0.240205  0  3.53883  0
N  N382  1  0.17046338  0.02512938  0.44398060  1  -1.214045  0  -0.335745  -0.240025  0  3.538686  0
N  N383  1  0.32953177  0.97487238  0.94398069  1  -1.214414  0  -0.335844  -0.240172  0  3.538924  0
O  O384  1  0.13615692  0.12878822  0.17158589  1  -1.166426  0  -0.331498  -0.554919  0  2.205227  0
O  O385  1  0.36384446  0.87120376  0.67158407  1  -1.166294  0  -0.331548  -0.554959  0  2.20515  0
O  O386  1  0.86383595  0.87120450  0.82841238  1  -1.166412  0  -0.331546  -0.554918  0  2.205241  0
O  O387  1  0.63616044  0.12879640  0.32841181  1  -1.166439  0  -0.331533  -0.554926  0  2.20522  0
O  O388  1  0.01332550  0.13881933  0.11699831  1  -1.207027  0  -0.34087  -0.596545  0  2.22928  0
O  O389  1  0.48667373  0.86117855  0.61699385  1  -1.206951  0  -0.340911  -0.596617  0  2.229401  0
O  O390  1  0.98666600  0.86118521  0.88300427  1  -1.207447  0  -0.340862  -0.596469  0  2.229327  0
O  O391  1  0.51332767  0.13882045  0.38300010  1  -1.20745  0  -0.340856  -0.596507  0  2.229312  0
O  O392  1  0.81088439  0.15616052  0.42000823  1  -1.200272  0  -0.339312  -0.595264  0  2.374815  0
O  O393  1  0.68911754  0.84384673  0.92001055  1  -1.200281  0  -0.339317  -0.595198  0  2.375012  0
O  O394  1  0.18911437  0.84384748  0.57999148  1  -1.200563  0  -0.339389  -0.595403  0  2.374949  0
O  O395  1  0.31088274  0.15615621  0.07998772  1  -1.200353  0  -0.33936  -0.595297  0  2.37502  0
O  O396  1  0.92176029  0.10740433  0.46381904  1  -1.164495  0  -0.324696  -0.546442  0  2.285186  0
O  O397  1  0.57823570  0.89259587  0.96381811  1  -1.164688  0  -0.324693  -0.546421  0  2.285079  0
O  O398  1  0.07823298  0.89259629  0.53618114  1  -1.164583  0  -0.32481  -0.546507  0  2.285045  0
O  O399  1  0.42176267  0.10740423  0.03617872  1  -1.164653  0  -0.324766  -0.546423  0  2.285084  0
O  O400  1  0.87037924  0.11506531  0.67595013  1  -1.149201  0  -0.326856  -0.546326  0  2.16867  0
O  O401  1  0.62961795  0.88493528  0.17595123  1  -1.149183  0  -0.326933  -0.546426  0  2.168679  0
O  O402  1  0.12961753  0.88493647  0.32405149  1  -1.149212  0  -0.326902  -0.546311  0  2.168905  0
O  O403  1  0.37037936  0.11506594  0.82404512  1  -1.149175  0  -0.326794  -0.546252  0  2.168691  0
O  O404  1  0.99274578  0.10887882  0.61935057  1  -1.194004  0  -0.33746  -0.585255  0  2.247565  0
O  O405  1  0.50725015  0.89112881  0.11935480  1  -1.194167  0  -0.337469  -0.585287  0  2.247625  0
O  O406  1  0.00725299  0.89112917  0.38065153  1  -1.194184  0  -0.337428  -0.585228  0  2.24767  0
O  O407  1  0.49274539  0.10887634  0.88064442  1  -1.194423  0  -0.337446  -0.585261  0  2.247514  0
O  O408  1  0.20282429  0.08326354  0.91908514  1  -1.200073  0  -0.337854  -0.591088  0  2.381332  0
O  O409  1  0.29717938  0.91674182  0.41909021  1  -1.200062  0  -0.337823  -0.590971  0  2.381116  0
O  O410  1  0.79717715  0.91673265  0.08091025  1  -1.200022  0  -0.337821  -0.590965  0  2.381208  0
O  O411  1  0.70282209  0.08326056  0.58090901  1  -1.200089  0  -0.337852  -0.591043  0  2.381052  0
O  O412  1  0.09567114  0.13638152  0.96334353  1  -1.168902  0  -0.328123  -0.558453  0  2.309193  0
O  O413  1  0.40432447  0.86361001  0.46334468  1  -1.169008  0  -0.328119  -0.558401  0  2.309332  0
O  O414  1  0.90433291  0.86361470  0.03665713  1  -1.168985  0  -0.328148  -0.558447  0  2.309286  0
O  O415  1  0.59566804  0.13638102  0.53665310  1  -1.168938  0  -0.328167  -0.558483  0  2.309214  0
