# generated using pymatgen
data_ZnH16C25N2O5
_symmetry_space_group_name_H-M   'P 1'
_cell_length_a   17.00274029
_cell_length_b   17.00253490
_cell_length_c   32.95812305
_cell_angle_alpha   88.06119952
_cell_angle_beta   88.06123137
_cell_angle_gamma   69.97892327
_symmetry_Int_Tables_number   1
_chemical_formula_structural   ZnH16C25N2O5
_chemical_formula_sum   'Zn8 H128 C200 N16 O40'
_cell_volume   8944.41785488
_cell_formula_units_Z   8
loop_
 _symmetry_equiv_pos_site_id
 _symmetry_equiv_pos_as_xyz
  1  'x, y, z'
loop_
 _atom_site_type_symbol
 _atom_site_label
 _atom_site_symmetry_multiplicity
 _atom_site_fract_x
 _atom_site_fract_y
 _atom_site_fract_z
 _atom_site_occupancy
 _atom_site_pbe_bader_charge
 _atom_site_pbe_bader_spin_density
 _atom_site_pbe_cm5_charge
 _atom_site_pbe_ddec_charge
 _atom_site_pbe_ddec_spin_density
 _atom_site_pbe_ddec_sum_bond_order
 _atom_site_pbe_magmom
Zn  Zn0  1  0.14552861  0.68541777  0.55720202  1  1.250162  0  0.702498  0.691562  0  2.449126  0
Zn  Zn1  1  0.68541725  0.14553666  0.05719903  1  1.250097  0  0.702489  0.691509  0  2.449205  0
Zn  Zn2  1  0.85446213  0.31458335  0.44280030  1  1.249946  0  0.702479  0.691456  0  2.449236  0
Zn  Zn3  1  0.31458475  0.85446122  0.94280041  1  1.249959  0  0.702502  0.691521  0  2.449099  0
Zn  Zn4  1  0.20516910  0.13545409  0.81235444  1  1.32694  0  0.691652  0.937022  0  2.255951  0
Zn  Zn5  1  0.13546309  0.20516742  0.31234992  1  1.326746  0  0.691678  0.937097  0  2.25582  0
Zn  Zn6  1  0.79483545  0.86453589  0.18764905  1  1.326752  0  0.691683  0.93713  0  2.255808  0
Zn  Zn7  1  0.86453701  0.79483699  0.68764974  1  1.326808  0  0.691662  0.937022  0  2.255982  0
H  H8  1  0.22049335  0.71237796  0.70986897  1  0.079652  0  0.099673  0.116252  0  1.026894  0
H  H9  1  0.71238153  0.22049526  0.20986875  1  0.079534  0  0.099605  0.116213  0  1.026864  0
H  H10  1  0.77950928  0.28761736  0.29013081  1  0.079724  0  0.099622  0.116187  0  1.02693  0
H  H11  1  0.28761984  0.77950578  0.79013125  1  0.079555  0  0.099629  0.116215  0  1.026887  0
H  H12  1  0.21940136  0.55546334  0.70550098  1  0.079993  0  0.100876  0.116519  0  1.020883  0
H  H13  1  0.55546759  0.21940310  0.20549923  1  0.080115  0  0.100887  0.116529  0  1.02097  0
H  H14  1  0.78060753  0.44453221  0.29449868  1  0.080066  0  0.10091  0.116542  0  1.020964  0
H  H15  1  0.44453251  0.78060013  0.79449984  1  0.080068  0  0.100904  0.11654  0  1.020961  0
H  H16  1  0.18133568  0.36588639  0.58562568  1  0.080855  0  0.103694  0.122589  0  1.014104  0
H  H17  1  0.36589940  0.18133063  0.08562571  1  0.080766  0  0.103744  0.122595  0  1.014202  0
H  H18  1  0.81866945  0.63410807  0.41437346  1  0.080957  0  0.10371  0.122576  0  1.014277  0
H  H19  1  0.63410576  0.81866149  0.91437530  1  0.080717  0  0.103716  0.122602  0  1.014213  0
H  H20  1  0.15177857  0.39015042  0.50631865  1  0.108555  0  0.099557  0.112038  0  1.048793  0
H  H21  1  0.39015575  0.15177735  0.00631844  1  0.108225  0  0.099606  0.112101  0  1.048783  0
H  H22  1  0.84822155  0.60984928  0.49368140  1  0.10856  0  0.09957  0.112061  0  1.048759  0
H  H23  1  0.60984941  0.84821359  0.99368349  1  0.108263  0  0.099591  0.11211  0  1.048652  0
H  H24  1  0.11188860  0.64602811  0.40032274  1  0.091492  0  0.103763  0.122953  0  1.013406  0
H  H25  1  0.64602236  0.11190403  0.90031906  1  0.091915  0  0.103743  0.122964  0  1.013388  0
H  H26  1  0.88808648  0.35397949  0.59968036  1  0.09206  0  0.103725  0.122911  0  1.013417  0
H  H27  1  0.35397837  0.88809899  0.09968000  1  0.091553  0  0.103714  0.122903  0  1.013466  0
H  H28  1  0.11354704  0.80327227  0.40524005  1  0.084165  0  0.103913  0.123701  0  1.010344  0
H  H29  1  0.80326993  0.11355463  0.90523737  1  0.08433  0  0.103941  0.123742  0  1.010267  0
H  H30  1  0.88643869  0.19673172  0.59476110  1  0.084395  0  0.103899  0.123659  0  1.010315  0
H  H31  1  0.19673395  0.88644439  0.09476232  1  0.084371  0  0.10392  0.123712  0  1.010371  0
H  H32  1  0.16436781  0.98638947  0.52277527  1  0.087698  0  0.104485  0.122847  0  1.012182  0
H  H33  1  0.98638426  0.16437316  0.02277182  1  0.087546  0  0.104467  0.122854  0  1.012103  0
H  H34  1  0.83562856  0.01361210  0.47722633  1  0.087463  0  0.104484  0.122864  0  1.012245  0
H  H35  1  0.01361585  0.83562771  0.97722699  1  0.087568  0  0.104458  0.122872  0  1.012182  0
H  H36  1  0.19085076  0.96349636  0.60310562  1  0.057624  0  0.104325  0.123445  0  1.009693  0
H  H37  1  0.96349491  0.19085220  0.10310217  1  0.057973  0  0.104277  0.123422  0  1.009789  0
H  H38  1  0.80915188  0.03649896  0.39689507  1  0.05775  0  0.104303  0.123422  0  1.009661  0
H  H39  1  0.03650457  0.80915006  0.89689663  1  0.057952  0  0.104296  0.123473  0  1.009756  0
H  H40  1  0.07851855  0.92683443  0.67486010  1  0.080754  0  0.107576  0.11544  0  0.984232  0
H  H41  1  0.92683427  0.07851801  0.17485940  1  0.080741  0  0.107592  0.115467  0  0.984201  0
H  H42  1  0.92148031  0.07316863  0.32513930  1  0.080742  0  0.107559  0.115408  0  0.98427  0
H  H43  1  0.07316897  0.92148180  0.82513968  1  0.080718  0  0.107605  0.115494  0  0.98421  0
H  H44  1  0.11028129  0.01072111  0.72902161  1  0.08589  0  0.1092  0.113612  0  0.989868  0
H  H45  1  0.01072976  0.11027937  0.22901710  1  0.085618  0  0.109178  0.113676  0  0.98979  0
H  H46  1  0.88972386  0.98927278  0.27098027  1  0.085723  0  0.109176  0.11364  0  0.989759  0
H  H47  1  0.98927597  0.88972312  0.77098036  1  0.085761  0  0.109181  0.113626  0  0.989787  0
H  H48  1  0.37255378  0.86792130  0.71620721  1  0.103674  0  0.109442  0.112897  0  0.992408  0
H  H49  1  0.86792984  0.37255535  0.21620447  1  0.103699  0  0.109459  0.112905  0  0.992365  0
H  H50  1  0.62745075  0.13206807  0.28379295  1  0.104095  0  0.10944  0.112888  0  0.992406  0
H  H51  1  0.13206777  0.62744638  0.78379468  1  0.10415  0  0.109455  0.11292  0  0.992374  0
H  H52  1  0.34082590  0.78431756  0.66203893  1  0.075021  0  0.107164  0.111873  0  0.985554  0
H  H53  1  0.78431950  0.34082683  0.16203997  1  0.075035  0  0.107134  0.111864  0  0.98561  0
H  H54  1  0.65917235  0.21567865  0.33796001  1  0.075094  0  0.107133  0.11183  0  0.985535  0
H  H55  1  0.21567687  0.65917179  0.83796108  1  0.075046  0  0.107139  0.111855  0  0.98563  0
H  H56  1  0.34996733  0.00651133  0.79305734  1  0.656415  0  0.297416  0.357021  0  0.995358  0
H  H57  1  0.00652443  0.34997020  0.29305143  1  0.656423  0  0.297383  0.356904  0  0.995389  0
H  H58  1  0.65003595  0.99348024  0.20694280  1  0.656569  0  0.297461  0.357013  0  0.995396  0
H  H59  1  0.99348562  0.65003902  0.70693823  1  0.656456  0  0.297403  0.356932  0  0.995482  0
H  H60  1  0.08620320  0.50688819  0.68684112  1  0.138424  0  0.108597  0.126374  0  1.02875  0
H  H61  1  0.50690300  0.08618834  0.18683523  1  0.138734  0  0.108605  0.1265  0  1.028592  0
H  H62  1  0.91381073  0.49310274  0.31316247  1  0.138445  0  0.108587  0.126404  0  1.028688  0
H  H63  1  0.49310088  0.91380773  0.81316542  1  0.13877  0  0.10857  0.126442  0  1.028675  0
H  H64  1  0.10288148  0.39278230  0.73657088  1  0.022765  0  0.105743  0.090693  0  1.009469  0
H  H65  1  0.39279476  0.10286136  0.23656362  1  0.022884  0  0.105651  0.090563  0  1.009388  0
H  H66  1  0.89713620  0.60720912  0.26343384  1  0.022784  0  0.105659  0.090569  0  1.009469  0
H  H67  1  0.60720412  0.89713463  0.76343440  1  0.02284  0  0.105686  0.090614  0  1.009427  0
H  H68  1  0.33506160  0.24723476  0.67655270  1  0.105229  0  0.113727  0.116472  0  0.985692  0
H  H69  1  0.24723899  0.33504739  0.17655124  1  0.105582  0  0.11372  0.116411  0  0.985778  0
H  H70  1  0.66495291  0.75276536  0.32344706  1  0.105534  0  0.11371  0.116363  0  0.985842  0
H  H71  1  0.75276051  0.66494543  0.82344440  1  0.105454  0  0.113667  0.116373  0  0.985767  0
H  H72  1  0.31712550  0.36537797  0.62639835  1  0.084262  0  0.110976  0.115238  0  0.981259  0
H  H73  1  0.36537965  0.31712056  0.12639797  1  0.084127  0  0.110929  0.115199  0  0.981382  0
H  H74  1  0.68288149  0.63462352  0.37360002  1  0.084249  0  0.110868  0.115096  0  0.981405  0
H  H75  1  0.63462173  0.68287459  0.87360092  1  0.084289  0  0.110939  0.115145  0  0.981358  0
H  H76  1  0.12489040  0.29211713  0.76523376  1  0.631397  0  0.347279  0.389885  0  0.863298  0
H  H77  1  0.29212190  0.12488186  0.26522976  1  0.631314  0  0.347325  0.389884  0  0.863368  0
H  H78  1  0.87511851  0.70787489  0.23476808  1  0.631274  0  0.347277  0.389857  0  0.863384  0
H  H79  1  0.70787193  0.87512525  0.73476784  1  0.631096  0  0.347266  0.389791  0  0.863412  0
H  H80  1  0.99520892  0.57312181  0.43937981  1  0.079053  0  0.101851  0.108508  0  1.014743  0
H  H81  1  0.57312532  0.99521236  0.93937829  1  0.079032  0  0.101845  0.108494  0  1.01465  0
H  H82  1  0.00478621  0.42687428  0.56061948  1  0.078987  0  0.101849  0.108496  0  1.014657  0
H  H83  1  0.42687418  0.00478519  0.06062151  1  0.079045  0  0.101847  0.108483  0  1.014705  0
H  H84  1  0.97894799  0.48954057  0.38173571  1  0.078223  0  0.101321  0.099999  0  1.041963  0
H  H85  1  0.48954361  0.97894913  0.88173484  1  0.078226  0  0.101332  0.099994  0  1.041963  0
H  H86  1  0.02105210  0.51046264  0.61825911  1  0.078336  0  0.101278  0.099911  0  1.042093  0
H  H87  1  0.51045399  0.02105318  0.11826399  1  0.078206  0  0.101321  0.09998  0  1.042017  0
H  H88  1  0.24111487  0.34438164  0.38445431  1  0.085952  0  0.103768  0.109121  0  0.997677  0
H  H89  1  0.34438518  0.24111832  0.88445158  1  0.085868  0  0.103763  0.109156  0  0.99778  0
H  H90  1  0.75889272  0.65562788  0.61554511  1  0.085776  0  0.103786  0.109052  0  0.997937  0
H  H91  1  0.65561806  0.75888563  0.11555045  1  0.085933  0  0.103752  0.109118  0  0.997698  0
H  H92  1  0.25800104  0.42859598  0.44225951  1  0.060074  0  0.103646  0.107846  0  0.990439  0
H  H93  1  0.42859841  0.25800842  0.94225734  1  0.059975  0  0.103594  0.107783  0  0.990405  0
H  H94  1  0.74199467  0.57141404  0.55774224  1  0.060002  0  0.103599  0.107746  0  0.990385  0
H  H95  1  0.57140547  0.74199297  0.05774564  1  0.059995  0  0.103601  0.107808  0  0.990559  0
H  H96  1  0.00243899  0.97489368  0.46576176  1  0.079192  0  0.099119  0.101238  0  1.034334  0
H  H97  1  0.97489152  0.00244102  0.96576283  1  0.079161  0  0.09912  0.101226  0  1.034385  0
H  H98  1  0.99755173  0.02510918  0.53423567  1  0.079334  0  0.099157  0.101292  0  1.034407  0
H  H99  1  0.02511112  0.99755548  0.03423723  1  0.078763  0  0.09916  0.101305  0  1.03433  0
H  H100  1  0.99499261  0.08956081  0.41550519  1  0.117796  0  0.103897  0.106025  0  1.03739  0
H  H101  1  0.08956064  0.99499388  0.91550679  1  0.117872  0  0.103915  0.106011  0  1.037318  0
H  H102  1  0.00499812  0.91043970  0.58449198  1  0.118052  0  0.103861  0.10589  0  1.037451  0
H  H103  1  0.91044387  0.00500198  0.08449415  1  0.117746  0  0.10388  0.106004  0  1.037397  0
H  H104  1  0.25810694  0.97493902  0.38786116  1  0.071339  0  0.104767  0.109847  0  0.995938  0
H  H105  1  0.97493863  0.25811160  0.88785972  1  0.071173  0  0.104775  0.109849  0  0.99587  0
H  H106  1  0.74188317  0.02506231  0.61213965  1  0.071043  0  0.104791  0.109858  0  0.995864  0
H  H107  1  0.02506526  0.74188624  0.11214241  1  0.071136  0  0.104768  0.109813  0  0.995889  0
H  H108  1  0.26650030  0.86198663  0.44022740  1  0.080237  0  0.105767  0.110303  0  0.986795  0
H  H109  1  0.86198502  0.26650426  0.94022568  1  0.080148  0  0.105765  0.110341  0  0.986764  0
H  H110  1  0.73349169  0.13801465  0.55977277  1  0.080033  0  0.105744  0.110368  0  0.986719  0
H  H111  1  0.13801387  0.73349233  0.05977505  1  0.080056  0  0.105782  0.110393  0  0.986785  0
H  H112  1  0.98616670  0.76869409  0.59196669  1  0.642839  0  0.297731  0.353955  0  0.981007  0
H  H113  1  0.76868522  0.98617228  0.09196540  1  0.642945  0  0.297601  0.35366  0  0.981317  0
H  H114  1  0.01382339  0.23131372  0.40803491  1  0.642962  0  0.297577  0.353718  0  0.981314  0
H  H115  1  0.23130803  0.01382504  0.90803513  1  0.642896  0  0.297566  0.353694  0  0.981292  0
H  H116  1  0.89653129  0.71455736  0.56412643  1  0.041544  0  0.090718  0.047595  0  1.014279  0
H  H117  1  0.71454894  0.89653458  0.06412639  1  0.041263  0  0.090674  0.047474  0  1.014213  0
H  H118  1  0.10345878  0.28545043  0.43587092  1  0.04132  0  0.090702  0.047552  0  1.014285  0
H  H119  1  0.28544056  0.10346342  0.93587328  1  0.041275  0  0.090706  0.047583  0  1.014335  0
H  H120  1  0.97743679  0.65759691  0.52990374  1  0.048441  0  0.100542  0.072964  0  0.984128  0
H  H121  1  0.65758976  0.97744069  0.02990184  1  0.048257  0  0.100569  0.072998  0  0.984068  0
H  H122  1  0.02255768  0.34241059  0.47009687  1  0.048265  0  0.100556  0.073015  0  0.984028  0
H  H123  1  0.34240097  0.02256101  0.97009835  1  0.048418  0  0.100583  0.073052  0  0.984089  0
H  H124  1  0.89426674  0.84953401  0.52698082  1  0.024807  0  0.086809  0.046575  0  1.00934  0
H  H125  1  0.84952777  0.89426933  0.02698409  1  0.024866  0  0.08683  0.046586  0  1.009285  0
H  H126  1  0.10573398  0.15047136  0.47301699  1  0.024886  0  0.086809  0.046579  0  1.009255  0
H  H127  1  0.15046546  0.10573684  0.97301991  1  0.024843  0  0.086857  0.046602  0  1.009334  0
H  H128  1  0.96857638  0.78793947  0.49112891  1  0.070633  0  0.101252  0.080771  0  0.990305  0
H  H129  1  0.78793670  0.96858006  0.99113115  1  0.070303  0  0.101257  0.08077  0  0.990296  0
H  H130  1  0.03142247  0.21206419  0.50886957  1  0.070434  0  0.101264  0.080753  0  0.990306  0
H  H131  1  0.21205591  0.03142455  0.00887107  1  0.070606  0  0.101281  0.08084  0  0.990179  0
H  H132  1  0.80478859  0.78282452  0.50579843  1  0.568728  0  0.316687  0.335238  0  0.915107  0
H  H133  1  0.78282078  0.80479305  0.00579828  1  0.56878  0  0.316721  0.335326  0  0.915074  0
H  H134  1  0.19520838  0.21718213  0.49420094  1  0.568737  0  0.316661  0.335255  0  0.915137  0
H  H135  1  0.21717495  0.19521049  0.99420329  1  0.568822  0  0.316693  0.335274  0  0.91503  0
C  C136  1  0.17676810  0.83818742  0.59317677  1  0.46202  0  0.089193  0.182794  0  4.067589  0
C  C137  1  0.83818510  0.17677273  0.09317479  1  0.462035  0  0.08914  0.18286  0  4.067508  0
C  C138  1  0.82322388  0.16181622  0.40682396  1  0.461862  0  0.08916  0.182836  0  4.067535  0
C  C139  1  0.16181690  0.82322515  0.90682464  1  0.462074  0  0.089214  0.182927  0  4.067552  0
C  C140  1  0.19049451  0.80079304  0.63226865  1  0.034715  0  -0.001084  -0.081868  0  3.936867  0
C  C141  1  0.80079339  0.19049278  0.13226856  1  0.034455  0  -0.001107  -0.081926  0  3.936866  0
C  C142  1  0.80950498  0.19920745  0.36773079  1  0.034423  0  -0.001065  -0.081888  0  3.93692  0
C  C143  1  0.19920673  0.80950515  0.86773183  1  0.034389  0  -0.001135  -0.082011  0  3.937002  0
C  C144  1  0.19320634  0.71919165  0.64295755  1  0.393022  0  0.089964  0.192102  0  4.049188  0
C  C145  1  0.71919418  0.19321049  0.14295640  1  0.393559  0  0.090005  0.192033  0  4.049404  0
C  C146  1  0.80678941  0.28080776  0.35704288  1  0.393352  0  0.089943  0.192003  0  4.049307  0
C  C147  1  0.28080782  0.80678916  0.85704361  1  0.393355  0  0.089919  0.191979  0  4.049305  0
C  C148  1  0.20963584  0.68180434  0.68331162  1  -0.072061  0  -0.10902  -0.187505  0  3.991008  0
C  C149  1  0.68180835  0.20963818  0.18331107  1  -0.072077  0  -0.109006  -0.187458  0  3.991005  0
C  C150  1  0.79036491  0.31819279  0.31668756  1  -0.072266  0  -0.109003  -0.187385  0  3.990891  0
C  C151  1  0.31819301  0.79036404  0.81668799  1  -0.07217  0  -0.108985  -0.187422  0  3.990947  0
C  C152  1  0.20874863  0.60207987  0.68108947  1  -0.052106  0  -0.106595  -0.18059  0  3.985829  0
C  C153  1  0.60208359  0.20875131  0.18108740  1  -0.052062  0  -0.106527  -0.180555  0  3.985981  0
C  C154  1  0.79125461  0.39791936  0.31890992  1  -0.052152  0  -0.10658  -0.180634  0  3.98588  0
C  C155  1  0.39791840  0.79124834  0.81891139  1  -0.052037  0  -0.106581  -0.18059  0  3.985959  0
C  C156  1  0.19132727  0.59042843  0.63935568  1  0.429796  0  0.094368  0.200134  0  4.030544  0
C  C157  1  0.59043189  0.19133272  0.13935387  1  0.429435  0  0.09441  0.200153  0  4.030648  0
C  C158  1  0.80867035  0.40957034  0.36064413  1  0.429721  0  0.094348  0.200074  0  4.030484  0
C  C159  1  0.40956948  0.80866655  0.86064525  1  0.429716  0  0.094392  0.200141  0  4.030627  0
C  C160  1  0.18954928  0.51478005  0.62382944  1  0.060031  0  -0.0015  -0.08825  0  3.927429  0
C  C161  1  0.51478592  0.18955125  0.12382735  1  0.060044  0  -0.001547  -0.088406  0  3.92752  0
C  C162  1  0.81045273  0.48521666  0.37617184  1  0.060044  0  -0.001504  -0.088319  0  3.927264  0
C  C163  1  0.48521609  0.81044723  0.87617268  1  0.010984  0  -0.001607  -0.088632  0  3.927467  0
C  C164  1  0.17852143  0.50021503  0.58283362  1  0.401365  0  0.092041  0.18737  0  4.049241  0
C  C165  1  0.50021995  0.17852532  0.08283060  1  0.401075  0  0.092106  0.187405  0  4.049495  0
C  C166  1  0.82147557  0.49978397  0.41716831  1  0.40108  0  0.092026  0.187417  0  4.049396  0
C  C167  1  0.49978268  0.82147235  0.91716913  1  0.450127  0  0.092244  0.187749  0  4.049267  0
C  C168  1  0.17503224  0.42235125  0.56769865  1  -0.019766  0  -0.106553  -0.19011  0  3.986042  0
C  C169  1  0.42235949  0.17502961  0.06769690  1  -0.004487  0  -0.106635  -0.190058  0  3.986425  0
C  C170  1  0.82496915  0.57764626  0.43230202  1  -0.019711  0  -0.106641  -0.190185  0  3.986363  0
C  C171  1  0.57764441  0.82496469  0.93230348  1  -0.004506  0  -0.106644  -0.190242  0  3.986514  0
C  C172  1  0.16001183  0.43474453  0.52710265  1  -0.164474  0  -0.105156  -0.180961  0  3.988007  0
C  C173  1  0.43474973  0.16001140  0.02710153  1  -0.179048  0  -0.105255  -0.181131  0  3.988112  0
C  C174  1  0.83998829  0.56525517  0.47289770  1  -0.164476  0  -0.105157  -0.180951  0  3.987882  0
C  C175  1  0.56525417  0.83998113  0.97289919  1  -0.179185  0  -0.105221  -0.18107  0  3.988014  0
C  C176  1  0.15438831  0.52007162  0.51714939  1  0.445802  0  0.089212  0.184387  0  4.051246  0
C  C177  1  0.52007541  0.15439082  0.01714581  1  0.445892  0  0.089337  0.184625  0  4.051084  0
C  C178  1  0.84560931  0.47992894  0.48285312  1  0.445808  0  0.089257  0.184452  0  4.051067  0
C  C179  1  0.47992659  0.84560766  0.98285423  1  0.445926  0  0.089288  0.184491  0  4.051182  0
C  C180  1  0.13788872  0.55804815  0.47827108  1  -0.012338  0  0.001047  -0.076526  0  3.930952  0
C  C181  1  0.55805045  0.13789145  0.97826901  1  -0.011991  0  0.00101  -0.076784  0  3.931183  0
C  C182  1  0.86210702  0.44195480  0.52173050  1  -0.01253  0  0.00105  -0.076614  0  3.931107  0
C  C183  1  0.44195217  0.86210740  0.02173101  1  -0.012167  0  0.001041  -0.076629  0  3.93094  0
C  C184  1  0.13141881  0.64113640  0.46798082  1  0.485794  0  0.091792  0.18769  0  4.050115  0
C  C185  1  0.64113657  0.13142772  0.96797716  1  0.485771  0  0.091828  0.187774  0  4.049927  0
C  C186  1  0.86856818  0.35886717  0.53202152  1  0.485872  0  0.091843  0.187729  0  4.049983  0
C  C187  1  0.35886355  0.86857316  0.03202347  1  0.485722  0  0.091797  0.187732  0  4.049962  0
C  C188  1  0.11927057  0.67755438  0.42726254  1  -0.048569  0  -0.105008  -0.1812  0  3.981487  0
C  C189  1  0.67754923  0.11928384  0.92725889  1  -0.049493  0  -0.105075  -0.18125  0  3.981484  0
C  C190  1  0.88071014  0.32245308  0.57274046  1  -0.049586  0  -0.105053  -0.181188  0  3.981448  0
C  C191  1  0.32245088  0.88071880  0.07274049  1  -0.049109  0  -0.105073  -0.181229  0  3.981514  0
C  C192  1  0.12037019  0.75724106  0.42971352  1  -0.089017  0  -0.106284  -0.185846  0  3.990514  0
C  C193  1  0.75723664  0.12037932  0.92971115  1  -0.088963  0  -0.106239  -0.185925  0  3.990364  0
C  C194  1  0.87961365  0.24276533  0.57028792  1  -0.088918  0  -0.106256  -0.185906  0  3.990404  0
C  C195  1  0.24276412  0.87961781  0.07028893  1  -0.088999  0  -0.106242  -0.185965  0  3.990308  0
C  C196  1  0.13343722  0.76970206  0.47186748  1  0.458411  0  0.088515  0.179785  0  4.071059  0
C  C197  1  0.76970122  0.13344449  0.97186509  1  0.458828  0  0.088502  0.179895  0  4.070894  0
C  C198  1  0.86655162  0.23030323  0.52813388  1  0.458135  0  0.088479  0.17994  0  4.071003  0
C  C199  1  0.23030392  0.86654938  0.02813467  1  0.458568  0  0.088503  0.180096  0  4.070701  0
C  C200  1  0.14045462  0.84331213  0.48689930  1  -0.040981  0  0.000291  -0.075475  0  3.93677  0
C  C201  1  0.84331270  0.14046049  0.98689569  1  -0.04109  0  0.000186  -0.075579  0  3.936919  0
C  C202  1  0.85953612  0.15669017  0.51310209  1  -0.040659  0  0.00032  -0.075576  0  3.936903  0
C  C203  1  0.15669056  0.85953697  0.01310374  1  -0.041042  0  0.000167  -0.07583  0  3.937079  0
C  C204  1  0.15478520  0.85702120  0.52738485  1  0.422975  0  0.088666  0.183507  0  4.058503  0
C  C205  1  0.85701851  0.15479290  0.02738403  1  0.423304  0  0.088674  0.183434  0  4.058667  0
C  C206  1  0.84520241  0.14298215  0.47261597  1  0.423518  0  0.088648  0.183548  0  4.05875  0
C  C207  1  0.14298412  0.84520478  0.97261631  1  0.423245  0  0.088696  0.183553  0  4.058585  0
C  C208  1  0.16597613  0.93214889  0.54155042  1  -0.077938  0  -0.105536  -0.184036  0  3.984888  0
C  C209  1  0.93214274  0.16598298  0.04154817  1  -0.078346  0  -0.105415  -0.183827  0  3.98457  0
C  C210  1  0.83401585  0.06785416  0.45845032  1  -0.078286  0  -0.105498  -0.184081  0  3.985105  0
C  C211  1  0.06785739  0.83401613  0.95845219  1  -0.078392  0  -0.105447  -0.183955  0  3.984702  0
C  C212  1  0.17945346  0.92056094  0.58234235  1  -0.053049  0  -0.105844  -0.18556  0  3.97966  0
C  C213  1  0.92055396  0.17945665  0.08234140  1  -0.052682  0  -0.105787  -0.185658  0  3.979628  0
C  C214  1  0.82054289  0.07944297  0.41765769  1  -0.052558  0  -0.105743  -0.185441  0  3.979537  0
C  C215  1  0.07944428  0.82054427  0.91765927  1  -0.052784  0  -0.105806  -0.185671  0  3.979589  0
C  C216  1  0.20784438  0.85070509  0.66491863  1  -0.012071  0  0.009056  0.108902  0  3.995144  0
C  C217  1  0.85070856  0.20784284  0.16491726  1  -0.011958  0  0.00903  0.108981  0  3.994914  0
C  C218  1  0.79215638  0.14929204  0.33508176  1  -0.01199  0  0.008977  0.108826  0  3.995131  0
C  C219  1  0.14929280  0.79215702  0.83508184  1  -0.01197  0  0.009047  0.108942  0  3.994983  0
C  C220  1  0.14285380  0.91458805  0.68388604  1  -0.062918  0  -0.083469  -0.134343  0  3.962763  0
C  C221  1  0.91459176  0.14285514  0.18388340  1  -0.063076  0  -0.083553  -0.134441  0  3.962735  0
C  C222  1  0.85714570  0.08541245  0.31611461  1  -0.062988  0  -0.083442  -0.134282  0  3.962762  0
C  C223  1  0.08541210  0.85714623  0.81611533  1  -0.062999  0  -0.083481  -0.13438  0  3.962873  0
C  C224  1  0.16030376  0.96119573  0.71401545  1  0.001767  0  -0.077527  -0.076694  0  3.97145  0
C  C225  1  0.96120322  0.16030205  0.21401068  1  0.002043  0  -0.077455  -0.076735  0  3.971253  0
C  C226  1  0.83969888  0.03880077  0.28598704  1  0.001846  0  -0.077517  -0.07674  0  3.971276  0
C  C227  1  0.03880252  0.83969868  0.78598651  1  0.00199  0  -0.077529  -0.07672  0  3.971366  0
C  C228  1  0.24323406  0.94458070  0.72558970  1  0.017756  0  -0.021792  -0.064471  0  4.009136  0
C  C229  1  0.94459378  0.24323374  0.22558359  1  0.017533  0  -0.021868  -0.064716  0  4.009105  0
C  C230  1  0.75676860  0.05540932  0.27441290  1  0.017356  0  -0.021762  -0.064558  0  4.009136  0
C  C231  1  0.05541195  0.75676698  0.77441239  1  0.01761  0  -0.021788  -0.06459  0  4.00915  0
C  C232  1  0.30842108  0.88034409  0.70698025  1  -0.068868  0  -0.078181  -0.077401  0  3.976762  0
C  C233  1  0.88035103  0.30842389  0.20697844  1  -0.068101  0  -0.078104  -0.0771  0  3.976499  0
C  C234  1  0.69157969  0.11964832  0.29301961  1  -0.068404  0  -0.078155  -0.077239  0  3.976717  0
C  C235  1  0.11964845  0.69157779  0.79302037  1  -0.068716  0  -0.078175  -0.077273  0  3.976652  0
C  C236  1  0.29058851  0.83394870  0.67691928  1  -0.041688  0  -0.085223  -0.139225  0  3.975673  0
C  C237  1  0.83395315  0.29059014  0.17691874  1  -0.042266  0  -0.085237  -0.139408  0  3.975627  0
C  C238  1  0.70941163  0.16604393  0.32308029  1  -0.042357  0  -0.0852  -0.139251  0  3.97557  0
C  C239  1  0.16604634  0.70941154  0.82308097  1  -0.042298  0  -0.08524  -0.139345  0  3.975572  0
C  C240  1  0.26126235  0.99497449  0.75729638  1  1.515908  0  0.246945  0.61253  0  4.094632  0
C  C241  1  0.99499159  0.26126072  0.25729052  1  1.513258  0  0.246995  0.612805  0  4.093922  0
C  C242  1  0.73874408  0.00501191  0.24270683  1  1.513316  0  0.24704  0.612907  0  4.094209  0
C  C243  1  0.00501601  0.73874290  0.74270598  1  1.515976  0  0.24704  0.612894  0  4.093878  0
C  C244  1  0.20060732  0.44409071  0.65338381  1  0.002206  0  0.014664  0.115597  0  3.967661  0
C  C245  1  0.44410089  0.20060011  0.15338211  1  0.003001  0  0.014694  0.115914  0  3.9677  0
C  C246  1  0.79939908  0.55590393  0.34661774  1  0.002945  0  0.014707  0.115787  0  3.96748  0
C  C247  1  0.55590301  0.79939242  0.84661770  1  0.002733  0  0.014592  0.115864  0  3.967234  0
C  C248  1  0.14117371  0.45032762  0.68494373  1  -0.027437  0  -0.082667  -0.123701  0  3.930478  0
C  C249  1  0.45034074  0.14116435  0.18493838  1  -0.028475  0  -0.082716  -0.124085  0  3.930775  0
C  C250  1  0.85883395  0.54966601  0.31505992  1  -0.028379  0  -0.08271  -0.123857  0  3.930473  0
C  C251  1  0.54966189  0.85883273  0.81506106  1  -0.028638  0  -0.082674  -0.123995  0  3.930279  0
C  C252  1  0.15116141  0.38438721  0.71268453  1  -0.093463  0  -0.085339  -0.099676  0  4.017261  0
C  C253  1  0.38439835  0.15114677  0.21267931  1  -0.093469  0  -0.085108  -0.099161  0  4.016888  0
C  C254  1  0.84885250  0.61560843  0.28731806  1  -0.093114  0  -0.085136  -0.099261  0  4.017009  0
C  C255  1  0.61560051  0.84885276  0.78731863  1  -0.093126  0  -0.085148  -0.099243  0  4.016864  0
C  C256  1  0.22100373  0.31053505  0.70972491  1  -0.008324  0  -0.030261  -0.088758  0  4.072986  0
C  C257  1  0.31054421  0.22099352  0.20971964  1  -0.008381  0  -0.03025  -0.089161  0  4.073286  0
C  C258  1  0.77900642  0.68946068  0.29027745  1  -0.008158  0  -0.030127  -0.089108  0  4.073713  0
C  C259  1  0.68945277  0.77900486  0.79027533  1  -0.008068  0  -0.030139  -0.08912  0  4.073404  0
C  C260  1  0.28076162  0.30441171  0.67834031  1  0.001417  0  -0.072711  -0.066866  0  3.964255  0
C  C261  1  0.30441903  0.28075153  0.17833628  1  0.001524  0  -0.072755  -0.066721  0  3.964278  0
C  C262  1  0.71924852  0.69558519  0.32166082  1  0.000972  0  -0.072841  -0.066854  0  3.964684  0
C  C263  1  0.69558046  0.71924424  0.82165900  1  0.00105  0  -0.072778  -0.066759  0  3.964647  0
C  C264  1  0.27042789  0.37015180  0.65054911  1  -0.048814  0  -0.080667  -0.129955  0  3.961448  0
C  C265  1  0.37016287  0.27042116  0.15054616  1  -0.049166  0  -0.080653  -0.130106  0  3.961338  0
C  C266  1  0.72957975  0.62984358  0.34945058  1  -0.048932  0  -0.0806  -0.129858  0  3.961224  0
C  C267  1  0.62984414  0.72957383  0.84945020  1  -0.048939  0  -0.08062  -0.12996  0  3.961448  0
C  C268  1  0.23615103  0.23776859  0.73779836  1  1.444309  0  0.234528  0.569379  0  4.086204  0
C  C269  1  0.23777776  0.23613716  0.23779315  1  1.443851  0  0.234359  0.569589  0  4.085591  0
C  C270  1  0.76386225  0.76222608  0.26220548  1  1.443967  0  0.234427  0.569768  0  4.085793  0
C  C271  1  0.76221545  0.76386308  0.76220094  1  1.443807  0  0.234319  0.569688  0  4.085776  0
C  C272  1  0.12779579  0.50645118  0.44455654  1  -0.015974  0  0.003791  0.100916  0  3.99834  0
C  C273  1  0.50645529  0.12779880  0.94455413  1  -0.010631  0  0.003705  0.100821  0  3.998641  0
C  C274  1  0.87219932  0.49355022  0.55544417  1  -0.015915  0  0.00371  0.100809  0  3.998538  0
C  C275  1  0.49354671  0.87219968  0.05544651  1  -0.010406  0  0.003649  0.100754  0  3.998428  0
C  C276  1  0.04934877  0.52363754  0.42709586  1  0.018318  0  -0.088746  -0.137003  0  3.958728  0
C  C277  1  0.52364024  0.04935282  0.92709345  1  0.017896  0  -0.088715  -0.136859  0  3.958765  0
C  C278  1  0.95064760  0.47636225  0.57290365  1  0.017859  0  -0.088736  -0.136931  0  3.958732  0
C  C279  1  0.47635926  0.95064710  0.07290721  1  0.018407  0  -0.08867  -0.136788  0  3.958692  0
C  C280  1  0.04010728  0.47732798  0.39473010  1  -0.011033  0  -0.079586  -0.072185  0  3.955368  0
C  C281  1  0.47733016  0.04010852  0.89472927  1  -0.010216  0  -0.079548  -0.07218  0  3.955457  0
C  C282  1  0.95989344  0.52267620  0.60526652  1  -0.009416  0  -0.079543  -0.072194  0  3.955501  0
C  C283  1  0.52266871  0.95989279  0.10527138  1  -0.010801  0  -0.079549  -0.07225  0  3.955455  0
C  C284  1  0.10925270  0.41275337  0.37920320  1  -0.109571  0  -0.023157  -0.053146  0  3.994518  0
C  C285  1  0.41275524  0.10925476  0.87920206  1  -0.109527  0  -0.023139  -0.053197  0  3.994674  0
C  C286  1  0.89075426  0.58725577  0.62079381  1  -0.11045  0  -0.02299  -0.052865  0  3.994119  0
C  C287  1  0.58724424  0.89074928  0.12079822  1  -0.109289  0  -0.023112  -0.053021  0  3.994566  0
C  C288  1  0.18776406  0.39485850  0.39668329  1  0.01073  0  -0.087006  -0.093522  0  4.000642  0
C  C289  1  0.39486148  0.18776955  0.89668115  1  0.010771  0  -0.087006  -0.09358  0  4.000794  0
C  C290  1  0.81223852  0.60515095  0.60331471  1  0.010823  0  -0.087149  -0.093718  0  4.000792  0
C  C291  1  0.60513925  0.81223643  0.10331998  1  0.010598  0  -0.087042  -0.093615  0  4.000993  0
C  C292  1  0.19684002  0.44141804  0.42899619  1  -0.071051  0  -0.091073  -0.143166  0  3.992476  0
C  C293  1  0.44142336  0.19684416  0.92899251  1  -0.077159  0  -0.091029  -0.143039  0  3.992401  0
C  C294  1  0.80316008  0.55858755  0.57100436  1  -0.070997  0  -0.090992  -0.142905  0  3.992365  0
C  C295  1  0.55858240  0.80315540  0.07100804  1  -0.077064  0  -0.090977  -0.143055  0  3.992745  0
C  C296  1  0.09816118  0.36091304  0.34584154  1  1.541642  0  0.221914  0.59669  0  4.164741  0
C  C297  1  0.36091395  0.09815963  0.84584291  1  1.54046  0  0.221885  0.596686  0  4.164836  0
C  C298  1  0.90184889  0.63909679  0.65415327  1  1.541016  0  0.221808  0.596464  0  4.164951  0
C  C299  1  0.63908928  0.90184490  0.15415729  1  1.540839  0  0.22194  0.596638  0  4.164622  0
C  C300  1  0.13524934  0.91193609  0.45660312  1  -0.010892  0  0.002052  0.097551  0  4.008596  0
C  C301  1  0.91193401  0.13525335  0.95660233  1  -0.010827  0  0.002176  0.097667  0  4.008769  0
C  C302  1  0.86474013  0.08807075  0.54339790  1  -0.011044  0  0.002122  0.097628  0  4.008547  0
C  C303  1  0.08806800  0.86474395  0.04339864  1  -0.011032  0  0.002202  0.097772  0  4.008793  0
C  C304  1  0.05881341  0.97579483  0.44932900  1  -0.065547  0  -0.089301  -0.138938  0  3.968018  0
C  C305  1  0.97579263  0.05881436  0.94933039  1  -0.065552  0  -0.089372  -0.13907  0  3.968113  0
C  C306  1  0.94117918  0.02421094  0.55066865  1  -0.065496  0  -0.089432  -0.139148  0  3.967763  0
C  C307  1  0.02421251  0.94118070  0.05066934  1  -0.065027  0  -0.089397  -0.139084  0  3.967983  0
C  C308  1  0.05438075  0.03966581  0.42095959  1  -0.02733  0  -0.082687  -0.086102  0  3.974136  0
C  C309  1  0.03966338  0.05438435  0.92096122  1  -0.027175  0  -0.082706  -0.085968  0  3.973896  0
C  C310  1  0.94560872  0.96033867  0.57903905  1  -0.027596  0  -0.082631  -0.085805  0  3.973783  0
C  C311  1  0.96034238  0.94561463  0.07904116  1  -0.026941  0  -0.082669  -0.08602  0  3.973814  0
C  C312  1  0.12647436  0.03911973  0.39884805  1  -0.049273  0  -0.024539  -0.05317  0  4.020984  0
C  C313  1  0.03911898  0.12647715  0.89884905  1  -0.049208  0  -0.024542  -0.053284  0  4.021151  0
C  C314  1  0.87351700  0.96088175  0.60115122  1  -0.048925  0  -0.024677  -0.053486  0  4.021191  0
C  C315  1  0.96088428  0.87352031  0.10115280  1  -0.049705  0  -0.024696  -0.053411  0  4.021081  0
C  C316  1  0.20288623  0.97464486  0.40556124  1  -0.01697  0  -0.084867  -0.088331  0  3.992141  0
C  C317  1  0.97464278  0.20288995  0.90556137  1  -0.01703  0  -0.084868  -0.088268  0  3.992243  0
C  C318  1  0.79710450  0.02535684  0.59443864  1  -0.017375  0  -0.08482  -0.088181  0  3.992191  0
C  C319  1  0.02535798  0.79710777  0.09444053  1  -0.016948  0  -0.084816  -0.08812  0  3.992128  0
C  C320  1  0.20726532  0.91205226  0.43455795  1  -0.036309  0  -0.089649  -0.140059  0  3.986245  0
C  C321  1  0.91204937  0.20726907  0.93455565  1  -0.036273  0  -0.08963  -0.140114  0  3.986411  0
C  C322  1  0.79272540  0.08795357  0.56544429  1  -0.035656  0  -0.089532  -0.140109  0  3.986367  0
C  C323  1  0.08795515  0.79272561  0.06544562  1  -0.035718  0  -0.089622  -0.140249  0  3.98632  0
C  C324  1  0.12218059  0.10611424  0.36817640  1  1.479778  0  0.201591  0.568795  0  4.188206  0
C  C325  1  0.10611335  0.12218615  0.86817827  1  1.479995  0  0.201438  0.568688  0  4.188645  0
C  C326  1  0.87781201  0.89389035  0.63182339  1  1.479955  0  0.201728  0.569109  0  4.188254  0
C  C327  1  0.89389053  0.87781523  0.13182471  1  1.479993  0  0.201806  0.569046  0  4.187983  0
C  C328  1  0.94929394  0.71825655  0.54464447  1  0.4428  0  -0.082483  0.038909  0  3.927815  0
C  C329  1  0.71825052  0.94929867  0.04464344  1  0.443514  0  -0.082386  0.039132  0  3.927704  0
C  C330  1  0.05069866  0.28174922  0.45535530  1  0.443544  0  -0.082486  0.038926  0  3.927655  0
C  C331  1  0.28174459  0.05070214  0.95535607  1  0.442991  0  -0.082535  0.038844  0  3.927737  0
C  C332  1  0.91756671  0.78794430  0.51244854  1  0.421881  0  -0.087127  0.033164  0  3.945809  0
C  C333  1  0.78794063  0.91756866  0.01244935  1  0.422492  0  -0.0871  0.033172  0  3.945942  0
C  C334  1  0.08243151  0.21206074  0.48754992  1  0.422375  0  -0.087063  0.033273  0  3.945808  0
C  C335  1  0.21205511  0.08243194  0.98755107  1  0.42187  0  -0.087132  0.033163  0  3.945728  0
N  N336  1  0.18184092  0.66253540  0.61702799  1  -1.206616  0  -0.359518  -0.362723  0  3.41999  0
N  N337  1  0.66253928  0.18184562  0.11702649  1  -1.206715  0  -0.359542  -0.362641  0  3.419973  0
N  N338  1  0.81815420  0.33746364  0.38297277  1  -1.206583  0  -0.359498  -0.362595  0  3.419823  0
N  N339  1  0.33746461  0.81815162  0.88297353  1  -1.206665  0  -0.359474  -0.362522  0  3.41994  0
N  N340  1  0.16557997  0.55837222  0.55155494  1  -1.217095  0  -0.360837  -0.369872  0  3.423147  0
N  N341  1  0.55837773  0.16558395  0.05155131  1  -1.217121  0  -0.360883  -0.369881  0  3.42296  0
N  N342  1  0.83441517  0.44162565  0.44844796  1  -1.216961  0  -0.360826  -0.369867  0  3.422977  0
N  N343  1  0.44162551  0.83441704  0.94844835  1  -1.21691  0  -0.360921  -0.369975  0  3.422942  0
N  N344  1  0.13933062  0.69849544  0.49441697  1  -1.224019  0  -0.362173  -0.371326  0  3.440786  0
N  N345  1  0.69849413  0.13933678  0.99441369  1  -1.224184  0  -0.362211  -0.371377  0  3.440729  0
N  N346  1  0.86065885  0.30150904  0.50558470  1  -1.224007  0  -0.362141  -0.371264  0  3.440682  0
N  N347  1  0.30151038  0.86066025  0.00558602  1  -1.223902  0  -0.36213  -0.371353  0  3.440601  0
N  N348  1  0.16154627  0.80119297  0.55933676  1  -1.22248  0  -0.361977  -0.372389  0  3.440364  0
N  N349  1  0.80119114  0.16155060  0.05933478  1  -1.222941  0  -0.361981  -0.372385  0  3.440401  0
N  N350  1  0.83844196  0.19881076  0.44066404  1  -1.222906  0  -0.361951  -0.372348  0  3.440445  0
N  N351  1  0.19881087  0.83844434  0.94066441  1  -1.222783  0  -0.361968  -0.372339  0  3.440489  0
O  O352  1  0.33892924  0.97460814  0.76740454  1  -1.17152  0  -0.305238  -0.466202  0  2.350745  0
O  O353  1  0.97462613  0.33892963  0.26739650  1  -1.171582  0  -0.30517  -0.466155  0  2.350546  0
O  O354  1  0.66107595  0.02537515  0.23259966  1  -1.171581  0  -0.305253  -0.466322  0  2.350798  0
O  O355  1  0.02538333  0.66107275  0.73259634  1  -1.171542  0  -0.305205  -0.466265  0  2.350432  0
O  O356  1  0.20129614  0.05411008  0.77260283  1  -1.157105  0  -0.301099  -0.532341  0  2.376799  0
O  O357  1  0.05412564  0.20129390  0.27259455  1  -1.15446  0  -0.301147  -0.532525  0  2.376577  0
O  O358  1  0.79870966  0.94587830  0.22740187  1  -1.154579  0  -0.301208  -0.532638  0  2.376711  0
O  O359  1  0.94588009  0.79870977  0.72740167  1  -1.157219  0  -0.301197  -0.532561  0  2.376556  0
O  O360  1  0.29771342  0.17459579  0.73786780  1  -1.10681  0  -0.263719  -0.434762  0  2.09061  0
O  O361  1  0.17460817  0.29769957  0.23786436  1  -1.106215  0  -0.263659  -0.434773  0  2.090289  0
O  O362  1  0.70230549  0.82539696  0.26213263  1  -1.106303  0  -0.263723  -0.434807  0  2.090443  0
O  O363  1  0.82538505  0.70230126  0.76213034  1  -1.106003  0  -0.263631  -0.434792  0  2.090307  0
O  O364  1  0.17401299  0.24129385  0.76704106  1  -1.138477  0  -0.330153  -0.494121  0  2.377352  0
O  O365  1  0.24130502  0.17400136  0.26703547  1  -1.138136  0  -0.330133  -0.49416  0  2.377076  0
O  O366  1  0.82600093  0.75869530  0.23296136  1  -1.138311  0  -0.330095  -0.494235  0  2.377159  0
O  O367  1  0.75869006  0.82600355  0.73295972  1  -1.13817  0  -0.330041  -0.494087  0  2.377224  0
O  O368  1  0.16053529  0.29387531  0.33797280  1  -1.159747  0  -0.330389  -0.567557  0  2.338711  0
O  O369  1  0.29387646  0.16053305  0.83797356  1  -1.159694  0  -0.330378  -0.567541  0  2.338748  0
O  O370  1  0.83946859  0.70612548  0.66202776  1  -1.160421  0  -0.330344  -0.567492  0  2.338917  0
O  O371  1  0.70612367  0.83946783  0.16202859  1  -1.160179  0  -0.330439  -0.567617  0  2.338727  0
O  O372  1  0.02883206  0.38350282  0.32794195  1  -1.180711  0  -0.301212  -0.528623  0  2.262856  0
O  O373  1  0.38349736  0.02882821  0.82794560  1  -1.179754  0  -0.301194  -0.528636  0  2.262783  0
O  O374  1  0.97118171  0.61651810  0.67204834  1  -1.179709  0  -0.301237  -0.528482  0  2.262785  0
O  O375  1  0.61650586  0.97117867  0.17205395  1  -1.179662  0  -0.301287  -0.528598  0  2.26271  0
O  O376  1  0.18193999  0.09358528  0.34127544  1  -1.144573  0  -0.339398  -0.558873  0  2.189839  0
O  O377  1  0.09358619  0.18194344  0.84127761  1  -1.144511  0  -0.339326  -0.558844  0  2.190048  0
O  O378  1  0.81805511  0.90641670  0.65872345  1  -1.14468  0  -0.339395  -0.558952  0  2.189915  0
O  O379  1  0.90641769  0.81805676  0.15872509  1  -1.144639  0  -0.339424  -0.558874  0  2.189752  0
O  O380  1  0.06054889  0.17500773  0.36801973  1  -1.180086  0  -0.310397  -0.552185  0  2.209766  0
O  O381  1  0.17500590  0.06055080  0.86802229  1  -1.180362  0  -0.310298  -0.552059  0  2.209954  0
O  O382  1  0.93944809  0.82499951  0.63198205  1  -1.180185  0  -0.310549  -0.552355  0  2.209811  0
O  O383  1  0.82499673  0.93945101  0.13198101  1  -1.180239  0  -0.310537  -0.55236  0  2.209619  0
O  O384  1  0.01197317  0.72988449  0.56926708  1  -1.166373  0  -0.399407  -0.470989  0  2.461694  0
O  O385  1  0.72987325  0.01197834  0.06926738  1  -1.166409  0  -0.399407  -0.470861  0  2.462126  0
O  O386  1  0.98801756  0.27012135  0.43073516  1  -1.166507  0  -0.399295  -0.470859  0  2.461878  0
O  O387  1  0.27011751  0.98801925  0.93073592  1  -1.166328  0  -0.399276  -0.470825  0  2.461827  0
O  O388  1  0.85428531  0.77476135  0.48846345  1  -1.088641  0  -0.422894  -0.481984  0  2.182499  0
O  O389  1  0.77475796  0.85429049  0.98846385  1  -1.089297  0  -0.422947  -0.482087  0  2.182626  0
O  O390  1  0.14571103  0.22524433  0.51153565  1  -1.089283  0  -0.422915  -0.482063  0  2.182601  0
O  O391  1  0.22524278  0.14571136  0.01153736  1  -1.088662  0  -0.422954  -0.482089  0  2.182432  0
