# generated using pymatgen
data_Ni3H58C84(N6O7)2
_symmetry_space_group_name_H-M   'P 1'
_cell_length_a   8.14878313
_cell_length_b   18.95896972
_cell_length_c   29.16748678
_cell_angle_alpha   89.99998304
_cell_angle_beta   90.00010664
_cell_angle_gamma   94.15801043
_symmetry_Int_Tables_number   1
_chemical_formula_structural   Ni3H58C84(N6O7)2
_chemical_formula_sum   'Ni6 H116 C168 N24 O28'
_cell_volume   4494.29816041
_cell_formula_units_Z   2
loop_
 _symmetry_equiv_pos_site_id
 _symmetry_equiv_pos_as_xyz
  1  'x, y, z'
loop_
 _atom_site_type_symbol
 _atom_site_label
 _atom_site_symmetry_multiplicity
 _atom_site_fract_x
 _atom_site_fract_y
 _atom_site_fract_z
 _atom_site_occupancy
 _atom_site_pbe_bader_charge
 _atom_site_pbe_bader_spin_density
 _atom_site_pbe_cm5_charge
 _atom_site_pbe_ddec_charge
 _atom_site_pbe_ddec_spin_density
 _atom_site_pbe_ddec_sum_bond_order
 _atom_site_pbe_magmom
Ni  Ni0  1  0.99999564  0.49999772  0.50000079  1  1.167235  1.568576  0.621207  0.80072  1.786627  2.392428  1.557
Ni  Ni1  1  0.00000141  0.00000008  0.99999967  1  1.167224  1.56858  0.621235  0.800773  1.786632  2.39241  1.557
Ni  Ni2  1  0.98189593  0.27819031  0.25646559  1  1.136636  1.543468  0.639175  0.71828  1.755517  2.573309  1.526
Ni  Ni3  1  0.01810578  0.22181158  0.75646488  1  1.136629  1.543465  0.63919  0.718289  1.755518  2.573326  1.526
Ni  Ni4  1  0.01811007  0.72181010  0.74353537  1  1.136757  1.543468  0.639177  0.718255  1.755512  2.573328  1.526
Ni  Ni5  1  0.98188935  0.77818988  0.24353574  1  1.136702  1.543463  0.639218  0.718339  1.755508  2.573332  1.526
H  H6  1  0.97162629  0.47378844  0.58323284  1  0.647558  -0.000278  0.272701  0.362275  -0.000219  0.998683  0.0
H  H7  1  0.02837366  0.02620979  0.08323104  1  0.647604  -0.000278  0.27269  0.362262  -0.00022  0.998692  0.0
H  H8  1  0.02837181  0.52620879  0.41676984  1  0.647664  -0.000278  0.272667  0.36228  -0.000219  0.99869  0.0
H  H9  1  0.97162734  0.97379009  0.91676924  1  0.647587  -0.000278  0.272682  0.362249  -0.000219  0.998715  0.0
H  H10  1  0.93147797  0.55650862  0.58149287  1  0.569135  0.0001  0.294922  0.363592  7.1e-05  0.952008  0.0
H  H11  1  0.06852504  0.94348982  0.08149272  1  0.569148  0.0001  0.294878  0.363554  7.1e-05  0.952051  0.0
H  H12  1  0.06852513  0.44348915  0.41850809  1  0.569082  0.000101  0.294873  0.363562  7.1e-05  0.952071  0.0
H  H13  1  0.93147464  0.05650953  0.91850687  1  0.569091  0.000101  0.29488  0.363565  7.1e-05  0.952031  0.0
H  H14  1  0.42535245  0.45075586  0.41976438  1  0.099095  5.8e-05  0.113433  0.122875  1.7e-05  1.030425  0.0
H  H15  1  0.57465259  0.04924493  0.91976640  1  0.099302  5.8e-05  0.113416  0.122854  1.7e-05  1.030414  0.0
H  H16  1  0.57464995  0.54924507  0.58023178  1  0.09922  5.8e-05  0.113399  0.122795  1.7e-05  1.030494  0.0
H  H17  1  0.42534464  0.95075442  0.08023456  1  0.099317  5.8e-05  0.113417  0.122827  1.7e-05  1.030439  0.0
H  H18  1  0.51742413  0.66982524  0.38237035  1  0.098035  0.000108  0.119609  0.134412  4.5e-05  1.008988  0.0
H  H19  1  0.48258033  0.83017736  0.88237021  1  0.098105  0.000108  0.119624  0.134434  4.5e-05  1.009019  0.0
H  H20  1  0.48257136  0.33017834  0.61762993  1  0.098093  0.000108  0.119609  0.134414  4.5e-05  1.008922  0.0
H  H21  1  0.51743031  0.16982146  0.11763110  1  0.098082  0.000108  0.119607  0.134361  4.5e-05  1.009055  0.0
H  H22  1  0.21374371  0.53151530  0.29579409  1  0.102906  1.3e-05  0.122982  0.138187  -1.3e-05  0.994119  0.0
H  H23  1  0.78626132  0.96848679  0.79579511  1  0.102941  1.3e-05  0.123003  0.138261  -1.3e-05  0.994038  0.0
H  H24  1  0.78625451  0.46848987  0.70420482  1  0.102972  1.3e-05  0.122987  0.138171  -1.3e-05  0.994148  0.0
H  H25  1  0.21374695  0.03151256  0.20420654  1  0.102915  1.3e-05  0.122996  0.138225  -1.3e-05  0.994078  0.0
H  H26  1  0.68994279  0.46969775  0.44587194  1  0.205206  0.000321  0.14548  0.122693  -0.000104  0.981035  0.0
H  H27  1  0.31005356  0.03030144  0.94586937  1  0.205297  0.000321  0.145448  0.122664  -0.000104  0.98109  0.0
H  H28  1  0.31004786  0.53029895  0.55412628  1  0.205318  0.000321  0.145443  0.122611  -0.000104  0.981059  0.0
H  H29  1  0.68994848  0.96969738  0.05412920  1  0.205236  0.000321  0.145455  0.122703  -0.000104  0.981027  0.0
H  H30  1  0.82303343  0.65750421  0.51763714  1  0.108817  0.000553  0.123059  0.117571  0.000122  0.994302  0.0
H  H31  1  0.17697171  0.84249478  0.01763776  1  0.108866  0.000553  0.123065  0.117582  0.000122  0.994331  0.0
H  H32  1  0.17697018  0.34248933  0.48236314  1  0.108756  0.000553  0.123017  0.117541  0.000122  0.994273  0.0
H  H33  1  0.82302588  0.15750669  0.98236252  1  0.108874  0.000553  0.123057  0.117571  0.000122  0.994339  0.0
H  H34  1  0.55836654  0.68120896  0.46069833  1  0.126126  0.000934  0.127966  0.130709  0.000401  1.009304  0.0
H  H35  1  0.44164456  0.81879361  0.96069885  1  0.126009  0.000934  0.12794  0.130671  0.000402  1.009351  0.0
H  H36  1  0.44164069  0.31879145  0.53930195  1  0.126077  0.000934  0.127977  0.130736  0.000401  1.009299  0.0
H  H37  1  0.55835626  0.18120521  0.03930211  1  0.126044  0.000934  0.127939  0.130688  0.000402  1.00934  0.0
H  H38  1  0.06216192  0.64630752  0.30279155  1  0.168547  0.000704  0.14948  0.123052  8.6e-05  0.965456  0.001
H  H39  1  0.93784271  0.85369192  0.80279165  1  0.168486  0.000704  0.149471  0.123063  8.6e-05  0.965444  0.001
H  H40  1  0.93783480  0.35369606  0.69721010  1  0.168753  0.000704  0.149465  0.123028  8.6e-05  0.965348  0.001
H  H41  1  0.06216643  0.14630531  0.19720863  1  0.168585  0.000704  0.149468  0.123025  8.6e-05  0.965392  0.001
H  H42  1  0.56944632  0.71934966  0.30072328  1  0.191155  0.000967  0.127417  0.145062  0.000459  1.019821  0.0
H  H43  1  0.43055778  0.78065401  0.80072347  1  0.191189  0.000966  0.12744  0.145077  0.000459  1.019845  0.0
H  H44  1  0.43055031  0.28065339  0.69927425  1  0.191101  0.000967  0.127443  0.145093  0.000459  1.019801  0.0
H  H45  1  0.56945076  0.21934693  0.19927818  1  0.191094  0.000966  0.12738  0.145066  0.000459  1.019806  0.0
H  H46  1  0.38605676  0.81391150  0.25485606  1  0.11953  0.001114  0.124771  0.120187  0.000397  0.98693  0.001
H  H47  1  0.61394082  0.68609166  0.75485601  1  0.11955  0.001114  0.124782  0.12019  0.000397  0.986995  0.001
H  H48  1  0.61393224  0.18608997  0.74514114  1  0.119577  0.001115  0.124812  0.120143  0.000397  0.986975  0.001
H  H49  1  0.38606351  0.31390611  0.24514598  1  0.119588  0.001114  0.124812  0.120206  0.000397  0.986916  0.001
H  H50  1  0.12655791  0.42901893  0.27944128  1  0.172842  0.000463  0.147979  0.123436  -0.000108  0.99063  0.001
H  H51  1  0.87344254  0.07098189  0.77944242  1  0.172893  0.000462  0.148034  0.123506  -0.000108  0.990613  0.001
H  H52  1  0.87343872  0.57098412  0.72055694  1  0.172967  0.000463  0.148034  0.123557  -0.000107  0.990551  0.001
H  H53  1  0.12655346  0.92901746  0.22055820  1  0.173237  0.000463  0.148013  0.123497  -0.000108  0.990628  0.001
H  H54  1  0.14182826  0.24371561  0.35749773  1  0.143015  0.001038  0.130571  0.126934  0.00033  0.984252  0.001
H  H55  1  0.85818269  0.25628625  0.85749883  1  0.142954  0.001038  0.130563  0.126926  0.00033  0.984199  0.001
H  H56  1  0.85819036  0.75628691  0.64249775  1  0.142913  0.001039  0.130587  0.126936  0.00033  0.984245  0.001
H  H57  1  0.14181463  0.74371363  0.14250042  1  0.142934  0.001038  0.130554  0.126882  0.00033  0.984211  0.001
H  H58  1  0.31645556  0.35211560  0.40458479  1  0.123276  0.000806  0.122938  0.118367  0.000356  1.032797  0.0
H  H59  1  0.68355324  0.14788625  0.90458616  1  0.122942  0.000806  0.122913  0.118336  0.000356  1.032817  0.0
H  H60  1  0.68355806  0.64788639  0.59541138  1  0.122909  0.000806  0.122926  0.118388  0.000356  1.032707  0.0
H  H61  1  0.31644530  0.85211363  0.09541446  1  0.12298  0.000806  0.122929  0.118388  0.000356  1.032782  0.0
H  H62  1  0.23093335  0.70340918  0.52603503  1  0.061626  0.000261  0.099497  0.107328  0.000173  1.006745  0.0
H  H63  1  0.76907202  0.79659086  0.02603528  1  0.061609  0.000262  0.099505  0.107373  0.000173  1.006796  0.0
H  H64  1  0.76907370  0.29659017  0.47396902  1  0.061792  0.000261  0.099471  0.107308  0.000173  1.006767  0.0
H  H65  1  0.23092907  0.20340954  0.97396534  1  0.061651  0.000262  0.099484  0.107347  0.000173  1.006761  0.0
H  H66  1  0.29445242  0.83322376  0.53332637  1  0.066262  8e-06  0.097691  0.101468  -7e-06  1.03024  0.0
H  H67  1  0.70555300  0.66677627  0.03332764  1  0.066163  8e-06  0.097709  0.101513  -7e-06  1.030166  0.0
H  H68  1  0.70554998  0.16677717  0.46667459  1  0.066317  8e-06  0.097697  0.101485  -7e-06  1.030192  0.0
H  H69  1  0.29445168  0.33322360  0.96667298  1  0.066238  8e-06  0.097674  0.101462  -7e-06  1.030205  0.0
H  H70  1  0.21262400  0.85603068  0.38804609  1  0.073803  0.000145  0.100874  0.102582  3.6e-05  1.022535  0.0
H  H71  1  0.78737364  0.64396768  0.88804752  1  0.073705  0.000145  0.100869  0.102574  3.6e-05  1.022598  0.0
H  H72  1  0.78736620  0.14396338  0.61195487  1  0.073703  0.000145  0.100851  0.102535  3.6e-05  1.02257  0.0
H  H73  1  0.21263113  0.35603272  0.11195310  1  0.073696  0.000145  0.100853  0.10256  3.6e-05  1.022601  0.0
H  H74  1  0.14525395  0.72686893  0.38180146  1  0.118238  -7.2e-05  0.100333  0.103155  -0.000148  1.031179  0.0
H  H75  1  0.85474488  0.77312944  0.88180153  1  0.11819  -7.2e-05  0.100333  0.10316  -0.000148  1.031204  0.0
H  H76  1  0.85473748  0.27312514  0.61820259  1  0.118099  -7.2e-05  0.100307  0.103139  -0.000148  1.031238  0.0
H  H77  1  0.14525998  0.22687150  0.11819978  1  0.118195  -7.2e-05  0.100309  0.103136  -0.000148  1.031149  0.0
H  H78  1  0.17481788  0.93385881  0.53359238  1  0.060224  -3e-06  0.101222  0.101238  -6e-06  1.028838  0.0
H  H79  1  0.82518263  0.56614123  0.03359373  1  0.060045  -3e-06  0.101269  0.101333  -6e-06  1.028712  0.0
H  H80  1  0.82517575  0.06614107  0.46640755  1  0.060177  -3e-06  0.101241  0.101264  -6e-06  1.028779  0.0
H  H81  1  0.17482205  0.43385865  0.96640689  1  0.060194  -3e-06  0.101228  0.101247  -6e-06  1.02881  0.0
H  H82  1  0.35337889  0.13603126  0.47953231  1  0.05722  1e-06  0.09689  0.094529  -2e-06  1.035803  0.0
H  H83  1  0.64662768  0.36396899  0.97953225  1  0.057191  1e-06  0.09688  0.094506  -2e-06  1.035824  0.0
H  H84  1  0.64662702  0.86396862  0.52046797  1  0.057258  1e-06  0.096893  0.09452  -2e-06  1.035839  0.0
H  H85  1  0.35337464  0.63603142  0.02046734  1  0.057258  1e-06  0.096888  0.094509  -2e-06  1.035839  0.0
H  H86  1  0.39734373  0.94744227  0.40003105  1  0.062724  1.8e-05  0.101862  0.102944  9e-06  1.022932  0.0
H  H87  1  0.60265802  0.55255820  0.90003171  1  0.062759  1.8e-05  0.101873  0.10298  9e-06  1.022931  0.0
H  H88  1  0.60264104  0.05255602  0.59996786  1  0.062743  1.8e-05  0.101869  0.10305  9e-06  1.02291  0.0
H  H89  1  0.39735175  0.44744274  0.09996788  1  0.062759  1.8e-05  0.101826  0.102917  9e-06  1.0229  0.0
H  H90  1  0.34429058  0.18308960  0.40907577  1  0.03906  8e-05  0.094487  0.091521  4.6e-05  1.019228  0.0
H  H91  1  0.65570054  0.31690907  0.90907641  1  0.039108  8e-05  0.094476  0.091457  4.6e-05  1.019268  0.0
H  H92  1  0.65569516  0.81690710  0.59092348  1  0.039132  8e-05  0.094467  0.091449  4.6e-05  1.019269  0.0
H  H93  1  0.34429792  0.68309028  0.09092387  1  0.03911  8e-05  0.094487  0.09149  4.6e-05  1.019255  0.0
H  H94  1  0.51830071  0.25470268  0.35282173  1  0.070346  0.000587  0.095474  0.094722  0.000428  1.034744  0.0
H  H95  1  0.48168785  0.24529759  0.85282264  1  0.07049  0.000587  0.095497  0.094765  0.000428  1.034768  0.0
H  H96  1  0.48169179  0.74529772  0.64717923  1  0.070401  0.000587  0.0955  0.094756  0.000428  1.03476  0.0
H  H97  1  0.51830683  0.75470123  0.14717833  1  0.070396  0.000587  0.095498  0.094739  0.000428  1.03479  0.0
H  H98  1  0.80341415  0.07704150  0.32815464  1  0.107413  0.000723  0.104218  0.112806  0.00051  1.000573  0.0
H  H99  1  0.19659110  0.42296407  0.82815433  1  0.107405  0.000723  0.104232  0.112865  0.00051  1.000468  0.0
H  H100  1  0.19657826  0.92295838  0.67184393  1  0.107329  0.000723  0.104217  0.112834  0.00051  1.000544  0.0
H  H101  1  0.80342674  0.57704110  0.17184184  1  0.10739  0.000723  0.104204  0.112827  0.00051  1.000548  0.0
H  H102  1  0.63047396  0.00479585  0.38316619  1  0.090461  3.7e-05  0.096544  0.096908  4e-06  1.053164  0.0
H  H103  1  0.36953243  0.49520706  0.88316596  1  0.09037  3.7e-05  0.096535  0.096937  4e-06  1.053152  0.0
H  H104  1  0.36951336  0.99520297  0.61683100  1  0.090398  3.7e-05  0.096533  0.096892  4e-06  1.053113  0.0
H  H105  1  0.63048497  0.50479546  0.11683020  1  0.090341  3.7e-05  0.09653  0.096875  4e-06  1.053128  0.0
H  H106  1  0.40663667  0.15740955  0.54994634  1  0.077146  4.8e-05  0.093756  0.092386  1.9e-05  1.044763  0.0
H  H107  1  0.59336456  0.34259028  0.04994718  1  0.077188  4.8e-05  0.093739  0.092388  1.9e-05  1.044754  0.0
H  H108  1  0.59336065  0.84259033  0.45005291  1  0.077095  4.8e-05  0.093762  0.092395  1.9e-05  1.044718  0.0
H  H109  1  0.40663521  0.65740960  0.95005276  1  0.077184  4.8e-05  0.093751  0.092421  1.9e-05  1.044721  0.0
H  H110  1  0.34049021  0.21225970  0.62436926  1  0.069206  0.000514  0.096161  0.091291  0.000355  1.037307  0.0
H  H111  1  0.65951406  0.28774063  0.12437116  1  0.069266  0.000514  0.096137  0.09124  0.000355  1.037417  0.0
H  H112  1  0.65950852  0.78774123  0.37562897  1  0.06927  0.000514  0.096133  0.091252  0.000355  1.037406  0.0
H  H113  1  0.34048563  0.71225872  0.87562843  1  0.069295  0.000514  0.096148  0.091273  0.000355  1.037396  0.0
H  H114  1  0.95966896  0.04810652  0.64797689  1  0.076493  0.000563  0.104767  0.108192  0.000371  0.995692  0.0
H  H115  1  0.04033300  0.45189380  0.14797775  1  0.076483  0.000563  0.10478  0.108188  0.000371  0.99566  0.0
H  H116  1  0.04032977  0.95189441  0.35202339  1  0.076721  0.000563  0.104746  0.108163  0.000371  0.995723  0.0
H  H117  1  0.95966641  0.54810396  0.85202356  1  0.076652  0.000563  0.104776  0.108181  0.000371  0.995766  0.0
H  H118  1  0.01315110  0.99614137  0.57186714  1  0.063357  5e-05  0.100428  0.101555  1.6e-05  1.019496  0.0
H  H119  1  0.98685202  0.50385813  0.07186791  1  0.035929  5.1e-05  0.100431  0.101554  1.6e-05  1.019492  0.0
H  H120  1  0.98684753  0.00385903  0.42813314  1  0.063324  5e-05  0.100431  0.101534  1.6e-05  1.019481  0.0
H  H121  1  0.01314880  0.49614069  0.92813272  1  0.063361  5e-05  0.100411  0.10151  1.6e-05  1.019504  0.0
C  C122  1  0.40881107  0.49330195  0.39560151  1  0.06266  -0.000406  -0.090515  -0.266312  -0.000549  3.9326  0.0
C  C123  1  0.59119014  0.00669884  0.89560252  1  0.062561  -0.000406  -0.090523  -0.266296  -0.000549  3.932603  0.0
C  C124  1  0.59118801  0.50670110  0.60439603  1  0.062319  -0.000406  -0.090455  -0.266154  -0.000549  3.932574  0.0
C  C125  1  0.40881218  0.99330157  0.10439845  1  0.062425  -0.000406  -0.090505  -0.266244  -0.000549  3.932599  0.0
C  C126  1  0.48163412  0.56083941  0.40459510  1  0.300405  0.000944  0.111588  0.225558  0.000527  4.013859  0.001
C  C127  1  0.51837135  0.93916106  0.90459598  1  0.300362  0.000944  0.11155  0.225504  0.000527  4.01393  0.001
C  C128  1  0.51836496  0.43916364  0.59540278  1  0.30059  0.000944  0.111569  0.225594  0.000527  4.013778  0.001
C  C129  1  0.48163456  0.06083882  0.09540464  1  0.300565  0.000944  0.111571  0.225483  0.000527  4.013866  0.001
C  C130  1  0.46015538  0.61736707  0.37534814  1  0.093213  -0.000665  -0.080626  -0.247323  -0.000774  3.915503  0.0
C  C131  1  0.53985130  0.88263447  0.87534802  1  0.093222  -0.000665  -0.080589  -0.247265  -0.000774  3.915614  0.0
C  C132  1  0.53984028  0.38263757  0.62465283  1  0.09301  -0.000665  -0.080626  -0.247396  -0.000774  3.915385  0.0
C  C133  1  0.46015820  0.11736488  0.12465398  1  0.092956  -0.000665  -0.080582  -0.247159  -0.000774  3.915548  0.0
C  C134  1  0.36022084  0.60563836  0.33695262  1  0.319776  0.0013  0.115075  0.228671  0.000768  4.029054  0.001
C  C135  1  0.63978436  0.89436318  0.83695358  1  0.31966  0.0013  0.114991  0.228423  0.000768  4.028902  0.001
C  C136  1  0.63977456  0.39436469  0.66304766  1  0.32011  0.001299  0.115102  0.22873  0.000768  4.028973  0.001
C  C137  1  0.36022241  0.10563458  0.16304841  1  0.319851  0.0013  0.115026  0.228593  0.000768  4.028963  0.001
C  C138  1  0.28850267  0.53858263  0.32653964  1  0.022963  -0.000907  -0.083653  -0.25575  -0.001013  3.912659  -0.001
C  C139  1  0.71150151  0.96142051  0.82654028  1  0.022915  -0.000907  -0.083616  -0.255705  -0.001014  3.912332  -0.001
C  C140  1  0.71149177  0.46142201  0.67345926  1  0.023003  -0.000907  -0.083595  -0.255698  -0.001014  3.912353  -0.001
C  C141  1  0.28850668  0.03857831  0.17346137  1  0.022966  -0.000907  -0.083665  -0.255803  -0.001014  3.91243  -0.001
C  C142  1  0.31452400  0.48215412  0.35595323  1  0.321211  0.001165  0.108099  0.212863  0.000727  4.026302  0.001
C  C143  1  0.68548213  0.01784827  0.85595394  1  0.321211  0.001165  0.108126  0.212897  0.000727  4.026327  0.001
C  C144  1  0.68547895  0.51784999  0.64404431  1  0.32117  0.001165  0.108077  0.212917  0.000727  4.026111  0.001
C  C145  1  0.31452342  0.98214949  0.14404634  1  0.321113  0.001165  0.108117  0.212881  0.000727  4.02624  0.001
C  C146  1  0.68561627  0.52265938  0.45943601  1  0.966099  -0.001829  0.154981  0.131219  -0.002908  3.860188  -0.001
C  C147  1  0.31438069  0.97733949  0.95943438  1  0.965843  -0.001829  0.154974  0.131154  -0.002908  3.860306  -0.001
C  C148  1  0.31437569  0.47733785  0.54056324  1  0.965626  -0.001829  0.15511  0.131462  -0.002908  3.859859  -0.001
C  C149  1  0.68562126  0.02265880  0.04056521  1  0.965515  -0.001829  0.154986  0.131207  -0.002907  3.860112  -0.001
C  C150  1  0.75226870  0.62135665  0.49514050  1  0.416945  0.001568  -1.1e-05  -0.036293  0.000794  4.015218  0.002
C  C151  1  0.24773595  0.87864274  0.99513989  1  0.416923  0.001568  -0.000105  -0.036391  0.000794  4.01543  0.002
C  C152  1  0.24772817  0.37864059  0.50485909  1  0.416718  0.001568  -6e-06  -0.036294  0.000794  4.015316  0.002
C  C153  1  0.75226277  0.12135819  0.00486039  1  0.416916  0.001569  -7.1e-05  -0.036326  0.000795  4.015335  0.002
C  C154  1  0.62514586  0.63461043  0.46628436  1  0.276146  0.002896  0.006047  -0.093639  0.001594  3.894442  0.002
C  C155  1  0.37485905  0.86539161  0.96628382  1  0.276204  0.002896  0.006127  -0.09358  0.001594  3.894612  0.002
C  C156  1  0.37485618  0.36538839  0.53371660  1  0.276243  0.002897  0.006014  -0.093681  0.001594  3.894449  0.002
C  C157  1  0.62514318  0.13460827  0.03371646  1  0.276164  0.002896  0.006129  -0.093575  0.001594  3.894639  0.002
C  C158  1  0.17327462  0.67884484  0.29472198  1  0.949517  -0.006127  0.152367  0.106555  -0.007154  3.881618  -0.004
C  C159  1  0.82672900  0.82115619  0.79472305  1  0.949702  -0.006128  0.152384  0.10648  -0.007153  3.881593  -0.004
C  C160  1  0.82671842  0.32115875  0.70527864  1  0.949587  -0.006127  0.152474  0.10675  -0.007153  3.881156  -0.004
C  C161  1  0.17328014  0.17884104  0.20527860  1  0.9497  -0.006127  0.152458  0.10671  -0.007152  3.881242  -0.004
C  C162  1  0.43760494  0.71880756  0.29485370  1  0.310493  0.003902  0.005021  -0.100531  0.002223  3.877859  0.003
C  C163  1  0.56239649  0.78119505  0.79485327  1  0.310557  0.003902  0.004975  -0.100572  0.002223  3.878024  0.003
C  C164  1  0.56239432  0.28119655  0.70514384  1  0.310703  0.003904  0.004971  -0.100707  0.002224  3.878151  0.003
C  C165  1  0.43761029  0.21880271  0.20514770  1  0.310575  0.003903  0.005069  -0.100502  0.002224  3.877828  0.003
C  C166  1  0.34492783  0.76514110  0.27203751  1  0.362065  -0.0011  0.007656  -0.014107  -0.001623  3.976708  -0.001
C  C167  1  0.65507450  0.73486046  0.77203817  1  0.361987  -0.0011  0.007697  -0.014096  -0.001623  3.976835  -0.001
C  C168  1  0.65507203  0.23485930  0.72795968  1  0.362118  -0.0011  0.007678  -0.013911  -0.001623  3.976806  -0.001
C  C169  1  0.34492422  0.26514047  0.22796177  1  0.36196  -0.0011  0.007633  -0.014153  -0.001624  3.976677  -0.001
C  C170  1  0.15440742  0.39407282  0.30729731  1  0.968128  -0.006741  0.157648  0.110367  -0.007928  3.852176  -0.004
C  C171  1  0.84559707  0.10592905  0.80729809  1  0.968077  -0.006742  0.157474  0.110204  -0.007929  3.852205  -0.004
C  C172  1  0.84559166  0.60593023  0.69270023  1  0.967683  -0.006741  0.157566  0.110197  -0.007927  3.852223  -0.004
C  C173  1  0.15440384  0.89407030  0.19270185  1  0.967813  -0.006741  0.157534  0.110218  -0.007929  3.852162  -0.004
C  C174  1  0.16462217  0.29918872  0.34886003  1  0.431216  -0.001662  0.018286  -0.000705  -0.002222  3.959719  -0.001
C  C175  1  0.83538627  0.20081314  0.84886182  1  0.431526  -0.001663  0.018275  -0.000701  -0.002222  3.959693  -0.001
C  C176  1  0.83538787  0.70081380  0.65113784  1  0.431882  -0.001662  0.018246  -0.000709  -0.002222  3.959666  -0.001
C  C177  1  0.16461350  0.79918674  0.15113915  1  0.431566  -0.001663  0.018306  -0.000642  -0.002222  3.959591  -0.001
C  C178  1  0.25018301  0.35253684  0.37246030  1  0.24003  0.003588  -0.003022  -0.124346  0.002064  3.928624  0.002
C  C179  1  0.74982322  0.14746554  0.87246137  1  0.239984  0.003589  -0.002984  -0.124275  0.002063  3.928619  0.002
C  C180  1  0.74982676  0.64746409  0.62753689  1  0.240274  0.003589  -0.002985  -0.124376  0.002064  3.928387  0.002
C  C181  1  0.25017559  0.85253592  0.12753891  1  0.240007  0.003589  -0.003012  -0.124423  0.002064  3.928529  0.002
C  C182  1  0.18382406  0.70701667  0.45352551  1  -0.090133  0.006476  -0.030176  -0.05529  0.00388  4.005564  0.005
C  C183  1  0.81617655  0.79298221  0.95352590  1  -0.089813  0.006476  -0.030204  -0.055391  0.003881  4.005511  0.005
C  C184  1  0.81617158  0.29298057  0.54647716  1  -0.090255  0.006477  -0.030268  -0.055517  0.003881  4.00561  0.005
C  C185  1  0.18382586  0.20701873  0.04647472  1  -0.090256  0.006476  -0.03018  -0.055248  0.00388  4.005514  0.005
C  C186  1  0.22733841  0.73761132  0.49606124  1  -0.032911  -0.0  -0.096257  -0.106413  -0.000149  4.017856  0.0
C  C187  1  0.77266265  0.76238860  0.99606230  1  -0.033261  -0.0  -0.096238  -0.106349  -0.000149  4.01784  0.0
C  C188  1  0.77266355  0.26238697  0.50394178  1  -0.032919  -0.0  -0.096218  -0.106321  -0.000149  4.017871  0.0
C  C189  1  0.22734098  0.23761234  0.00393867  1  -0.032878  -0.0  -0.096256  -0.106472  -0.000149  4.017917  0.0
C  C190  1  0.26146030  0.81030582  0.49996593  1  -0.019539  8.3e-05  -0.097625  -0.144738  -6e-06  3.989128  0.0
C  C191  1  0.73854211  0.68969463  0.99996698  1  -0.019486  8.3e-05  -0.097652  -0.144869  -6e-06  3.989156  0.0
C  C192  1  0.73854420  0.18969300  0.50003503  1  -0.019542  8.3e-05  -0.097657  -0.144742  -6e-06  3.988975  0.0
C  C193  1  0.26146030  0.31030631  0.00003364  1  -0.019553  8.3e-05  -0.097643  -0.144756  -6e-06  3.989173  0.0
C  C194  1  0.25452194  0.85448074  0.46129890  1  -0.045479  -0.000321  -0.004775  0.074729  -0.000365  3.98628  0.0
C  C195  1  0.74547899  0.64551972  0.96129996  1  -0.045481  -0.000321  -0.004718  0.074906  -0.000365  3.986126  0.0
C  C196  1  0.74547633  0.14551756  0.53870241  1  -0.04556  -0.000321  -0.004715  0.074737  -0.000364  3.986167  0.0
C  C197  1  0.25452474  0.35448174  0.03870032  1  -0.045507  -0.000321  -0.00472  0.074787  -0.000365  3.986116  0.0
C  C198  1  0.21876180  0.82295484  0.41843918  1  -0.10815  0.000599  -0.089312  -0.12686  0.000294  3.960525  0.0
C  C199  1  0.78123744  0.67704458  0.91844026  1  -0.108  0.000599  -0.089314  -0.126963  0.000294  3.960511  0.0
C  C200  1  0.78123489  0.17704134  0.58156281  1  -0.108265  0.000599  -0.089251  -0.126779  0.000294  3.960507  0.0
C  C201  1  0.21876628  0.32295689  0.08156070  1  -0.107856  0.000599  -0.089299  -0.126889  0.000294  3.9605  0.0
C  C202  1  0.18182589  0.75040488  0.41465175  1  -0.001851  0.000558  -0.087974  -0.087524  9.8e-05  3.976309  0.001
C  C203  1  0.81817342  0.74959506  0.91465248  1  -0.001764  0.000558  -0.087961  -0.087417  9.7e-05  3.976282  0.001
C  C204  1  0.81816844  0.24959183  0.58535162  1  -0.001559  0.000558  -0.087959  -0.08747  9.8e-05  3.976197  0.001
C  C205  1  0.18182908  0.25040640  0.08534848  1  -0.001879  0.000558  -0.087958  -0.087494  9.7e-05  3.976363  0.001
C  C206  1  0.28057310  0.93202054  0.46595134  1  -0.033813  0.000139  -0.007276  0.074185  6.7e-05  4.028494  0.0
C  C207  1  0.71943013  0.56797886  0.96595240  1  -0.033794  0.00014  -0.007294  0.074167  6.8e-05  4.028389  0.0
C  C208  1  0.71942368  0.06797617  0.53404894  1  -0.033649  0.00014  -0.007292  0.074227  6.8e-05  4.028411  0.0
C  C209  1  0.28057596  0.43202207  0.03404753  1  -0.033721  0.00014  -0.007248  0.074314  6.8e-05  4.02842  0.0
C  C210  1  0.23126578  0.96565478  0.50592837  1  0.000648  -0.000507  -0.084574  -0.167942  -0.000553  3.913081  0.0
C  C211  1  0.76873682  0.53434420  0.00592936  1  0.000774  -0.000507  -0.084655  -0.168138  -0.000553  3.913055  0.0
C  C212  1  0.76872636  0.03434351  0.49407088  1  0.000634  -0.000507  -0.08459  -0.167957  -0.000553  3.913175  0.0
C  C213  1  0.23127022  0.46565514  0.99407058  1  0.000595  -0.000507  -0.084609  -0.168026  -0.000553  3.913125  0.0
C  C214  1  0.25580339  0.03916567  0.51136089  1  -0.019891  0.000134  -0.008459  0.07539  5.3e-05  4.021075  0.0
C  C215  1  0.74419751  0.46083364  0.01136109  1  -0.019923  0.000134  -0.00849  0.075455  5.3e-05  4.020967  0.0
C  C216  1  0.74418911  0.96083474  0.48863905  1  -0.019815  0.000134  -0.008462  0.075374  5.3e-05  4.021167  0.0
C  C217  1  0.25580577  0.53916518  0.98863885  1  -0.019915  0.000134  -0.008475  0.075462  5.3e-05  4.021005  0.0
C  C218  1  0.33001419  0.07904725  0.47551002  1  -0.054476  -0.000505  -0.08961  -0.17786  -0.000551  3.935495  0.0
C  C219  1  0.66999113  0.42095299  0.97551065  1  -0.054778  -0.000505  -0.089578  -0.1778  -0.00055  3.935544  0.0
C  C220  1  0.66998681  0.92095263  0.52448957  1  -0.05462  -0.000505  -0.089628  -0.177869  -0.000551  3.935706  0.0
C  C221  1  0.33001242  0.57904741  0.02448929  1  -0.05454  -0.000505  -0.089598  -0.177848  -0.000551  3.935591  0.0
C  C222  1  0.38239715  0.04672913  0.43540408  1  -0.041683  0.000161  -0.010063  0.073706  5.7e-05  4.030888  0.0
C  C223  1  0.61760186  0.45327165  0.93540502  1  -0.041333  0.000161  -0.010084  0.073586  5.7e-05  4.031011  0.0
C  C224  1  0.61759622  0.95326916  0.56459517  1  -0.041628  0.000161  -0.010028  0.073746  5.7e-05  4.030935  0.0
C  C225  1  0.38239809  0.54672928  0.06459492  1  -0.041711  0.000161  -0.010086  0.07365  5.7e-05  4.030982  0.0
C  C226  1  0.35571316  0.97319617  0.43089348  1  -0.016787  -0.000457  -0.08555  -0.174317  -0.000502  3.929814  0.0
C  C227  1  0.64428870  0.52680377  0.93089417  1  -0.016775  -0.000457  -0.08553  -0.174312  -0.000502  3.929878  0.0
C  C228  1  0.64428038  0.02680318  0.56910679  1  -0.016908  -0.000457  -0.085543  -0.174455  -0.000502  3.929863  0.0
C  C229  1  0.35571598  0.47319611  0.06910542  1  -0.016833  -0.000457  -0.085508  -0.174321  -0.000502  3.929836  0.0
C  C230  1  0.47528864  0.08888683  0.40023926  1  -0.033748  -0.001472  -0.007463  0.071475  -0.001632  3.999463  -0.001
C  C231  1  0.52471250  0.41111343  0.90023913  1  -0.033321  -0.001472  -0.007464  0.071535  -0.001632  3.999255  -0.001
C  C232  1  0.52470464  0.91111093  0.59975964  1  -0.033739  -0.001472  -0.007443  0.0713  -0.001633  3.999373  -0.001
C  C233  1  0.47529481  0.58888751  0.09975944  1  -0.033668  -0.001472  -0.007378  0.071467  -0.001633  3.999283  -0.001
C  C234  1  0.44526423  0.15979237  0.39138007  1  -0.067942  0.000777  -0.098458  -0.145541  0.000325  4.005049  0.001
C  C235  1  0.55473317  0.34020789  0.89137996  1  -0.067943  0.000777  -0.098408  -0.145402  0.000325  4.004964  0.001
C  C236  1  0.55473036  0.84020592  0.60862021  1  -0.067908  0.000777  -0.098415  -0.145334  0.000325  4.004904  0.001
C  C237  1  0.44526923  0.65979304  0.10861997  1  -0.067924  0.000777  -0.098472  -0.145519  0.000325  4.004999  0.001
C  C238  1  0.54145279  0.19994394  0.36018714  1  -0.013532  7.7e-05  -0.089986  -0.095103  -0.000228  4.000983  0.0
C  C239  1  0.45854196  0.30005633  0.86018768  1  -0.01394  7.7e-05  -0.090007  -0.09517  -0.000228  4.000947  0.0
C  C240  1  0.45853953  0.80005541  0.63981314  1  -0.013957  7.6e-05  -0.090004  -0.095128  -0.000228  4.000923  0.0
C  C241  1  0.54145781  0.69994354  0.13981260  1  -0.013913  7.6e-05  -0.089976  -0.095058  -0.000228  4.000915  0.0
C  C242  1  0.67163354  0.17028816  0.33757501  1  -0.0694  0.003942  -0.021863  -0.029757  0.0025  3.990911  0.003
C  C243  1  0.32836283  0.32971530  0.83757548  1  -0.068799  0.003942  -0.021802  -0.029655  0.0025  3.990861  0.003
C  C244  1  0.32836046  0.82971384  0.66242424  1  -0.068823  0.003942  -0.021968  -0.029893  0.0025  3.990986  0.003
C  C245  1  0.67164203  0.67028564  0.16242240  1  -0.06884  0.003943  -0.021934  -0.029764  0.0025  3.990749  0.003
C  C246  1  0.70128154  0.09948629  0.34571526  1  -0.037818  0.000402  -0.085688  -0.088806  3.8e-05  3.97795  0.0
C  C247  1  0.29871873  0.40051821  0.84571500  1  -0.037998  0.000401  -0.085762  -0.088932  3.8e-05  3.977985  0.0
C  C248  1  0.29870859  0.90051464  0.65428400  1  -0.037697  0.000401  -0.08568  -0.088904  3.8e-05  3.977935  0.0
C  C249  1  0.70129507  0.59948484  0.15428219  1  -0.037898  0.000401  -0.085684  -0.088963  3.8e-05  3.977926  0.0
C  C250  1  0.60342216  0.05921478  0.37633597  1  -0.03796  0.000684  -0.094269  -0.135588  0.00025  3.981171  0.001
C  C251  1  0.39658051  0.44078814  0.87633508  1  -0.038211  0.000684  -0.094264  -0.135658  0.00025  3.981137  0.001
C  C252  1  0.39656771  0.94078457  0.62366294  1  -0.037954  0.000684  -0.094218  -0.135349  0.00025  3.980904  0.001
C  C253  1  0.60343444  0.55921438  0.12366246  1  -0.03783  0.000684  -0.094253  -0.135397  0.00025  3.980926  0.001
C  C254  1  0.78125870  0.21363583  0.30616883  1  1.515791  -0.004169  0.184069  0.539805  -0.006012  4.215877  -0.006
C  C255  1  0.21873527  0.28636922  0.80616856  1  1.516569  -0.004167  0.184029  0.539706  -0.006012  4.215944  -0.006
C  C256  1  0.21874047  0.78636775  0.69383282  1  1.516669  -0.004167  0.184036  0.539672  -0.006012  4.215968  -0.006
C  C257  1  0.78126354  0.71363225  0.19383137  1  1.516756  -0.004168  0.184048  0.539711  -0.006012  4.215714  -0.006
C  C258  1  0.21369042  0.07293434  0.55503827  1  -0.043782  -0.000839  -0.004516  0.071669  -0.000938  3.982251  -0.001
C  C259  1  0.78631321  0.42706495  0.05503885  1  -0.043735  -0.000839  -0.004519  0.071547  -0.000938  3.982259  -0.001
C  C260  1  0.78630462  0.92706660  0.44496166  1  -0.043847  -0.000839  -0.004539  0.071629  -0.000938  3.982171  -0.001
C  C261  1  0.21369138  0.57293440  0.94496109  1  -0.043692  -0.000839  -0.004517  0.071548  -0.000938  3.982337  -0.001
C  C262  1  0.30447874  0.13444180  0.57046403  1  -0.097867  0.000553  -0.094449  -0.137625  0.000212  3.98598  0.0
C  C263  1  0.69552385  0.36555801  0.07046560  1  -0.098409  0.000553  -0.094451  -0.137616  0.000212  3.986103  0.0
C  C264  1  0.69551867  0.86555860  0.42953454  1  -0.097759  0.000553  -0.09449  -0.137675  0.000212  3.986037  0.0
C  C265  1  0.30447828  0.63444133  0.92953468  1  -0.097817  0.000553  -0.094448  -0.137622  0.000212  3.986102  0.0
C  C266  1  0.27007059  0.16472171  0.61246146  1  0.029496  0.000614  -0.087676  -0.092221  0.000208  3.997117  0.001
C  C267  1  0.72992859  0.33527810  0.11246340  1  0.029977  0.000614  -0.08761  -0.092131  0.000208  3.997297  0.001
C  C268  1  0.72992795  0.83527817  0.38753710  1  0.029372  0.000614  -0.087633  -0.092233  0.000207  3.997261  0.001
C  C269  1  0.27007091  0.66472019  0.88753654  1  0.029404  0.000614  -0.087646  -0.092225  0.000207  3.997312  0.001
C  C270  1  0.14613050  0.13365960  0.64076418  1  -0.107601  0.003199  -0.018647  -0.029154  0.002048  3.981795  0.002
C  C271  1  0.85386650  0.36634073  0.14076549  1  -0.107819  0.003199  -0.018676  -0.029165  0.002047  3.981788  0.002
C  C272  1  0.85386349  0.86634240  0.35923507  1  -0.107954  0.003199  -0.018647  -0.028966  0.002047  3.981575  0.002
C  C273  1  0.14613177  0.63365756  0.85923513  1  -0.107977  0.003199  -0.018673  -0.029114  0.002048  3.981735  0.002
C  C274  1  0.05655077  0.07191143  0.62596275  1  -0.000239  0.000625  -0.082478  -0.089227  0.000259  3.981912  0.001
C  C275  1  0.94345096  0.42808837  0.12596341  1  -0.000294  0.000625  -0.082459  -0.08919  0.000259  3.981901  0.001
C  C276  1  0.94344559  0.92809003  0.37403753  1  -0.000461  0.000625  -0.082471  -0.089336  0.000259  3.981904  0.001
C  C277  1  0.05654854  0.57190992  0.87403653  1  -0.00049  0.000625  -0.082473  -0.08929  0.000259  3.982083  0.001
C  C278  1  0.08811167  0.04266138  0.58347333  1  -0.003613  0.000535  -0.087679  -0.128742  0.000209  3.976961  0.0
C  C279  1  0.91189092  0.45733791  0.08347431  1  0.023784  0.000534  -0.087675  -0.12871  0.000209  3.977053  0.0
C  C280  1  0.91188451  0.95733903  0.41652661  1  -0.003571  0.000535  -0.08766  -0.128627  0.000209  3.976771  0.0
C  C281  1  0.08810990  0.54266091  0.91652597  1  -0.003679  0.000535  -0.087676  -0.128622  0.000209  3.976998  0.0
C  C282  1  0.10527106  0.16709766  0.68505972  1  1.549014  -0.003602  0.190946  0.550661  -0.005324  4.193522  -0.006
C  C283  1  0.89472860  0.33290213  0.18506003  1  1.549207  -0.003602  0.190969  0.550724  -0.005324  4.193306  -0.006
C  C284  1  0.89472267  0.83290274  0.31493987  1  1.549359  -0.003603  0.190993  0.550689  -0.005325  4.193187  -0.006
C  C285  1  0.10527204  0.66709564  0.81493922  1  1.549994  -0.003603  0.190998  0.550798  -0.005325  4.193114  -0.006
C  C286  1  0.13119671  0.62971380  0.45059039  1  1.554221  -0.000128  0.196751  0.558032  -0.0007  4.226916  -0.001
C  C287  1  0.86880652  0.87028613  0.95059079  1  1.554373  -0.000129  0.196724  0.557979  -0.0007  4.226936  -0.001
C  C288  1  0.86880780  0.37028502  0.54941195  1  1.554448  -0.000127  0.196854  0.558105  -0.0007  4.226996  -0.001
C  C289  1  0.13119230  0.12971533  0.04940983  1  1.554355  -0.000129  0.196787  0.558069  -0.0007  4.226755  -0.001
N  N290  1  0.78881594  0.55151371  0.49027517  1  -1.196756  0.056443  -0.353911  -0.290848  0.032997  3.592208  0.05
N  N291  1  0.21118341  0.94848357  0.99027383  1  -1.196432  0.056444  -0.353864  -0.290775  0.032998  3.592167  0.05
N  N292  1  0.21117557  0.44848088  0.50972477  1  -1.19614  0.056443  -0.353925  -0.290958  0.032997  3.592333  0.05
N  N293  1  0.78881618  0.05151525  0.00972542  1  -1.19617  0.056445  -0.353855  -0.290817  0.032998  3.592055  0.05
N  N294  1  0.58442462  0.57138649  0.44345689  1  -1.264517  0.002073  -0.221293  0.008516  0.000923  3.772304  0.002
N  N295  1  0.41557742  0.92861398  0.94345669  1  -1.264563  0.002072  -0.221245  0.00865  0.000923  3.772429  0.002
N  N296  1  0.41557130  0.42861233  0.55654236  1  -1.264469  0.002073  -0.221314  0.008462  0.000923  3.772233  0.002
N  N297  1  0.58442594  0.07138537  0.05654324  1  -1.264354  0.002073  -0.221309  0.008493  0.000923  3.772314  0.002
N  N298  1  0.18144035  0.73990033  0.27252534  1  -1.180004  0.065886  -0.348142  -0.268194  0.038055  3.638763  0.059
N  N299  1  0.81856093  0.76010229  0.77252471  1  -1.180283  0.065884  -0.348166  -0.268178  0.038054  3.638886  0.059
N  N300  1  0.81855128  0.26010219  0.72747596  1  -1.180221  0.065886  -0.348253  -0.268356  0.038055  3.638989  0.059
N  N301  1  0.18144348  0.23989600  0.22747660  1  -1.180109  0.065891  -0.34824  -0.268257  0.038057  3.638952  0.059
N  N302  1  0.32708128  0.66370409  0.30885077  1  -1.253927  0.001745  -0.22751  -0.005947  0.000534  3.798639  0.001
N  N303  1  0.67292129  0.83629746  0.80885141  1  -1.253815  0.001745  -0.227511  -0.005808  0.000534  3.798665  0.001
N  N304  1  0.67291316  0.33630055  0.69114883  1  -1.254442  0.001745  -0.227585  -0.006078  0.000534  3.798996  0.001
N  N305  1  0.32708680  0.16370083  0.19114955  1  -1.254013  0.001746  -0.227524  -0.006048  0.000535  3.798795  0.001
N  N306  1  0.10668139  0.32591087  0.30845715  1  -1.176234  0.060389  -0.34157  -0.248804  0.035067  3.627706  0.054
N  N307  1  0.89332442  0.17409153  0.80845794  1  -1.176145  0.060387  -0.341478  -0.248656  0.035066  3.627498  0.054
N  N308  1  0.89332505  0.67409218  0.69154004  1  -1.176619  0.060384  -0.341507  -0.248664  0.035064  3.627616  0.054
N  N309  1  0.10667044  0.82590835  0.19154165  1  -1.176269  0.060385  -0.341524  -0.248717  0.035065  3.627558  0.054
N  N310  1  0.24336396  0.41333992  0.34576722  1  -1.243272  0.002419  -0.223132  0.003234  0.001122  3.778366  0.002
N  N311  1  0.75664087  0.08666248  0.84576864  1  -1.243325  0.002419  -0.22316  0.003078  0.001122  3.778535  0.002
N  N312  1  0.75663521  0.58666366  0.65423066  1  -1.243097  0.002419  -0.223193  0.003069  0.001122  3.778525  0.002
N  N313  1  0.24335881  0.91333687  0.15423164  1  -1.243322  0.002419  -0.223153  0.003251  0.001122  3.778397  0.002
O  O314  1  0.14091232  0.59465190  0.48800980  1  -1.152758  0.073954  -0.326786  -0.570078  0.040953  2.325437  0.068
O  O315  1  0.85908992  0.90534802  0.98801053  1  -1.152785  0.073957  -0.326779  -0.570079  0.040954  2.325546  0.068
O  O316  1  0.85908132  0.40534798  0.51199253  1  -1.152784  0.073962  -0.326839  -0.570122  0.040957  2.325593  0.068
O  O317  1  0.14090994  0.09465238  0.01198975  1  -1.152734  0.073958  -0.326844  -0.570188  0.040955  2.32545  0.068
O  O318  1  0.07813916  0.60466949  0.41250036  1  -1.179458  0.000949  -0.325353  -0.549387  -0.000279  2.190339  0.001
O  O319  1  0.92186118  0.89532939  0.91250010  1  -1.17951  0.000949  -0.32536  -0.549379  -0.000279  2.190329  0.001
O  O320  1  0.92185929  0.39532986  0.58750129  1  -1.179515  0.000949  -0.325364  -0.549328  -0.000279  2.190303  0.001
O  O321  1  0.07813641  0.10467207  0.08749949  1  -1.179507  0.000948  -0.325313  -0.549336  -0.00028  2.19027  0.001
O  O322  1  0.91018540  0.18650010  0.29038794  1  -1.132721  0.092144  -0.332387  -0.544539  0.051326  2.212225  0.082
O  O323  1  0.08980803  0.31350231  0.79038588  1  -1.132584  0.092151  -0.332443  -0.544639  0.05133  2.212212  0.082
O  O324  1  0.08981473  0.81350189  0.70961542  1  -1.132639  0.092151  -0.332396  -0.544538  0.05133  2.212285  0.082
O  O325  1  0.91019192  0.68649863  0.20961474  1  -1.132718  0.092151  -0.332442  -0.544646  0.051331  2.212174  0.082
O  O326  1  0.75172608  0.27673442  0.29566054  1  -1.13438  0.078693  -0.325805  -0.532898  0.043686  2.125459  0.07
O  O327  1  0.24826932  0.22327221  0.79565824  1  -1.135521  0.078698  -0.325726  -0.532759  0.043691  2.125542  0.07
O  O328  1  0.24826695  0.72326916  0.70434179  1  -1.135656  0.078695  -0.325774  -0.532783  0.04369  2.125562  0.07
O  O329  1  0.75173203  0.77672978  0.20434204  1  -1.135604  0.078696  -0.325767  -0.5328  0.04369  2.125463  0.07
O  O330  1  0.01331275  0.13213124  0.71409888  1  -1.148263  0.080097  -0.329265  -0.550544  0.044654  2.197079  0.072
O  O331  1  0.98668737  0.36787013  0.21410026  1  -1.148309  0.080106  -0.329319  -0.550592  0.044658  2.196921  0.072
O  O332  1  0.98668361  0.86787023  0.28590002  1  -1.14827  0.080104  -0.329304  -0.550578  0.044658  2.196948  0.072
O  O333  1  0.01331091  0.63212816  0.78589933  1  -1.148392  0.0801  -0.329314  -0.550604  0.044656  2.196847  0.072
O  O334  1  0.15759723  0.23105232  0.69364429  1  -1.14007  0.075079  -0.318103  -0.533629  0.041901  2.168014  0.067
O  O335  1  0.84240030  0.26894906  0.19364527  1  -1.140049  0.075072  -0.318102  -0.533699  0.041897  2.168034  0.067
O  O336  1  0.84239659  0.76894862  0.30635428  1  -1.140062  0.075079  -0.318118  -0.533701  0.041901  2.167961  0.067
O  O337  1  0.15760052  0.73104977  0.80635501  1  -1.140595  0.07508  -0.318116  -0.533724  0.041902  2.167987  0.067
O  O338  1  0.01561343  0.52469173  0.57384336  1  -1.198636  0.069015  -0.569907  -0.740612  0.038517  2.102082  0.06
O  O339  1  0.98438708  0.97530671  0.07384266  1  -1.198693  0.069012  -0.569833  -0.740545  0.038516  2.102118  0.06
O  O340  1  0.98438590  0.47530550  0.42615829  1  -1.198631  0.069015  -0.569801  -0.740566  0.038518  2.102166  0.06
O  O341  1  0.01561270  0.02469317  0.92615796  1  -1.198614  0.069014  -0.569846  -0.740566  0.038517  2.102119  0.06
