# generated using pymatgen
data_CdH4C8O5
_symmetry_space_group_name_H-M   'P 1'
_cell_length_a   19.89858217
_cell_length_b   19.89839687
_cell_length_c   19.89840899
_cell_angle_alpha   109.47103267
_cell_angle_beta   109.47142528
_cell_angle_gamma   109.47142738
_symmetry_Int_Tables_number   1
_chemical_formula_structural   CdH4C8O5
_chemical_formula_sum   'Cd24 H96 C192 O120'
_cell_volume   6065.06536751
_cell_formula_units_Z   24
loop_
 _symmetry_equiv_pos_site_id
 _symmetry_equiv_pos_as_xyz
  1  'x, y, z'
loop_
 _atom_site_type_symbol
 _atom_site_label
 _atom_site_symmetry_multiplicity
 _atom_site_fract_x
 _atom_site_fract_y
 _atom_site_fract_z
 _atom_site_occupancy
 _atom_site_pbe_bader_charge
 _atom_site_pbe_bader_spin_density
 _atom_site_pbe_cm5_charge
 _atom_site_pbe_ddec_charge
 _atom_site_pbe_ddec_spin_density
 _atom_site_pbe_ddec_sum_bond_order
 _atom_site_pbe_magmom
Cd  Cd0  1  0.43145912  0.07082315  0.87745420  1  1.372267  0  0.797609  1.072113  0  2.164762  0
Cd  Cd1  1  0.92917769  0.36063726  0.80663157  1  1.373043  0  0.797588  1.072119  0  2.16474  0
Cd  Cd2  1  0.63936250  0.56854124  0.44599497  1  1.371772  0  0.797602  1.072121  0  2.164743  0
Cd  Cd3  1  0.37745527  0.93146028  0.07082231  1  1.372254  0  0.797596  1.072099  0  2.164806  0
Cd  Cd4  1  0.57082173  0.87745387  0.93145861  1  1.372264  0  0.797604  1.072129  0  2.164745  0
Cd  Cd5  1  0.12254623  0.69336871  0.05400557  1  1.372811  0  0.797584  1.07208  0  2.164788  0
Cd  Cd6  1  0.94599535  0.13936275  0.56854029  1  1.371631  0  0.797588  1.072077  0  2.164792  0
Cd  Cd7  1  0.55400551  0.62254614  0.69336898  1  1.372826  0  0.797602  1.072092  0  2.164754  0
Cd  Cd8  1  0.86063668  0.80663170  0.42917776  1  1.372963  0  0.797598  1.072099  0  2.164745  0
Cd  Cd9  1  0.06854105  0.44599474  0.13936343  1  1.371699  0  0.797608  1.072125  0  2.164745  0
Cd  Cd10  1  0.19336735  0.05400454  0.62254560  1  1.37279  0  0.797582  1.07208  0  2.164794  0
Cd  Cd11  1  0.30663267  0.42917759  0.36063703  1  1.373056  0  0.797573  1.072077  0  2.16481  0
Cd  Cd12  1  0.56854120  0.92917772  0.12254619  1  1.372269  0  0.797601  1.072089  0  2.164748  0
Cd  Cd13  1  0.07082244  0.63936280  0.19336832  1  1.372961  0  0.797577  1.072093  0  2.164782  0
Cd  Cd14  1  0.36063681  0.43145862  0.55400441  1  1.37169  0  0.79761  1.07211  0  2.164755  0
Cd  Cd15  1  0.62254506  0.06854058  0.92917808  1  1.372254  0  0.79758  1.072059  0  2.164836  0
Cd  Cd16  1  0.42917939  0.12254656  0.06854143  1  1.372243  0  0.797611  1.072123  0  2.164751  0
Cd  Cd17  1  0.87745441  0.30663185  0.94599482  1  1.372813  0  0.797607  1.072103  0  2.164761  0
Cd  Cd18  1  0.05400397  0.86063712  0.43145909  1  1.371654  0  0.797575  1.072063  0  2.164836  0
Cd  Cd19  1  0.44599512  0.37745442  0.30663141  1  1.372801  0  0.797588  1.072064  0  2.164818  0
Cd  Cd20  1  0.13936345  0.19336835  0.57082213  1  1.372938  0  0.797588  1.072101  0  2.164739  0
Cd  Cd21  1  0.93145908  0.55400532  0.86063645  1  1.371699  0  0.797605  1.072117  0  2.164751  0
Cd  Cd22  1  0.80663278  0.94599552  0.37745429  1  1.372781  0  0.797574  1.072074  0  2.164845  0
Cd  Cd23  1  0.69336678  0.57082179  0.63936271  1  1.373054  0  0.797566  1.072062  0  2.16484  0
H  H24  1  0.21404900  0.66106108  0.58310186  1  0.050722  0  0.103825  0.106989  0  0.990717  0
H  H25  1  0.33893737  0.55298882  0.92204314  1  0.059399  0  0.103786  0.106918  0  0.990686  0
H  H26  1  0.44701531  0.78595219  0.36905345  1  0.054339  0  0.1038  0.106975  0  0.990644  0
H  H27  1  0.08310151  0.71404777  0.66106042  1  0.050744  0  0.103803  0.106956  0  0.990687  0
H  H28  1  0.16106242  0.58310153  0.71404785  1  0.050789  0  0.103817  0.107007  0  0.990621  0
H  H29  1  0.41689460  0.57795758  0.13094662  1  0.053811  0  0.103769  0.106905  0  0.990664  0
H  H30  1  0.86905385  0.94701306  0.78595179  1  0.054285  0  0.103814  0.106987  0  0.990679  0
H  H31  1  0.63094683  0.91689808  0.57795930  1  0.053728  0  0.103819  0.106976  0  0.990684  0
H  H32  1  0.05298748  0.92204129  0.83893870  1  0.059406  0  0.103809  0.106946  0  0.9907  0
H  H33  1  0.28594779  0.36905394  0.94701107  1  0.054439  0  0.103796  0.10695  0  0.990636  0
H  H34  1  0.07796129  0.13094656  0.91689834  1  0.053773  0  0.103795  0.106967  0  0.990649  0
H  H35  1  0.42204108  0.83893918  0.55298717  1  0.059395  0  0.103815  0.106974  0  0.990692  0
H  H36  1  0.78595164  0.33893948  0.41689853  1  0.050742  0  0.103821  0.106988  0  0.990704  0
H  H37  1  0.66106357  0.44701143  0.07795725  1  0.059413  0  0.103775  0.106887  0  0.990737  0
H  H38  1  0.55298500  0.21404804  0.63094608  1  0.054341  0  0.103799  0.106984  0  0.990601  0
H  H39  1  0.91689862  0.28595228  0.33893947  1  0.050746  0  0.103788  0.106941  0  0.990652  0
H  H40  1  0.83893722  0.41689866  0.28595239  1  0.050679  0  0.103796  0.106956  0  0.990672  0
H  H41  1  0.58310604  0.42204298  0.86905377  1  0.053975  0  0.103791  0.106936  0  0.990657  0
H  H42  1  0.13094628  0.05298699  0.21404810  1  0.05428  0  0.103811  0.106979  0  0.990705  0
H  H43  1  0.36905362  0.08310230  0.42204144  1  0.053715  0  0.103791  0.106934  0  0.990642  0
H  H44  1  0.94701214  0.07795827  0.16106068  1  0.059389  0  0.103803  0.10697  0  0.990728  0
H  H45  1  0.71405234  0.63094611  0.05298882  1  0.054446  0  0.103802  0.106961  0  0.990629  0
H  H46  1  0.92203884  0.86905349  0.08310155  1  0.053771  0  0.103785  0.106937  0  0.990657  0
H  H47  1  0.57795874  0.16106119  0.44701272  1  0.059394  0  0.103813  0.106959  0  0.99072  0
H  H48  1  0.15686638  0.73514517  0.52166244  1  0.108086  0  0.110917  0.11604  0  0.985427  0
H  H49  1  0.26485381  0.42172208  0.78651797  1  0.105017  0  0.110926  0.116043  0  0.98541  0
H  H50  1  0.57828036  0.84313423  0.36479517  1  0.102535  0  0.110901  0.116011  0  0.985433  0
H  H51  1  0.02166171  0.65686608  0.73514539  1  0.108068  0  0.110908  0.11602  0  0.985453  0
H  H52  1  0.23514620  0.52166114  0.65686560  1  0.108029  0  0.1109  0.116005  0  0.985447  0
H  H53  1  0.47833611  0.71348249  0.13520478  1  0.101931  0  0.110934  0.116026  0  0.985469  0
H  H54  1  0.86479574  0.07827898  0.84313324  1  0.102337  0  0.110926  0.116055  0  0.985418  0
H  H55  1  0.63520459  0.97833787  0.71348334  1  0.102198  0  0.110918  0.116021  0  0.985424  0
H  H56  1  0.92172058  0.78651772  0.76485450  1  0.104954  0  0.110908  0.116022  0  0.985418  0
H  H57  1  0.34313059  0.36479627  0.07827785  1  0.10243  0  0.110909  0.116012  0  0.985492  0
H  H58  1  0.21348478  0.13520448  0.97833922  1  0.102187  0  0.110913  0.11604  0  0.985462  0
H  H59  1  0.28651678  0.76485433  0.42172117  1  0.104961  0  0.110925  0.116035  0  0.985411  0
H  H60  1  0.84313408  0.26485521  0.47833830  1  0.108075  0  0.110907  0.11601  0  0.985442  0
H  H61  1  0.73514632  0.57827797  0.21348192  1  0.105022  0  0.110929  0.116053  0  0.985404  0
H  H62  1  0.42171909  0.15686515  0.63520457  1  0.102522  0  0.110921  0.116058  0  0.985432  0
H  H63  1  0.97833892  0.34313448  0.26485500  1  0.108056  0  0.11091  0.116012  0  0.985434  0
H  H64  1  0.76485395  0.47833955  0.34313514  1  0.108041  0  0.110917  0.116053  0  0.985452  0
H  H65  1  0.52166452  0.28651806  0.86479561  1  0.101877  0  0.110903  0.116008  0  0.985491  0
H  H66  1  0.13520488  0.92172094  0.15686629  1  0.102205  0  0.110913  0.116039  0  0.985417  0
H  H67  1  0.36479655  0.02166319  0.28651755  1  0.102169  0  0.110913  0.116005  0  0.985455  0
H  H68  1  0.07827893  0.21348295  0.23514538  1  0.104949  0  0.110931  0.116066  0  0.985401  0
H  H69  1  0.65687005  0.63520429  0.92172254  1  0.102314  0  0.110913  0.116004  0  0.985524  0
H  H70  1  0.78651487  0.86479571  0.02166102  1  0.102175  0  0.110894  0.116  0  0.985434  0
H  H71  1  0.71348335  0.23514573  0.57827871  1  0.104963  0  0.110925  0.116042  0  0.985413  0
H  H72  1  0.34749243  0.74376545  0.71456254  1  0.109001  0  0.103721  0.103797  0  1.032525  0
H  H73  1  0.25623257  0.60372721  0.97079841  1  0.101151  0  0.103716  0.103841  0  1.032528  0
H  H74  1  0.39627559  0.65250905  0.36707157  1  0.122507  0  0.103695  0.103763  0  1.032471  0
H  H75  1  0.21456250  0.84749115  0.74376467  1  0.108992  0  0.103695  0.103766  0  1.03259  0
H  H76  1  0.24376743  0.71456296  0.84749142  1  0.109064  0  0.103698  0.103791  0  1.03245  0
H  H77  1  0.28543443  0.52920167  0.13292922  1  0.122181  0  0.103714  0.103826  0  1.03253  0
H  H78  1  0.86707124  0.89627332  0.65250813  1  0.122533  0  0.103702  0.103771  0  1.032567  0
H  H79  1  0.63292839  0.78543655  0.52920190  1  0.122162  0  0.103715  0.103787  0  1.032555  0
H  H80  1  0.10372708  0.97079827  0.75623473  1  0.101197  0  0.10371  0.10378  0  1.032559  0
H  H81  1  0.15250514  0.36707136  0.89627260  1  0.122503  0  0.103703  0.103819  0  1.032538  0
H  H82  1  0.02920411  0.13292835  0.78543649  1  0.122221  0  0.1037  0.10377  0  1.032479  0
H  H83  1  0.47079877  0.75623566  0.60372696  1  0.101083  0  0.103696  0.103772  0  1.032574  0
H  H84  1  0.65250819  0.25623447  0.28543700  1  0.109008  0  0.103701  0.10378  0  1.032499  0
H  H85  1  0.74376756  0.39627284  0.02920148  1  0.101164  0  0.103698  0.10383  0  1.03249  0
H  H86  1  0.60372392  0.34749162  0.63292832  1  0.122608  0  0.103692  0.103763  0  1.032476  0
H  H87  1  0.78543682  0.15250871  0.25623471  1  0.108997  0  0.103693  0.103754  0  1.032563  0
H  H88  1  0.75623290  0.28543791  0.15250897  1  0.109068  0  0.103702  0.103779  0  1.032453  0
H  H89  1  0.71456620  0.47079889  0.86707117  1  0.122164  0  0.103698  0.103804  0  1.032541  0
H  H90  1  0.13292858  0.10372704  0.34749175  1  0.122436  0  0.103698  0.103766  0  1.03257  0
H  H91  1  0.36707093  0.21456332  0.47079749  1  0.122202  0  0.103706  0.103767  0  1.032554  0
H  H92  1  0.89627305  0.02920179  0.24376516  1  0.101132  0  0.103712  0.10378  0  1.032559  0
H  H93  1  0.84749499  0.63292869  0.10372729  1  0.122504  0  0.103703  0.103816  0  1.032538  0
H  H94  1  0.97079551  0.86707120  0.21456290  1  0.122223  0  0.103702  0.103764  0  1.032479  0
H  H95  1  0.52920173  0.24376538  0.39627307  1  0.101192  0  0.103705  0.103781  0  1.03258  0
H  H96  1  0.33307421  0.99606226  0.69021349  1  0.6486  0  0.302175  0.355967  0  0.976552  0
H  H97  1  0.00393756  0.33701254  0.69415087  1  0.640529  0  0.302171  0.35595  0  0.976585  0
H  H98  1  0.66298675  0.66692531  0.35713836  1  0.637324  0  0.302172  0.35596  0  0.976583  0
H  H99  1  0.19021482  0.83307588  0.99606305  1  0.648591  0  0.302165  0.355943  0  0.976632  0
H  H100  1  0.49606206  0.69021371  0.83307512  1  0.648593  0  0.302164  0.355966  0  0.976575  0
H  H101  1  0.30978662  0.80584903  0.14286137  1  0.639709  0  0.302169  0.355963  0  0.976583  0
H  H102  1  0.85713945  0.16298753  0.66692468  1  0.637329  0  0.302168  0.35598  0  0.976551  0
H  H103  1  0.64286063  0.80978627  0.80584863  1  0.639522  0  0.302181  0.355995  0  0.976535  0
H  H104  1  0.83701223  0.69415134  0.50393736  1  0.640521  0  0.302174  0.355987  0  0.976566  0
H  H105  1  0.16692583  0.35713898  0.16298822  1  0.63732  0  0.302176  0.35596  0  0.976545  0
H  H106  1  0.30584861  0.14286120  0.80978628  1  0.639523  0  0.302195  0.356005  0  0.976524  0
H  H107  1  0.19415194  0.50393679  0.33701163  1  0.640536  0  0.30214  0.355911  0  0.976678  0
H  H108  1  0.66692542  0.00393730  0.30978589  1  0.648602  0  0.302173  0.355986  0  0.976535  0
H  H109  1  0.99606277  0.66298832  0.30584952  1  0.640524  0  0.302193  0.355996  0  0.976559  0
H  H110  1  0.33701289  0.33307487  0.64286188  1  0.637323  0  0.302166  0.355939  0  0.976604  0
H  H111  1  0.80978500  0.16692448  0.00393684  1  0.64859  0  0.302163  0.355928  0  0.976646  0
H  H112  1  0.50393776  0.30978665  0.16692477  1  0.648588  0  0.302168  0.355951  0  0.976584  0
H  H113  1  0.69021383  0.19415135  0.85713937  1  0.639524  0  0.302184  0.356  0  0.976526  0
H  H114  1  0.14286050  0.83701235  0.33307556  1  0.637329  0  0.302187  0.355995  0  0.976549  0
H  H115  1  0.35713900  0.19021328  0.19415075  1  0.639518  0  0.302175  0.355982  0  0.976546  0
H  H116  1  0.16298777  0.30584920  0.49606217  1  0.640525  0  0.302178  0.355976  0  0.97658  0
H  H117  1  0.83307430  0.64286107  0.83701166  1  0.637319  0  0.302176  0.355974  0  0.976551  0
H  H118  1  0.69415152  0.85713885  0.19021361  1  0.63971  0  0.302165  0.355942  0  0.976623  0
H  H119  1  0.80584868  0.49606314  0.66298790  1  0.640533  0  0.302173  0.355979  0  0.976585  0
C  C120  1  0.33226297  0.90164773  0.69395201  1  0.551836  0  0.101247  0.309277  0  3.993828  0
C  C121  1  0.09835230  0.43061723  0.79230488  1  0.554815  0  0.101204  0.309207  0  3.993776  0
C  C122  1  0.56938433  0.66773751  0.36168864  1  0.488118  0  0.101239  0.309285  0  3.993909  0
C  C123  1  0.19395275  0.83226340  0.90164737  1  0.551846  0  0.101212  0.30926  0  3.99378  0
C  C124  1  0.40164730  0.69395148  0.83226315  1  0.55203  0  0.101253  0.309281  0  3.993904  0
C  C125  1  0.30604781  0.70769509  0.13831236  1  0.497593  0  0.101266  0.309336  0  3.993854  0
C  C126  1  0.86168907  0.06938412  0.66773710  1  0.48808  0  0.10119  0.309168  0  3.993818  0
C  C127  1  0.63831154  0.80604837  0.70769553  1  0.497654  0  0.101237  0.30928  0  3.993852  0
C  C128  1  0.93061649  0.79230528  0.59835263  1  0.5548  0  0.10118  0.309165  0  3.993898  0
C  C129  1  0.16773547  0.36168833  0.06938361  1  0.488256  0  0.101208  0.309212  0  3.993863  0
C  C130  1  0.20769511  0.13831049  0.80604702  1  0.497699  0  0.101157  0.309108  0  3.993901  0
C  C131  1  0.29230610  0.59835298  0.43061612  1  0.554644  0  0.101158  0.30912  0  3.993899  0
C  C132  1  0.66773685  0.09835263  0.30604787  1  0.551836  0  0.101222  0.309263  0  3.99388  0
C  C133  1  0.90164765  0.56938265  0.20769536  1  0.554801  0  0.101251  0.309335  0  3.993858  0
C  C134  1  0.43061532  0.33226268  0.63831160  1  0.488128  0  0.10118  0.309137  0  3.99392  0
C  C135  1  0.80604771  0.16773698  0.09835338  1  0.552059  0  0.101189  0.309181  0  3.993852  0
C  C136  1  0.59835302  0.30604939  0.16773724  1  0.552021  0  0.101239  0.309267  0  3.993811  0
C  C137  1  0.69395215  0.29230479  0.86168789  1  0.497551  0  0.101229  0.309237  0  3.993838  0
C  C138  1  0.13831107  0.93061657  0.33226365  1  0.488222  0  0.101176  0.30922  0  3.993841  0
C  C139  1  0.36168859  0.19395169  0.29230436  1  0.49766  0  0.101208  0.309143  0  3.993878  0
C  C140  1  0.06938351  0.20769526  0.40164690  1  0.554817  0  0.101212  0.309234  0  3.993932  0
C  C141  1  0.83226466  0.63831173  0.93061628  1  0.488153  0  0.101202  0.309196  0  3.993929  0
C  C142  1  0.79230419  0.86168874  0.19395150  1  0.497779  0  0.10129  0.309413  0  3.993746  0
C  C143  1  0.70769452  0.40164695  0.56938341  1  0.554663  0  0.101233  0.309294  0  3.993737  0
C  C144  1  0.25658353  0.85476306  0.61855016  1  -0.021064  0  -0.038462  -0.196023  0  3.978996  0
C  C145  1  0.14523713  0.40182316  0.76378718  1  -0.037603  0  -0.038429  -0.195961  0  3.978906  0
C  C146  1  0.59817967  0.74341632  0.36196541  1  -0.00919  0  -0.038384  -0.195937  0  3.979066  0
C  C147  1  0.11855036  0.75658472  0.85476242  1  -0.021074  0  -0.038446  -0.196003  0  3.979016  0
C  C148  1  0.35476226  0.61854871  0.75658413  1  -0.021111  0  -0.038453  -0.196044  0  3.979141  0
C  C149  1  0.38144949  0.73621318  0.13803547  1  -0.003549  0  -0.038429  -0.196029  0  3.978976  0
C  C150  1  0.86196595  0.09817878  0.74341571  1  -0.009156  0  -0.038436  -0.195903  0  3.978954  0
C  C151  1  0.63803419  0.88144986  0.73621349  1  -0.003637  0  -0.038441  -0.196012  0  3.979029  0
C  C152  1  0.90182060  0.76378765  0.64523683  1  -0.037597  0  -0.038435  -0.195944  0  3.978977  0
C  C153  1  0.24341436  0.36196589  0.09817815  1  -0.00934  0  -0.038457  -0.196004  0  3.979  0
C  C154  1  0.23621356  0.13803423  0.88145053  1  -0.003626  0  -0.038404  -0.195872  0  3.978961  0
C  C155  1  0.26378724  0.64523661  0.40182064  1  -0.037444  0  -0.038402  -0.195884  0  3.97892  0
C  C156  1  0.74341642  0.14523682  0.38145008  1  -0.021076  0  -0.038446  -0.196013  0  3.978985  0
C  C157  1  0.85476350  0.59817740  0.23621321  1  -0.037583  0  -0.03845  -0.195971  0  3.978927  0
C  C158  1  0.40182109  0.25658375  0.63803534  1  -0.009229  0  -0.038415  -0.195964  0  3.979101  0
C  C159  1  0.88145028  0.24341584  0.14523797  1  -0.021087  0  -0.03845  -0.196019  0  3.97902  0
C  C160  1  0.64523725  0.38145196  0.24341576  1  -0.021067  0  -0.038416  -0.195985  0  3.979045  0
C  C161  1  0.61855051  0.26378736  0.86196406  1  -0.003494  0  -0.038461  -0.196025  0  3.979007  0
C  C162  1  0.13803450  0.90182160  0.25658503  1  -0.009288  0  -0.038427  -0.195968  0  3.978986  0
C  C163  1  0.36196675  0.11855039  0.26378690  1  -0.003642  0  -0.038439  -0.195975  0  3.97898  0
C  C164  1  0.09817892  0.23621302  0.35476306  1  -0.037617  0  -0.038458  -0.196004  0  3.979009  0
C  C165  1  0.75658595  0.63803435  0.90182138  1  -0.009408  0  -0.038423  -0.195963  0  3.978974  0
C  C166  1  0.76378570  0.86196434  0.11854871  1  -0.003637  0  -0.038448  -0.196086  0  3.979018  0
C  C167  1  0.73621307  0.35476362  0.59817889  1  -0.037444  0  -0.038428  -0.195964  0  3.978972  0
C  C168  1  0.24650675  0.72802531  0.61345052  1  0.011832  0  -0.100285  -0.121336  0  4.050194  0
C  C169  1  0.27197295  0.51848200  0.88542693  1  -0.013249  0  -0.100216  -0.121189  0  4.04998  0
C  C170  1  0.48152131  0.75349411  0.36694420  1  0.047016  0  -0.100348  -0.12151  0  4.050152  0
C  C171  1  0.11345170  0.74650603  0.72802563  1  0.011509  0  -0.100252  -0.121303  0  4.050227  0
C  C172  1  0.22802637  0.61345083  0.74650572  1  0.011469  0  -0.100323  -0.121478  0  4.050071  0
C  C173  1  0.38654594  0.61457361  0.13305529  1  0.063268  0  -0.100269  -0.121271  0  4.050039  0
C  C174  1  0.86694551  0.98151991  0.75349460  1  0.04699  0  -0.100266  -0.121335  0  4.050171  0
C  C175  1  0.63305601  0.88654975  0.61457498  1  0.062663  0  -0.100264  -0.121306  0  4.050089  0
C  C176  1  0.01848064  0.88542576  0.77197421  1  -0.013329  0  -0.100242  -0.121228  0  4.050155  0
C  C177  1  0.25348957  0.36694277  0.98151656  1  0.047092  0  -0.100253  -0.12125  0  4.049951  0
C  C178  1  0.11457620  0.13305490  0.88654918  1  0.062671  0  -0.100372  -0.12151  0  4.050234  0
C  C179  1  0.38542587  0.77197454  0.51848017  1  -0.013285  0  -0.100221  -0.121276  0  4.050147  0
C  C180  1  0.75349468  0.27197481  0.38654952  1  0.012018  0  -0.100262  -0.121344  0  4.050232  0
C  C181  1  0.72802768  0.48151856  0.11457346  1  -0.013343  0  -0.100237  -0.121167  0  4.050043  0
C  C182  1  0.51847850  0.24650562  0.63305483  1  0.047009  0  -0.10038  -0.12153  0  4.050165  0
C  C183  1  0.88654911  0.25349471  0.27197440  1  0.011701  0  -0.100286  -0.121402  0  4.05031  0
C  C184  1  0.77197314  0.38654984  0.25349417  1  0.011638  0  -0.100353  -0.121466  0  4.050188  0
C  C185  1  0.61345470  0.38542695  0.86694510  1  0.063114  0  -0.100253  -0.121261  0  4.049951  0
C  C186  1  0.13305513  0.01848065  0.24650579  1  0.047003  0  -0.100281  -0.121357  0  4.050217  0
C  C187  1  0.36694431  0.11345112  0.38542541  1  0.062649  0  -0.10028  -0.121323  0  4.050102  0
C  C188  1  0.98151899  0.11457380  0.22802517  1  -0.013287  0  -0.10026  -0.121356  0  4.050172  0
C  C189  1  0.74651006  0.63305679  0.01848282  1  0.047066  0  -0.100235  -0.12124  0  4.049931  0
C  C190  1  0.88542325  0.86694447  0.11345056  1  0.062675  0  -0.100343  -0.121467  0  4.050234  0
C  C191  1  0.61457376  0.22802502  0.48151922  1  -0.013281  0  -0.100227  -0.121246  0  4.050094  0
C  C192  1  0.21484019  0.76866470  0.57934876  1  -0.052737  0  -0.070347  -0.040814  0  3.97663  0
C  C193  1  0.23133342  0.44617647  0.81068431  1  -0.009363  0  -0.070384  -0.040838  0  3.976579  0
C  C194  1  0.55382599  0.78515940  0.36450798  1  -0.066426  0  -0.070315  -0.0407  0  3.976574  0
C  C195  1  0.07934886  0.71484062  0.76866491  1  -0.052314  0  -0.070327  -0.040773  0  3.976706  0
C  C196  1  0.26866594  0.57934828  0.71484062  1  -0.052074  0  -0.070289  -0.040655  0  3.976561  0
C  C197  1  0.42064875  0.68931568  0.13549242  1  -0.080168  0  -0.070342  -0.040731  0  3.976616  0
C  C198  1  0.86450840  0.05382482  0.78515924  1  -0.066171  0  -0.070355  -0.040838  0  3.976687  0
C  C199  1  0.63549229  0.92065144  0.68931685  1  -0.079795  0  -0.070338  -0.040768  0  3.97661  0
C  C200  1  0.94617559  0.81068402  0.73133489  1  -0.009382  0  -0.070347  -0.040829  0  3.976643  0
C  C201  1  0.28515643  0.36450823  0.05382320  1  -0.066309  0  -0.070352  -0.040789  0  3.976644  0
C  C202  1  0.18931788  0.13549244  0.92065221  1  -0.079853  0  -0.070273  -0.040711  0  3.976679  0
C  C203  1  0.31068368  0.73133391  0.44617480  1  -0.009317  0  -0.070402  -0.040831  0  3.976627  0
C  C204  1  0.78516007  0.23133487  0.42065149  1  -0.052945  0  -0.070323  -0.04073  0  3.97664  0
C  C205  1  0.76866671  0.55382358  0.18931558  1  -0.00937  0  -0.070391  -0.04087  0  3.976575  0
C  C206  1  0.44617396  0.21484047  0.63549226  1  -0.066425  0  -0.070294  -0.040718  0  3.976617  0
C  C207  1  0.92065096  0.28515975  0.23133498  1  -0.052549  0  -0.070283  -0.040659  0  3.97675  0
C  C208  1  0.73133371  0.42065190  0.28515963  1  -0.052108  0  -0.070296  -0.04073  0  3.976659  0
C  C209  1  0.57935188  0.31068487  0.86450797  1  -0.080104  0  -0.07036  -0.04079  0  3.976651  0
C  C210  1  0.13549173  0.94617524  0.21484065  1  -0.066029  0  -0.07035  -0.040811  0  3.976658  0
C  C211  1  0.36450835  0.07934912  0.31068354  1  -0.079754  0  -0.070315  -0.040714  0  3.976624  0
C  C212  1  0.05382504  0.18931654  0.26866550  1  -0.009376  0  -0.07032  -0.040769  0  3.976548  0
C  C213  1  0.71484388  0.63549201  0.94617633  1  -0.066172  0  -0.070401  -0.040826  0  3.976669  0
C  C214  1  0.81068207  0.86450743  0.07934803  1  -0.079837  0  -0.070282  -0.040662  0  3.976596  0
C  C215  1  0.68931645  0.26866614  0.55382509  1  -0.009317  0  -0.070408  -0.040858  0  3.976618  0
C  C216  1  0.36509856  0.86060664  0.72866292  1  0.084873  0  -0.032903  -0.17507  0  3.930486  0
C  C217  1  0.13939237  0.50449334  0.86805704  1  0.024622  0  -0.032878  -0.175012  0  3.930496  0
C  C218  1  0.49550895  0.63490160  0.36356442  1  0.023729  0  -0.032881  -0.175103  0  3.930534  0
C  C219  1  0.22866378  0.86509896  0.86060624  1  0.084964  0  -0.032899  -0.175091  0  3.930527  0
C  C220  1  0.36060802  0.72866372  0.86509931  1  0.084851  0  -0.032876  -0.175077  0  3.930501  0
C  C221  1  0.27133606  0.63194339  0.13643693  1  0.016105  0  -0.032908  -0.175141  0  3.930619  0
C  C222  1  0.86356441  0.99550742  0.63490121  1  0.023779  0  -0.032884  -0.175052  0  3.930519  0
C  C223  1  0.63643633  0.77133706  0.63194381  1  0.016063  0  -0.032902  -0.175097  0  3.930508  0
C  C224  1  0.00449261  0.86805676  0.63939326  1  0.02466  0  -0.03289  -0.175089  0  3.930582  0
C  C225  1  0.13489899  0.36356381  0.99550688  1  0.024562  0  -0.032891  -0.175013  0  3.930468  0
C  C226  1  0.13194407  0.13643496  0.77133599  1  0.016199  0  -0.032873  -0.175073  0  3.930484  0
C  C227  1  0.36805828  0.63939425  0.50449299  1  0.024504  0  -0.032906  -0.17507  0  3.930549  0
C  C228  1  0.63490139  0.13939324  0.27133732  1  0.084853  0  -0.032896  -0.175067  0  3.930528  0
C  C229  1  0.86060809  0.49550704  0.13194370  1  0.024623  0  -0.032909  -0.175111  0  3.930649  0
C  C230  1  0.50449105  0.36509895  0.63643512  1  0.023726  0  -0.032872  -0.175003  0  3.93036  0
C  C231  1  0.77133635  0.13490110  0.13939364  1  0.084967  0  -0.032932  -0.175148  0  3.930497  0
C  C232  1  0.63939230  0.27133714  0.13490108  1  0.084815  0  -0.032864  -0.175045  0  3.930453  0
C  C233  1  0.72866488  0.36805686  0.86356346  1  0.016046  0  -0.032855  -0.17495  0  3.930419  0
C  C234  1  0.13643541  0.00449295  0.36509868  1  0.023751  0  -0.032885  -0.175063  0  3.930511  0
C  C235  1  0.36356380  0.22866299  0.36805608  1  0.01605  0  -0.032883  -0.175002  0  3.930501  0
C  C236  1  0.99550739  0.13194378  0.36060627  1  0.02467  0  -0.03294  -0.17515  0  3.930685  0
C  C237  1  0.86510114  0.63643624  0.00449300  1  0.024568  0  -0.032908  -0.175052  0  3.930445  0
C  C238  1  0.86805555  0.86356459  0.22866339  1  0.016208  0  -0.032891  -0.175164  0  3.930438  0
C  C239  1  0.63194203  0.36060598  0.49550654  1  0.024661  0  -0.032919  -0.175129  0  3.930496  0
C  C240  1  0.32095146  0.77410426  0.68703472  1  -0.096869  0  -0.070324  -0.037713  0  3.957457  0
C  C241  1  0.22589355  0.54684743  0.91293157  1  -0.074869  0  -0.070349  -0.037866  0  3.957533  0
C  C242  1  0.45315500  0.67904940  0.36608378  1  -0.03763  0  -0.070219  -0.037535  0  3.957274  0
C  C243  1  0.18703584  0.82095118  0.77410428  1  -0.097013  0  -0.070263  -0.037635  0  3.95758  0
C  C244  1  0.27410598  0.68703506  0.82095060  1  -0.097252  0  -0.070272  -0.037648  0  3.95737  0
C  C245  1  0.31296224  0.58706843  0.13391610  1  -0.036603  0  -0.070289  -0.03778  0  3.957538  0
C  C246  1  0.86608443  0.95315293  0.67904899  1  -0.037752  0  -0.070281  -0.037686  0  3.957513  0
C  C247  1  0.63391647  0.81296481  0.58706921  1  -0.036454  0  -0.070317  -0.037716  0  3.957446  0
C  C248  1  0.04684701  0.91293100  0.72589568  1  -0.074875  0  -0.070312  -0.037701  0  3.957555  0
C  C249  1  0.17904619  0.36608376  0.95315194  1  -0.038585  0  -0.070303  -0.037823  0  3.95748  0
C  C250  1  0.08707065  0.13391568  0.81296462  1  -0.036517  0  -0.070233  -0.037582  0  3.957362  0
C  C251  1  0.41293214  0.72589649  0.54684645  1  -0.07466  0  -0.070314  -0.037717  0  3.957566  0
C  C252  1  0.67904966  0.22589616  0.31296532  1  -0.096847  0  -0.070307  -0.037707  0  3.957373  0
C  C253  1  0.77410640  0.45315245  0.08706867  1  -0.074778  0  -0.070283  -0.037814  0  3.957474  0
C  C254  1  0.54684450  0.32095064  0.63391525  1  -0.037715  0  -0.070271  -0.03762  0  3.957364  0
C  C255  1  0.81296449  0.17904968  0.22589611  1  -0.097069  0  -0.070274  -0.037584  0  3.957499  0
C  C256  1  0.72589415  0.31296500  0.17904929  1  -0.097197  0  -0.070262  -0.037617  0  3.957297  0
C  C257  1  0.68703857  0.41293230  0.86608394  1  -0.036556  0  -0.070303  -0.037836  0  3.957475  0
C  C258  1  0.13391587  0.04684730  0.32095055  1  -0.037658  0  -0.070281  -0.037679  0  3.957558  0
C  C259  1  0.36608316  0.18703475  0.41293017  1  -0.036459  0  -0.070272  -0.037675  0  3.957481  0
C  C260  1  0.95315281  0.08706937  0.27410420  1  -0.074842  0  -0.07032  -0.037675  0  3.957566  0
C  C261  1  0.82095425  0.63391598  0.04684795  1  -0.038549  0  -0.070298  -0.0378  0  3.957464  0
C  C262  1  0.91292948  0.86608437  0.18703527  1  -0.036526  0  -0.070199  -0.037504  0  3.957332  0
C  C263  1  0.58706835  0.27410393  0.45315273  1  -0.074909  0  -0.070295  -0.037704  0  3.957547  0
C  C264  1  0.21925801  0.89566455  0.58081446  1  1.576663  0  0.217073  0.615236  0  4.164979  0
C  C265  1  0.10433500  0.32359617  0.68514982  1  1.566638  0  0.217063  0.615213  0  4.164835  0
C  C266  1  0.67640476  0.78073981  0.36155417  1  1.564515  0  0.217037  0.615183  0  4.164944  0
C  C267  1  0.08081478  0.71926097  0.89566492  1  1.576649  0  0.217076  0.615239  0  4.16492  0
C  C268  1  0.39566439  0.58081449  0.71926017  1  1.576372  0  0.217063  0.615196  0  4.164961  0
C  C269  1  0.41918470  0.81485108  0.13844579  1  1.55371  0  0.217105  0.615328  0  4.164767  0
C  C270  1  0.86155498  0.17640534  0.78073976  1  1.564538  0  0.21712  0.615221  0  4.164913  0
C  C271  1  0.63844436  0.91918432  0.81485026  1  1.553702  0  0.217117  0.615273  0  4.16484  0
C  C272  1  0.82359416  0.68515075  0.60433476  1  1.566638  0  0.217087  0.61522  0  4.164856  0
C  C273  1  0.28073911  0.36155462  0.17640461  1  1.564544  0  0.217083  0.615262  0  4.16475  0
C  C274  1  0.31485094  0.13844516  0.91918585  1  1.553697  0  0.217069  0.615169  0  4.165051  0
C  C275  1  0.18514939  0.60433361  0.32359463  1  1.566686  0  0.217046  0.615226  0  4.164891  0
C  C276  1  0.78074131  0.10433531  0.41918493  1  1.576391  0  0.217106  0.615255  0  4.164872  0
C  C277  1  0.89566533  0.67640470  0.31485057  1  1.566679  0  0.21705  0.615163  0  4.164938  0
C  C278  1  0.32359520  0.21926007  0.63844607  1  1.56456  0  0.217031  0.615184  0  4.164998  0
C  C279  1  0.91918573  0.28074008  0.10433512  1  1.576679  0  0.217103  0.615293  0  4.164874  0
C  C280  1  0.60433512  0.41918618  0.28073971  1  1.576393  0  0.217045  0.615204  0  4.165016  0
C  C281  1  0.58081530  0.18514946  0.86155375  1  1.553789  0  0.217106  0.615325  0  4.164725  0
C  C282  1  0.13844566  0.82359522  0.21926063  1  1.564547  0  0.217087  0.615264  0  4.164918  0
C  C283  1  0.36155608  0.08081543  0.18514963  1  1.55371  0  0.217127  0.615306  0  4.164813  0
C  C284  1  0.17640554  0.31485010  0.39566478  1  1.566655  0  0.217122  0.615277  0  4.16484  0
C  C285  1  0.71926070  0.63844511  0.82359442  1  1.564616  0  0.217097  0.615248  0  4.16481  0
C  C286  1  0.68514899  0.86155408  0.08081354  1  1.553696  0  0.217094  0.615318  0  4.164753  0
C  C287  1  0.81485104  0.39566614  0.67640526  1  1.566658  0  0.217072  0.615253  0  4.164883  0
C  C288  1  0.44514049  0.90225761  0.80589624  1  1.553433  0  0.219925  0.636653  0  4.132454  0
C  C289  1  0.09774056  0.54288307  0.90363884  1  1.567951  0  0.219958  0.636707  0  4.132415  0
C  C290  1  0.45711763  0.55485853  0.36075570  1  1.547403  0  0.219952  0.636696  0  4.132485  0
C  C291  1  0.30589748  0.94514047  0.90225740  1  1.553234  0  0.219958  0.636743  0  4.132295  0
C  C292  1  0.40225904  0.80589835  0.94514104  1  1.553204  0  0.219949  0.636788  0  4.132398  0
C  C293  1  0.19410269  0.59636068  0.13924476  1  1.550714  0  0.220044  0.636894  0  4.132177  0
C  C294  1  0.86075622  0.95711617  0.55485962  1  1.547393  0  0.219894  0.636681  0  4.13229  0
C  C295  1  0.63924345  0.69410208  0.59636108  1  1.550751  0  0.219927  0.636652  0  4.132486  0
C  C296  1  0.04288321  0.90363941  0.59774199  1  1.568315  0  0.219952  0.636655  0  4.1324  0
C  C297  1  0.05485772  0.36075620  0.95711699  1  1.547386  0  0.219945  0.636679  0  4.132487  0
C  C298  1  0.09636116  0.13924295  0.69410154  1  1.550589  0  0.219964  0.636771  0  4.13241  0
C  C299  1  0.40364040  0.59774339  0.54288366  1  1.568153  0  0.219927  0.636656  0  4.132288  0
C  C300  1  0.55486012  0.09774231  0.19410329  1  1.553443  0  0.219906  0.636612  0  4.132448  0
C  C301  1  0.90225939  0.45711681  0.09636140  1  1.567955  0  0.219959  0.636746  0  4.132381  0
C  C302  1  0.54288186  0.44514151  0.63924333  1  1.547414  0  0.219924  0.636642  0  4.13256  0
C  C303  1  0.69410233  0.05485926  0.09774163  1  1.553264  0  0.219941  0.6367  0  4.132359  0
C  C304  1  0.59774079  0.19410201  0.05485885  1  1.55327  0  0.219915  0.636677  0  4.132381  0
C  C305  1  0.80589795  0.40363988  0.86075563  1  1.550712  0  0.219991  0.636812  0  4.132315  0
C  C306  1  0.13924374  0.04288370  0.44514062  1  1.547397  0  0.219971  0.636779  0  4.132252  0
C  C307  1  0.36075600  0.30589729  0.40363866  1  1.550748  0  0.219936  0.636642  0  4.13243  0
C  C308  1  0.95711710  0.09636083  0.40225754  1  1.568315  0  0.219974  0.636717  0  4.132381  0
C  C309  1  0.94514291  0.63924436  0.04288340  1  1.547387  0  0.219961  0.636747  0  4.132442  0
C  C310  1  0.90363847  0.86075660  0.30589784  1  1.550572  0  0.219938  0.636764  0  4.132394  0
C  C311  1  0.59636010  0.40225765  0.45711638  1  1.567986  0  0.219891  0.636648  0  4.132442  0
O  O312  1  0.47424198  0.85685214  0.81725718  1  -1.159394  0  -0.317825  -0.555153  0  2.328292  0
O  O313  1  0.14314792  0.61739040  0.96040569  1  -1.168573  0  -0.317804  -0.55512  0  2.328233  0
O  O314  1  0.38261160  0.52575827  0.34301597  1  -1.160816  0  -0.317804  -0.55512  0  2.328319  0
O  O315  1  0.31725820  0.97424096  0.85685074  1  -1.159179  0  -0.317787  -0.555133  0  2.328205  0
O  O316  1  0.35685372  0.81725962  0.97424122  1  -1.159353  0  -0.317795  -0.55518  0  2.328274  0
O  O317  1  0.18274227  0.53959458  0.15698507  1  -1.160659  0  -0.317824  -0.55519  0  2.32822  0
O  O318  1  0.84301476  0.88260883  0.52575769  1  -1.160873  0  -0.317731  -0.555058  0  2.328264  0
O  O319  1  0.65698476  0.68274272  0.53959520  1  -1.160609  0  -0.317796  -0.555112  0  2.328296  0
O  O320  1  0.11739042  0.96040552  0.64314785  1  -1.168584  0  -0.317814  -0.555098  0  2.328248  0
O  O321  1  0.02575630  0.34301497  0.88260933  1  -1.160838  0  -0.317788  -0.555102  0  2.328208  0
O  O322  1  0.03959507  0.15698262  0.68274165  1  -1.16057  0  -0.317796  -0.555137  0  2.328278  0
O  O323  1  0.46040699  0.64314914  0.61739099  1  -1.168426  0  -0.317752  -0.55506  0  2.328223  0
O  O324  1  0.52575881  0.14314797  0.18274200  1  -1.159381  0  -0.317815  -0.555124  0  2.328286  0
O  O325  1  0.85685289  0.38261034  0.03959434  1  -1.168563  0  -0.317786  -0.555103  0  2.328198  0
O  O326  1  0.61738823  0.47424209  0.65698392  1  -1.160809  0  -0.317787  -0.5551  0  2.328354  0
O  O327  1  0.68274130  0.02575908  0.14314829  1  -1.159386  0  -0.317764  -0.555076  0  2.328235  0
O  O328  1  0.64314691  0.18274094  0.02575917  1  -1.159412  0  -0.317758  -0.555073  0  2.328226  0
O  O329  1  0.81725786  0.46040548  0.84301482  1  -1.160667  0  -0.317782  -0.555148  0  2.328325  0
O  O330  1  0.15698537  0.11739122  0.47424219  1  -1.160877  0  -0.317756  -0.555101  0  2.328275  0
O  O331  1  0.34301507  0.31725764  0.46040469  1  -1.160614  0  -0.3178  -0.555098  0  2.328274  0
O  O332  1  0.88260989  0.03959472  0.35685168  1  -1.168562  0  -0.317799  -0.555098  0  2.328282  0
O  O333  1  0.97424333  0.65698458  0.11739005  1  -1.160837  0  -0.317796  -0.555135  0  2.328246  0
O  O334  1  0.96040538  0.84301776  0.31725910  1  -1.160557  0  -0.317798  -0.555171  0  2.328255  0
O  O335  1  0.53959283  0.35685122  0.38260890  1  -1.168602  0  -0.317731  -0.555046  0  2.328263  0
O  O336  1  0.48147545  0.98001600  0.85729023  1  -1.184077  0  -0.338559  -0.618363  0  2.419613  0
O  O337  1  0.01998322  0.50146034  0.87727330  1  -1.184499  0  -0.338584  -0.618414  0  2.419617  0
O  O338  1  0.49854021  0.51852371  0.37581374  1  -1.182947  0  -0.338602  -0.618411  0  2.419666  0
O  O339  1  0.35729039  0.98147527  0.98001502  1  -1.184043  0  -0.338622  -0.618474  0  2.419578  0
O  O340  1  0.48001730  0.85729057  0.98147667  1  -1.183873  0  -0.338589  -0.618428  0  2.419568  0
O  O341  1  0.14270942  0.62272544  0.12418573  1  -1.182889  0  -0.338642  -0.618479  0  2.419432  0
O  O342  1  0.87581478  0.99853944  0.51852447  1  -1.182891  0  -0.338642  -0.618473  0  2.41944  0
O  O343  1  0.62418577  0.64270990  0.62272678  1  -1.182943  0  -0.33859  -0.618399  0  2.419668  0
O  O344  1  0.00145943  0.87727558  0.51998448  1  -1.184769  0  -0.338566  -0.618337  0  2.419514  0
O  O345  1  0.01852374  0.37581367  0.99854008  1  -1.182965  0  -0.33859  -0.618402  0  2.419658  0
O  O346  1  0.12272718  0.12418669  0.64270951  1  -1.182951  0  -0.338616  -0.618462  0  2.419614  0
O  O347  1  0.37727603  0.51998518  0.50146062  1  -1.1848  0  -0.33861  -0.618406  0  2.419442  0
O  O348  1  0.51852486  0.01998424  0.14270930  1  -1.18409  0  -0.338545  -0.61833  0  2.419568  0
O  O349  1  0.98001741  0.49854022  0.12272709  1  -1.184504  0  -0.338598  -0.618438  0  2.419597  0
O  O350  1  0.50145930  0.48147696  0.62418614  1  -1.182982  0  -0.338552  -0.618353  0  2.419651  0
O  O351  1  0.64271021  0.01852403  0.01998365  1  -1.183872  0  -0.338599  -0.618427  0  2.41961  0
O  O352  1  0.51998270  0.14270997  0.01852287  1  -1.183856  0  -0.338595  -0.61843  0  2.419636  0
O  O353  1  0.85729071  0.37727462  0.87581415  1  -1.182895  0  -0.338638  -0.618504  0  2.419489  0
O  O354  1  0.12418535  0.00146062  0.48147541  1  -1.182891  0  -0.338647  -0.618497  0  2.419511  0
O  O355  1  0.37581337  0.35728978  0.37727296  1  -1.182909  0  -0.338594  -0.618411  0  2.419604  0
O  O356  1  0.99854008  0.12272509  0.48001541  1  -1.184756  0  -0.338591  -0.6184  0  2.419595  0
O  O357  1  0.98147707  0.62418707  0.00145995  1  -1.182966  0  -0.338567  -0.618389  0  2.419647  0
O  O358  1  0.87727282  0.87581385  0.35729002  1  -1.182936  0  -0.33859  -0.618425  0  2.419683  0
O  O359  1  0.62272460  0.48001538  0.49853977  1  -1.184462  0  -0.338589  -0.618409  0  2.419656  0
O  O360  1  0.37180593  0.98485082  0.72997502  1  -1.201081  0  -0.343786  -0.460709  0  2.407461  0
O  O361  1  0.01514996  0.38695622  0.74512472  1  -1.163508  0  -0.343784  -0.460717  0  2.407532  0
O  O362  1  0.61304346  0.62819394  0.35816882  1  -1.155429  0  -0.343851  -0.4608  0  2.407491  0
O  O363  1  0.22997594  0.87180660  0.98485006  1  -1.201089  0  -0.343802  -0.460738  0  2.40752  0
O  O364  1  0.48484895  0.72997472  0.87180600  1  -1.20128  0  -0.343834  -0.460778  0  2.407536  0
O  O365  1  0.27002511  0.75487448  0.14183094  1  -1.165008  0  -0.343818  -0.460781  0  2.407516  0
O  O366  1  0.85816989  0.11304386  0.62819374  1  -1.155357  0  -0.343779  -0.460718  0  2.407503  0
O  O367  1  0.64183103  0.77002476  0.75487518  1  -1.164835  0  -0.34377  -0.460727  0  2.407464  0
O  O368  1  0.88695584  0.74512462  0.51514931  1  -1.163494  0  -0.343784  -0.460724  0  2.407539  0
O  O369  1  0.12819416  0.35816894  0.11304396  1  -1.155447  0  -0.343769  -0.460701  0  2.407527  0
O  O370  1  0.25487470  0.14183046  0.77002484  1  -1.164847  0  -0.343782  -0.460711  0  2.407484  0
O  O371  1  0.24512668  0.51515050  0.38695646  1  -1.163483  0  -0.343703  -0.460615  0  2.407617  0
O  O372  1  0.62819389  0.01514954  0.27002487  1  -1.201086  0  -0.34379  -0.460743  0  2.407465  0
O  O373  1  0.98485017  0.61304383  0.25487517  1  -1.163505  0  -0.343792  -0.460777  0  2.407519  0
O  O374  1  0.38695617  0.37180562  0.64183056  1  -1.155419  0  -0.343756  -0.460657  0  2.407554  0
O  O375  1  0.77002439  0.12819426  0.01515033  1  -1.201276  0  -0.343764  -0.460661  0  2.407551  0
O  O376  1  0.51515087  0.27002565  0.12819388  1  -1.201277  0  -0.343829  -0.460773  0  2.407508  0
O  O377  1  0.72997532  0.24512527  0.85816894  1  -1.164831  0  -0.343782  -0.460757  0  2.407462  0
O  O378  1  0.14183024  0.88695619  0.37180615  1  -1.155374  0  -0.343794  -0.460754  0  2.407511  0
O  O379  1  0.35816910  0.22997529  0.24512470  1  -1.164832  0  -0.343771  -0.460691  0  2.407501  0
O  O380  1  0.11304366  0.25487542  0.48484972  1  -1.16348  0  -0.343773  -0.460705  0  2.407522  0
O  O381  1  0.87180695  0.64183148  0.88695607  1  -1.155368  0  -0.343784  -0.460723  0  2.407553  0
O  O382  1  0.74512556  0.85816911  0.22997541  1  -1.16513  0  -0.343813  -0.460772  0  2.407533  0
O  O383  1  0.75487413  0.48485024  0.61304358  1  -1.163497  0  -0.343778  -0.460745  0  2.407509  0
O  O384  1  0.25943775  0.97557325  0.61858591  1  -1.175565  0  -0.322029  -0.560518  0  2.269031  0
O  O385  1  0.02442783  0.28386615  0.64301287  1  -1.173152  0  -0.321978  -0.560463  0  2.26894  0
O  O386  1  0.71613375  0.74056147  0.35914679  1  -1.176899  0  -0.321993  -0.56045  0  2.26899  0
O  O387  1  0.11858715  0.75943992  0.97557351  1  -1.175563  0  -0.321996  -0.560465  0  2.268961  0
O  O388  1  0.47557204  0.61858587  0.75943834  1  -1.175548  0  -0.32203  -0.560501  0  2.268972  0
O  O389  1  0.38141347  0.85698719  0.14085149  1  -1.176362  0  -0.322027  -0.560531  0  2.268954  0
O  O390  1  0.85914718  0.21613495  0.74056104  1  -1.176937  0  -0.322024  -0.560509  0  2.268982  0
O  O391  1  0.64085104  0.88141333  0.85698690  1  -1.176372  0  -0.32203  -0.560513  0  2.268993  0
O  O392  1  0.78386479  0.64301296  0.52442663  1  -1.173171  0  -0.322017  -0.560511  0  2.269006  0
O  O393  1  0.24056220  0.35914703  0.21613470  1  -1.176925  0  -0.321984  -0.560457  0  2.268916  0
O  O394  1  0.35698650  0.14085290  0.88141383  1  -1.176352  0  -0.322019  -0.560497  0  2.269023  0
O  O395  1  0.14301284  0.52442599  0.28386504  1  -1.173199  0  -0.322014  -0.560502  0  2.268998  0
O  O396  1  0.74056187  0.02442630  0.38141347  1  -1.175567  0  -0.322029  -0.5605  0  2.268995  0
O  O397  1  0.97557261  0.71613360  0.35698702  1  -1.173175  0  -0.321996  -0.560456  0  2.268994  0
O  O398  1  0.28386719  0.25943878  0.64085360  1  -1.176893  0  -0.321962  -0.560424  0  2.26897  0
O  O399  1  0.88141298  0.24056014  0.02442638  1  -1.175568  0  -0.321999  -0.560472  0  2.268957  0
O  O400  1  0.52442745  0.38141417  0.24056069  1  -1.175562  0  -0.322  -0.560441  0  2.268988  0
O  O401  1  0.61858635  0.14301317  0.85914839  1  -1.176364  0  -0.321998  -0.560497  0  2.268932  0
O  O402  1  0.14085264  0.78386542  0.25943885  1  -1.176928  0  -0.321975  -0.560467  0  2.26895  0
O  O403  1  0.35914909  0.11858672  0.14301298  1  -1.176366  0  -0.322042  -0.560547  0  2.269003  0
O  O404  1  0.21613503  0.35698741  0.47557326  1  -1.173163  0  -0.322011  -0.560513  0  2.269019  0
O  O405  1  0.75943804  0.64085190  0.78386469  1  -1.176954  0  -0.322015  -0.560484  0  2.268971  0
O  O406  1  0.64301363  0.85914716  0.11858606  1  -1.176343  0  -0.321996  -0.560487  0  2.26887  0
O  O407  1  0.85698729  0.47557407  0.71613485  1  -1.173192  0  -0.322003  -0.560494  0  2.268986  0
O  O408  1  0.15098588  0.84999838  0.51480327  1  -1.176361  0  -0.321984  -0.550366  0  2.320745  0
O  O409  1  0.15000095  0.30098825  0.66480427  1  -1.167984  0  -0.322009  -0.550401  0  2.320616  0
O  O410  1  0.69901246  0.84901416  0.36381563  1  -1.169629  0  -0.321988  -0.550414  0  2.320651  0
O  O411  1  0.01480285  0.65098838  0.84999985  1  -1.176324  0  -0.322058  -0.550445  0  2.320718  0
O  O412  1  0.34999872  0.51480240  0.65098627  1  -1.176078  0  -0.322001  -0.550369  0  2.320719  0
O  O413  1  0.48519599  0.83519624  0.13618399  1  -1.167267  0  -0.322041  -0.550474  0  2.320622  0
O  O414  1  0.86381500  0.19901182  0.84901274  1  -1.169601  0  -0.322023  -0.550394  0  2.320676  0
O  O415  1  0.63618274  0.98519714  0.83519572  1  -1.167271  0  -0.32204  -0.550439  0  2.32059  0
O  O416  1  0.80098729  0.66480526  0.65000152  1  -1.168072  0  -0.322  -0.550375  0  2.32058  0
O  O417  1  0.34901333  0.36381629  0.19901233  1  -1.16959  0  -0.322034  -0.550447  0  2.320595  0
O  O418  1  0.33519731  0.13618440  0.98519768  1  -1.1673  0  -0.32198  -0.550344  0  2.320748  0
O  O419  1  0.16480293  0.65000025  0.30098741  1  -1.168012  0  -0.321985  -0.550418  0  2.320648  0
O  O420  1  0.84901438  0.15000119  0.48519697  1  -1.176087  0  -0.322034  -0.550414  0  2.320643  0
O  O421  1  0.85000001  0.69901264  0.33519698  1  -1.168033  0  -0.322003  -0.550395  0  2.320694  0
O  O422  1  0.30098718  0.15098602  0.63618462  1  -1.169635  0  -0.322019  -0.550417  0  2.320703  0
O  O423  1  0.98519697  0.34901198  0.15000003  1  -1.176346  0  -0.322067  -0.550477  0  2.320745  0
O  O424  1  0.65000049  0.48519858  0.34901362  1  -1.176188  0  -0.322018  -0.550415  0  2.320719  0
O  O425  1  0.51480383  0.16480412  0.86381590  1  -1.167325  0  -0.322043  -0.550474  0  2.320605  0
O  O426  1  0.13618495  0.80098805  0.15098750  1  -1.1696  0  -0.322039  -0.550436  0  2.320738  0
O  O427  1  0.36381739  0.01480292  0.16480416  1  -1.167287  0  -0.322022  -0.550428  0  2.3206  0
O  O428  1  0.19901303  0.33519560  0.34999887  1  -1.168113  0  -0.322039  -0.550436  0  2.320624  0
O  O429  1  0.65098746  0.63618381  0.80098684  1  -1.169577  0  -0.322006  -0.550395  0  2.320642  0
O  O430  1  0.66480234  0.86381579  0.01480256  1  -1.167305  0  -0.322056  -0.550479  0  2.320641  0
O  O431  1  0.83519782  0.34999919  0.69901248  1  -1.168078  0  -0.322009  -0.550438  0  2.320652  0
