# generated using pymatgen
data_Co3H42C50S3(NO10)2
_symmetry_space_group_name_H-M   'P 1'
_cell_length_a   16.60273555
_cell_length_b   17.23392599
_cell_length_c   20.17093222
_cell_angle_alpha   90.00002251
_cell_angle_beta   90.00014518
_cell_angle_gamma   100.37573755
_symmetry_Int_Tables_number   1
_chemical_formula_structural   Co3H42C50S3(NO10)2
_chemical_formula_sum   'Co12 H168 C200 S12 N8 O80'
_cell_volume   5677.13837458
_cell_formula_units_Z   4
loop_
 _symmetry_equiv_pos_site_id
 _symmetry_equiv_pos_as_xyz
  1  'x, y, z'
loop_
 _atom_site_type_symbol
 _atom_site_label
 _atom_site_symmetry_multiplicity
 _atom_site_fract_x
 _atom_site_fract_y
 _atom_site_fract_z
 _atom_site_occupancy
 _atom_site_pbe_bader_charge
 _atom_site_pbe_bader_spin_density
 _atom_site_pbe_cm5_charge
 _atom_site_pbe_ddec_charge
 _atom_site_pbe_ddec_spin_density
 _atom_site_pbe_ddec_sum_bond_order
 _atom_site_pbe_magmom
Co  Co0  1  0.03273572  0.25777255  0.66982584  1  1.417281  2.660901  0.690068  1.138814  2.89469  2.380955  2.65
Co  Co1  1  0.46726412  0.24222665  0.16982511  1  1.417218  2.660917  0.690092  1.13884  2.8947  2.380855  2.65
Co  Co2  1  0.96726391  0.74222786  0.33017478  1  1.417293  2.660913  0.69008  1.138822  2.894697  2.380966  2.65
Co  Co3  1  0.53273611  0.75777376  0.83017303  1  1.417401  2.660902  0.690068  1.138801  2.894697  2.380974  2.65
Co  Co4  1  0.13559769  0.45425190  0.63691377  1  1.291901  2.592414  0.670107  0.989864  2.7866  2.418881  2.551
Co  Co5  1  0.36439904  0.04574726  0.13691176  1  1.292015  2.592419  0.670072  0.989756  2.786624  2.418904  2.551
Co  Co6  1  0.86439882  0.54574792  0.36308833  1  1.292072  2.59241  0.670036  0.989691  2.786616  2.419043  2.551
Co  Co7  1  0.63559906  0.95425137  0.86308836  1  1.291999  2.592406  0.670089  0.989781  2.786603  2.4189  2.551
Co  Co8  1  0.90645864  0.06224550  0.64602960  1  1.270083  2.581889  0.666807  0.978432  2.755368  2.418934  2.526
Co  Co9  1  0.59354519  0.43775483  0.14603064  1  1.270067  2.581896  0.666785  0.978367  2.755368  2.418832  2.526
Co  Co10  1  0.09354494  0.93775667  0.35397151  1  1.270057  2.581892  0.66682  0.978494  2.755363  2.418921  2.526
Co  Co11  1  0.40645494  0.56224499  0.85396948  1  1.27006  2.581894  0.666835  0.978509  2.755364  2.418787  2.526
H  H12  1  0.35571829  0.43412574  0.71742887  1  0.109529  0.000267  0.107162  0.110539  -0.000105  1.04238  0.0
H  H13  1  0.14428449  0.06587232  0.21743136  1  0.109491  0.000267  0.107148  0.110546  -0.000105  1.04242  0.0
H  H14  1  0.64428424  0.56587407  0.28257026  1  0.109513  0.000267  0.107128  0.110494  -0.000105  1.042402  0.0
H  H15  1  0.85571328  0.93413104  0.78256975  1  0.109419  0.000267  0.107149  0.110587  -0.000105  1.042313  0.0
H  H16  1  0.49167505  0.40765445  0.75400044  1  0.122987  0.000114  0.117174  0.129091  1.7e-05  0.978986  0.0
H  H17  1  0.00832704  0.09234247  0.25400365  1  0.122978  0.000114  0.11718  0.129146  1.7e-05  0.978974  0.0
H  H18  1  0.50832632  0.59234241  0.24599521  1  0.122959  0.000114  0.117206  0.129163  1.7e-05  0.979009  0.0
H  H19  1  0.99167090  0.90765853  0.74599746  1  0.12291  0.000114  0.117189  0.129126  1.7e-05  0.978944  0.0
H  H20  1  0.39811691  0.15725432  0.74406620  1  0.089877  0.000144  0.107219  0.10853  5.6e-05  1.005888  0.0
H  H21  1  0.10188066  0.34274436  0.24406623  1  0.090011  0.000144  0.10721  0.108506  5.6e-05  1.005913  0.0
H  H22  1  0.60187938  0.84274432  0.25593392  1  0.090017  0.000144  0.107197  0.10844  5.6e-05  1.005894  0.0
H  H23  1  0.89812253  0.65725899  0.75593339  1  0.090076  0.000144  0.107223  0.108521  5.6e-05  1.005912  0.0
H  H24  1  0.26080886  0.18488992  0.71118905  1  0.107112  0.000194  0.110113  0.116372  6.1e-05  0.994693  0.0
H  H25  1  0.23918976  0.31511168  0.21118836  1  0.107158  0.000194  0.110118  0.11634  6.1e-05  0.994609  0.0
H  H26  1  0.73918832  0.81511344  0.28881255  1  0.107104  0.000194  0.110077  0.116312  6.1e-05  0.994746  0.0
H  H27  1  0.76081355  0.68489226  0.78880977  1  0.107241  0.000194  0.110099  0.116347  6.1e-05  0.994783  0.0
H  H28  1  0.54311221  0.33352529  0.90397471  1  0.142002  6.5e-05  0.113369  0.119607  3.6e-05  0.993944  0.0
H  H29  1  0.95688559  0.16646764  0.40397542  1  0.141867  6.5e-05  0.113321  0.119502  3.6e-05  0.993979  0.0
H  H30  1  0.45688745  0.66646568  0.09602293  1  0.141894  6.5e-05  0.113302  0.119529  3.6e-05  0.99386  0.0
H  H31  1  0.04310927  0.83352982  0.59602767  1  0.141905  6.5e-05  0.113311  0.11951  3.6e-05  0.993961  0.0
H  H32  1  0.49652886  0.27497965  0.01500731  1  0.161656  0.000155  0.110312  0.129368  -0.000152  1.033358  0.0
H  H33  1  0.00346970  0.22501526  0.51500599  1  0.161558  0.000154  0.110344  0.129418  -0.000152  1.033224  0.0
H  H34  1  0.50347037  0.72501545  0.98499330  1  0.161537  0.000155  0.110349  0.129421  -0.000152  1.03327  0.0
H  H35  1  0.99652779  0.77498338  0.48499463  1  0.16162  0.000155  0.11031  0.129348  -0.000152  1.033331  0.0
H  H36  1  0.45842236  0.04236566  0.92918808  1  0.099893  0.000517  0.112626  0.121568  0.000145  0.985981  0.0
H  H37  1  0.04157367  0.45763144  0.42919100  1  0.099987  0.000517  0.112617  0.121469  0.000145  0.986028  0.0
H  H38  1  0.54157195  0.95762885  0.07080857  1  0.100034  0.000517  0.112646  0.121496  0.000145  0.986048  0.0
H  H39  1  0.95842540  0.54236601  0.57081210  1  0.099927  0.000517  0.112593  0.121476  0.000145  0.986046  0.0
H  H40  1  0.50843560  0.09925875  0.81995075  1  0.132916  9e-05  0.109604  0.115096  -2e-06  1.037581  0.0
H  H41  1  0.99155936  0.40073646  0.31995211  1  0.133329  9e-05  0.109637  0.115192  -2e-06  1.037547  0.0
H  H42  1  0.49155777  0.90073400  0.18004490  1  0.133363  9e-05  0.109662  0.115155  -2e-06  1.037692  0.0
H  H43  1  0.00844005  0.59926277  0.68004950  1  0.133259  9e-05  0.109584  0.115122  -2e-06  1.037644  0.0
H  H44  1  0.20395306  0.20801173  0.59343142  1  0.134722  4.3e-05  0.111695  0.12158  -0.00018  1.011984  0.0
H  H45  1  0.29604818  0.29198975  0.09343184  1  0.134718  4.3e-05  0.111708  0.121585  -0.00018  1.012004  0.0
H  H46  1  0.79604827  0.79198809  0.40656770  1  0.134676  4.3e-05  0.111688  0.121562  -0.00018  1.011989  0.0
H  H47  1  0.70395365  0.70801596  0.90656729  1  0.134624  4.3e-05  0.111674  0.121542  -0.00018  1.011973  0.0
H  H48  1  0.34310276  0.18387354  0.55797609  1  0.11571  0.000109  0.112793  0.128852  3.6e-05  1.00208  0.0
H  H49  1  0.15689738  0.31612908  0.05797523  1  0.115754  0.000109  0.112756  0.128841  3.6e-05  1.00213  0.0
H  H50  1  0.65689890  0.81612804  0.44202304  1  0.115746  0.000109  0.112786  0.128878  3.6e-05  1.00216  0.0
H  H51  1  0.84310450  0.68387368  0.94202340  1  0.115662  0.000109  0.112784  0.128857  3.6e-05  1.002047  0.0
H  H52  1  0.23350638  0.94557512  0.50289784  1  0.084212  -2.5e-05  0.1096  0.115521  -0.000125  1.01076  0.0
H  H53  1  0.26649684  0.55442441  0.00289662  1  0.084227  -2.5e-05  0.109629  0.115573  -0.000125  1.010739  0.0
H  H54  1  0.76649845  0.05442410  0.49710277  1  0.084255  -2.5e-05  0.109646  0.11559  -0.000125  1.010727  0.0
H  H55  1  0.73350422  0.44557718  0.99710052  1  0.084345  -2.5e-05  0.109623  0.11558  -0.000125  1.010727  0.0
H  H56  1  0.09713894  0.96965025  0.54317893  1  0.094421  0.000458  0.112012  0.117219  0.000123  0.990437  0.0
H  H57  1  0.40286380  0.53034932  0.04317750  1  0.094367  0.000457  0.112016  0.117221  0.000123  0.990379  0.0
H  H58  1  0.90286435  0.03034721  0.45682168  1  0.094356  0.000457  0.112038  0.117228  0.000123  0.990411  0.0
H  H59  1  0.59713523  0.46965108  0.95681866  1  0.094699  0.000458  0.112046  0.117212  0.000123  0.990413  0.0
H  H60  1  0.47847925  0.12213906  0.62150179  1  0.098645  0.000114  0.112189  0.120544  5.5e-05  1.007012  0.0
H  H61  1  0.02152390  0.37786244  0.12150117  1  0.098718  0.000114  0.112188  0.120557  5.5e-05  1.006978  0.0
H  H62  1  0.52152948  0.87786488  0.37849932  1  0.098607  0.000114  0.112166  0.12053  5.5e-05  1.0071  0.0
H  H63  1  0.97847134  0.62213384  0.87849994  1  0.098605  0.000114  0.112156  0.120501  5.5e-05  1.007125  0.0
H  H64  1  0.53160466  0.06675574  0.72253485  1  0.116886  0.000237  0.10731  0.117766  2.5e-05  1.038321  0.0
H  H65  1  0.96839892  0.43324526  0.22253418  1  0.116961  0.000237  0.107294  0.117741  2.5e-05  1.038293  0.0
H  H66  1  0.46839945  0.93324289  0.27746725  1  0.117226  0.000237  0.107322  0.117779  2.5e-05  1.038259  0.0
H  H67  1  0.03159939  0.56675456  0.77746841  1  0.116904  0.000237  0.107311  0.11777  2.5e-05  1.038289  0.0
H  H68  1  0.43108121  0.83131006  0.65823046  1  0.083352  0.000202  0.106066  0.106453  6.1e-05  1.028264  0.0
H  H69  1  0.06892005  0.66869258  0.15823135  1  0.083313  0.000202  0.106093  0.106531  6.1e-05  1.028154  0.0
H  H70  1  0.56891815  0.16869212  0.34176718  1  0.083823  0.000202  0.106046  0.106477  6.1e-05  1.028132  0.0
H  H71  1  0.93107947  0.33130724  0.84177274  1  0.083279  0.000202  0.106064  0.106446  6.1e-05  1.028228  0.0
H  H72  1  0.38202564  0.88646614  0.55319660  1  0.082845  0.000146  0.106438  0.105843  6.7e-05  1.025555  0.0
H  H73  1  0.11797874  0.61353875  0.05319956  1  0.082668  0.000146  0.106429  0.10583  6.7e-05  1.025634  0.0
H  H74  1  0.61797860  0.11353957  0.44680054  1  0.082649  0.000146  0.106486  0.105883  6.7e-05  1.025684  0.0
H  H75  1  0.88202198  0.38646106  0.94680403  1  0.082748  0.000146  0.106471  0.105885  6.7e-05  1.025622  0.0
H  H76  1  0.70341985  0.13522077  0.57117714  1  0.10239  0.000232  0.104298  0.114034  -1.4e-05  1.043622  0.0
H  H77  1  0.79658126  0.36477595  0.07118055  1  0.102489  0.000232  0.104219  0.113961  -1.4e-05  1.043615  0.0
H  H78  1  0.29658148  0.86477905  0.42882050  1  0.102378  0.000232  0.10432  0.114048  -1.4e-05  1.043584  0.0
H  H79  1  0.20341875  0.63522328  0.92881808  1  0.102784  0.000231  0.104268  0.114033  -1.4e-05  1.04358  0.0
H  H80  1  0.57856107  0.19167675  0.55050817  1  0.10889  0.000123  0.10908  0.116063  6e-05  1.021013  0.0
H  H81  1  0.92143959  0.30832113  0.05051083  1  0.108958  0.000123  0.109079  0.116095  6e-05  1.021042  0.0
H  H82  1  0.42144261  0.80832601  0.44949146  1  0.108864  0.000123  0.109065  0.116036  6e-05  1.020981  0.0
H  H83  1  0.07855960  0.69167692  0.94949127  1  0.108914  0.000123  0.109075  0.116057  6e-05  1.021071  0.0
H  H84  1  0.70078360  0.41643954  0.62629759  1  0.122682  0.000134  0.113553  0.122388  6.7e-05  0.98436  0.0
H  H85  1  0.79921884  0.08356018  0.12629744  1  0.122684  0.000134  0.113546  0.122351  6.7e-05  0.984292  0.0
H  H86  1  0.29921757  0.58356263  0.37370104  1  0.122714  0.000134  0.113586  0.122427  6.7e-05  0.984333  0.0
H  H87  1  0.20078199  0.91644022  0.87370416  1  0.122686  0.000134  0.11354  0.122354  6.7e-05  0.984314  0.0
H  H88  1  0.82810312  0.35867826  0.64586994  1  0.089005  0.000162  0.11111  0.119795  9e-06  0.983928  0.0
H  H89  1  0.67189878  0.14132148  0.14586954  1  0.089039  0.000162  0.111143  0.119813  9e-06  0.983968  0.0
H  H90  1  0.17189673  0.64132332  0.35413167  1  0.089021  0.000162  0.111122  0.119768  9e-06  0.983965  0.0
H  H91  1  0.32810074  0.85867834  0.85413008  1  0.089029  0.000162  0.111122  0.119796  9e-06  0.983971  0.0
H  H92  1  0.48252140  0.23999550  0.46800668  1  0.132694  0.000115  0.107017  0.12275  5.2e-05  1.055489  0.0
H  H93  1  0.01747362  0.26000519  0.96800639  1  0.13252  0.000115  0.107021  0.122753  5.2e-05  1.055559  0.0
H  H94  1  0.51746964  0.76000728  0.53199542  1  0.132617  0.000115  0.107056  0.122826  5.2e-05  1.055434  0.0
H  H95  1  0.98252918  0.73999286  0.03199621  1  0.132597  0.000115  0.107063  0.122833  5.2e-05  1.055451  0.0
H  H96  1  0.48465451  0.25372751  0.34369909  1  0.111444  0.000163  0.109301  0.114129  -2.3e-05  1.038875  0.0
H  H97  1  0.01534416  0.24627540  0.84369879  1  0.111515  0.000163  0.109301  0.114096  -2.3e-05  1.038879  0.0
H  H98  1  0.51534271  0.74627290  0.65630400  1  0.111542  0.000163  0.109305  0.114157  -2.3e-05  1.038823  0.0
H  H99  1  0.98465848  0.75372500  0.15630380  1  0.111491  0.000163  0.109295  0.11414  -2.3e-05  1.038856  0.0
H  H100  1  0.61504596  0.49168391  0.36118384  1  0.130736  0.000246  0.110997  0.116119  4e-06  1.014072  0.0
H  H101  1  0.88495326  0.00831724  0.86117828  1  0.130748  0.000246  0.110998  0.116091  4e-06  1.014083  0.0
H  H102  1  0.38495575  0.50831473  0.63881727  1  0.130678  0.000246  0.11098  0.116058  4e-06  1.014068  0.0
H  H103  1  0.11504550  0.99168494  0.13881837  1  0.130615  0.000246  0.110994  0.116073  4e-06  1.014063  0.0
H  H104  1  0.61151950  0.48010983  0.48461244  1  0.104047  6.7e-05  0.112883  0.119395  2.7e-05  0.983319  0.0
H  H105  1  0.88847979  0.01988967  0.98460838  1  0.104073  6.7e-05  0.112859  0.119372  2.7e-05  0.983326  0.0
H  H106  1  0.38847822  0.51988999  0.51538818  1  0.104015  6.7e-05  0.112891  0.119402  2.7e-05  0.983306  0.0
H  H107  1  0.11152082  0.98010955  0.01539025  1  0.104084  6.7e-05  0.11287  0.119386  2.7e-05  0.983354  0.0
H  H108  1  0.21085646  0.68090409  0.52307582  1  0.071598  0.000111  0.094635  0.142608  3.3e-05  1.041451  0.0
H  H109  1  0.28914299  0.81909428  0.02307375  1  0.071531  0.000111  0.094624  0.142611  3.3e-05  1.041411  0.0
H  H110  1  0.78914449  0.31909691  0.47692480  1  0.071629  0.000111  0.094628  0.142593  3.3e-05  1.041441  0.0
H  H111  1  0.71085751  0.18090435  0.97692637  1  0.071597  0.000111  0.09459  0.14254  3.3e-05  1.041436  0.0
H  H112  1  0.13360326  0.59597114  0.53664475  1  0.087884  -0.000113  0.103143  0.164482  -0.00021  1.014404  0.0
H  H113  1  0.36639585  0.90402842  0.03664535  1  0.087923  -0.000113  0.103142  0.164515  -0.00021  1.014319  0.0
H  H114  1  0.86639828  0.40402985  0.46335438  1  0.087856  -0.000113  0.103134  0.164454  -0.00021  1.01443  0.0
H  H115  1  0.63360247  0.09597139  0.96335526  1  0.087878  -0.000113  0.103152  0.164509  -0.00021  1.014306  0.0
H  H116  1  0.23552842  0.58462699  0.52384922  1  0.101376  -8.8e-05  0.104649  0.160785  -0.000123  0.991118  0.0
H  H117  1  0.26446993  0.91537197  0.02384713  1  0.101324  -8.7e-05  0.104648  0.16076  -0.000123  0.991214  0.0
H  H118  1  0.76447143  0.41537459  0.47615140  1  0.101587  -8.8e-05  0.104643  0.160761  -0.000123  0.99111  0.0
H  H119  1  0.73552947  0.08462726  0.97615200  1  0.101329  -8.8e-05  0.104663  0.160784  -0.000123  0.9912  0.0
H  H120  1  0.27566682  0.81438316  0.65348733  1  0.086067  0.000308  0.112624  0.132407  0.000112  0.996436  0.0
H  H121  1  0.22433283  0.68561416  0.15348607  1  0.086616  0.000308  0.112634  0.132397  0.000112  0.996446  0.0
H  H122  1  0.72433390  0.18561665  0.34651527  1  0.08648  0.000308  0.112667  0.132462  0.000112  0.996414  0.0
H  H123  1  0.77566516  0.31438389  0.84651306  1  0.086112  0.000308  0.112652  0.132449  0.000112  0.996416  0.0
H  H124  1  0.20076213  0.77997339  0.59287032  1  0.075508  0.000187  0.101648  0.115805  5.1e-05  1.008729  0.0
H  H125  1  0.29923705  0.72002565  0.09286922  1  0.075507  0.000187  0.101631  0.115789  5.1e-05  1.008736  0.0
H  H126  1  0.79923833  0.22002820  0.40713179  1  0.07546  0.000187  0.101653  0.115822  5.1e-05  1.008818  0.0
H  H127  1  0.70076115  0.27997358  0.90713040  1  0.075489  0.000187  0.101633  0.115817  5.1e-05  1.00876  0.0
H  H128  1  0.30504843  0.76971241  0.57969701  1  0.044928  0.000212  0.099857  0.111065  6.1e-05  1.013311  0.0
H  H129  1  0.19495071  0.73028661  0.07969620  1  0.044898  0.000212  0.099844  0.11106  6.1e-05  1.013327  0.0
H  H130  1  0.69495301  0.23028799  0.42030509  1  0.044888  0.000212  0.099845  0.111021  6.1e-05  1.013398  0.0
H  H131  1  0.80504783  0.26971439  0.92030392  1  0.044925  0.000212  0.09985  0.111076  6.1e-05  1.013342  0.0
H  H132  1  0.28940032  0.74736786  0.73888299  1  0.083886  8.4e-05  0.106611  0.124914  -2.5e-05  0.998366  0.0
H  H133  1  0.21060174  0.75263132  0.23888371  1  0.083898  8.4e-05  0.106588  0.124903  -2.5e-05  0.998358  0.0
H  H134  1  0.71059853  0.25262842  0.26111861  1  0.08383  8.4e-05  0.106575  0.12489  -2.5e-05  0.998383  0.0
H  H135  1  0.78939849  0.24736909  0.76111641  1  0.083912  8.4e-05  0.106607  0.124906  -2.5e-05  0.998352  0.0
H  H136  1  0.29702945  0.64530330  0.73260712  1  0.088663  0.0002  0.103259  0.122524  -0.000167  1.029876  0.0
H  H137  1  0.20297056  0.85469469  0.23260736  1  0.088694  0.0002  0.10325  0.122553  -0.000167  1.029869  0.0
H  H138  1  0.70296831  0.35469357  0.26739250  1  0.088605  0.0002  0.103259  0.122539  -0.000168  1.029914  0.0
H  H139  1  0.79703027  0.14530571  0.76739326  1  0.088688  0.0002  0.103237  0.122502  -0.000168  1.029946  0.0
H  H140  1  0.20084223  0.67299544  0.75070733  1  0.121701  0.000316  0.104155  0.132521  7.9e-05  1.012916  0.0
H  H141  1  0.29915807  0.82700375  0.25070726  1  0.121717  0.000316  0.104159  0.132548  7.9e-05  1.012892  0.0
H  H142  1  0.79915624  0.32700201  0.24929329  1  0.121767  0.000316  0.10416  0.132558  7.9e-05  1.012941  0.0
H  H143  1  0.70084244  0.17299489  0.74929286  1  0.121702  0.000316  0.104168  0.132526  7.9e-05  1.012919  0.0
H  H144  1  0.65446859  0.94018591  0.67726603  1  0.067226  0.000129  0.100075  0.155182  -4.4e-05  1.022843  0.0
H  H145  1  0.84553706  0.55981613  0.17727092  1  0.067072  0.000129  0.100057  0.155168  -4.4e-05  1.022894  0.0
H  H146  1  0.34553169  0.05981154  0.32273508  1  0.067227  0.000129  0.100089  0.155192  -4.4e-05  1.022913  0.0
H  H147  1  0.15446635  0.44018840  0.82273266  1  0.067186  0.000129  0.100092  0.155223  -4.4e-05  1.022888  0.0
H  H148  1  0.71644110  0.02519671  0.64233150  1  0.126604  -0.000132  0.107561  0.171949  -0.000192  1.003149  0.0
H  H149  1  0.78356195  0.47480597  0.14233592  1  0.126659  -0.000132  0.107573  0.172004  -0.000192  1.003076  0.0
H  H150  1  0.28355612  0.97480369  0.35767060  1  0.126558  -0.000132  0.107587  0.171948  -0.000192  1.003225  0.0
H  H151  1  0.21644234  0.52519679  0.85766767  1  0.126609  -0.000132  0.107594  0.171986  -0.000192  1.003206  0.0
H  H152  1  0.74120533  0.99089547  0.72139349  1  0.083585  6.6e-05  0.111841  0.175446  -0.000131  0.991591  0.0
H  H153  1  0.75880035  0.50910603  0.22139521  1  0.083584  6.6e-05  0.111857  0.175454  -0.000131  0.991498  0.0
H  H154  1  0.25879528  0.00910375  0.27860762  1  0.083596  6.6e-05  0.111832  0.175431  -0.000131  0.991587  0.0
H  H155  1  0.24120251  0.49089555  0.77860689  1  0.083616  6.6e-05  0.111862  0.175439  -0.000131  0.991573  0.0
H  H156  1  0.66127320  0.74711054  0.61551575  1  0.072502  0.000341  0.111923  0.129932  0.000133  0.984956  0.0
H  H157  1  0.83873236  0.75289203  0.11551624  1  0.072582  0.000341  0.111904  0.129983  0.000133  0.984929  0.0
H  H158  1  0.33873169  0.25289222  0.38448238  1  0.072543  0.000341  0.111882  0.129927  0.000133  0.985009  0.0
H  H159  1  0.16126651  0.24711073  0.88448239  1  0.072569  0.000341  0.111915  0.129975  0.000133  0.984982  0.0
H  H160  1  0.62256550  0.83609016  0.60905644  1  0.077876  0.000364  0.102954  0.119667  0.000128  1.024679  0.0
H  H161  1  0.87743877  0.66390887  0.10905846  1  0.077944  0.000364  0.102943  0.119721  0.000128  1.024566  0.0
H  H162  1  0.37743643  0.16390965  0.39094071  1  0.077994  0.000364  0.102948  0.119682  0.000128  1.024632  0.0
H  H163  1  0.12256300  0.33609330  0.89094067  1  0.078014  0.000364  0.102934  0.119689  0.000128  1.024657  0.0
H  H164  1  0.64975695  0.80127377  0.68847718  1  0.078619  0.000378  0.106018  0.130912  -3.4e-05  1.022512  0.0
H  H165  1  0.85024962  0.69872652  0.18847916  1  0.078485  0.000378  0.106004  0.130877  -3.4e-05  1.022582  0.0
H  H166  1  0.35024487  0.19872546  0.31152046  1  0.078503  0.000378  0.106004  0.130886  -3.4e-05  1.022473  0.0
H  H167  1  0.14974975  0.30127566  0.81152046  1  0.078468  0.000378  0.10602  0.130856  -3.4e-05  1.02258  0.0
H  H168  1  0.78195821  0.74534584  0.58722120  1  0.054283  0.000119  0.109326  0.123186  1.4e-05  0.98272  0.0
H  H169  1  0.71804418  0.75465316  0.08722194  1  0.054272  0.000119  0.109331  0.123179  1.4e-05  0.982694  0.0
H  H170  1  0.21804438  0.25465751  0.41277594  1  0.054194  0.000119  0.109327  0.123151  1.4e-05  0.982718  0.0
H  H171  1  0.28195358  0.24534370  0.91277421  1  0.05583  0.000119  0.109321  0.12318  1.4e-05  0.982694  0.0
H  H172  1  0.86039523  0.80457669  0.63536087  1  0.081888  0.000414  0.09856  0.111325  0.00012  1.037811  0.0
H  H173  1  0.63960793  0.69542236  0.13536092  1  0.081931  0.000414  0.098569  0.111349  0.00012  1.03778  0.0
H  H174  1  0.13960726  0.19542607  0.36463727  1  0.08202  0.000414  0.09858  0.111322  0.00012  1.037754  0.0
H  H175  1  0.36039153  0.30457391  0.86463573  1  0.082029  0.000414  0.098565  0.111327  0.00012  1.03778  0.0
H  H176  1  0.83929394  0.83462125  0.55389362  1  0.101335  0.000507  0.102861  0.120068  0.000141  1.019493  0.0
H  H177  1  0.66071136  0.66537772  0.05389569  1  0.101409  0.000507  0.102861  0.120033  0.000141  1.019498  0.0
H  H178  1  0.16070838  0.16538387  0.44610402  1  0.101466  0.000507  0.102819  0.12001  0.000141  1.019537  0.0
H  H179  1  0.33928897  0.33461678  0.94610146  1  0.101507  0.000507  0.102816  0.120039  0.000141  1.019597  0.0
C  C180  1  0.21896865  0.32770130  0.68835271  1  1.570503  -0.003007  0.220824  0.587982  -0.003945  4.16812  -0.002
C  C181  1  0.28103351  0.17230027  0.18835206  1  1.5705  -0.003008  0.22087  0.587983  -0.003946  4.167999  -0.002
C  C182  1  0.78103526  0.67230264  0.31164940  1  1.570482  -0.003009  0.220793  0.587991  -0.003949  4.168054  -0.002
C  C183  1  0.71896913  0.82770013  0.81164856  1  1.570424  -0.003007  0.220784  0.588005  -0.003946  4.168051  -0.002
C  C184  1  0.30055233  0.31104454  0.71071517  1  -0.013991  0.009698  -0.0087  -0.021122  0.005061  3.924842  0.008
C  C185  1  0.19944864  0.18895352  0.21071683  1  -0.013876  0.009699  -0.00874  -0.021111  0.005061  3.924695  0.008
C  C186  1  0.69944867  0.68895351  0.28928446  1  -0.01366  0.009699  -0.008702  -0.021074  0.005061  3.924681  0.008
C  C187  1  0.80055351  0.81104747  0.78928478  1  -0.013686  0.009698  -0.008733  -0.021232  0.005061  3.924876  0.008
C  C188  1  0.36531484  0.37363785  0.72288325  1  -0.021432  -0.000501  -0.074361  -0.075087  -0.001052  3.917746  0.0
C  C189  1  0.13468819  0.12636140  0.22288475  1  -0.021567  -0.000501  -0.074286  -0.075033  -0.001052  3.917776  0.0
C  C190  1  0.63468709  0.62636196  0.27711538  1  -0.021412  -0.000501  -0.074335  -0.075054  -0.001052  3.917694  0.0
C  C191  1  0.86531298  0.87364078  0.77711586  1  -0.021547  -0.0005  -0.07436  -0.07514  -0.001051  3.917892  0.0
C  C192  1  0.44126267  0.35928089  0.74375643  1  -0.00237  0.000317  -0.071936  -0.075259  3.1e-05  3.954146  0.0
C  C193  1  0.05873874  0.14071897  0.24375977  1  -0.002343  0.000317  -0.07201  -0.075487  3.1e-05  3.954272  0.0
C  C194  1  0.55873685  0.64071892  0.25624170  1  -0.002343  0.000317  -0.071988  -0.075398  3.1e-05  3.954196  0.0
C  C195  1  0.94125882  0.85928321  0.75624233  1  -0.002203  0.000317  -0.071989  -0.075437  3.1e-05  3.954275  0.0
C  C196  1  0.45218380  0.28130369  0.75043138  1  -0.210479  -0.001907  -0.018769  -0.082702  -0.002084  3.994703  -0.001
C  C197  1  0.04781570  0.21869559  0.25043373  1  -0.210503  -0.001907  -0.018698  -0.082508  -0.002084  3.994671  -0.001
C  C198  1  0.54781621  0.71869554  0.24956675  1  -0.210285  -0.001907  -0.018742  -0.082675  -0.002084  3.994645  -0.001
C  C199  1  0.95218410  0.78130895  0.74956689  1  -0.210425  -0.001906  -0.018598  -0.082268  -0.002083  3.994302  -0.001
C  C200  1  0.38825476  0.21777434  0.73859695  1  -0.072574  0.000418  -0.080731  -0.090382  9.8e-05  3.984971  0.0
C  C201  1  0.11174339  0.28222433  0.23859747  1  -0.072739  0.000418  -0.080794  -0.090459  9.8e-05  3.985067  0.0
C  C202  1  0.61174454  0.78222429  0.26140565  1  -0.072741  0.000418  -0.080721  -0.090184  9.8e-05  3.984986  0.0
C  C203  1  0.88825860  0.71777902  0.76140166  1  -0.072718  0.000418  -0.080826  -0.090538  9.8e-05  3.984883  0.0
C  C204  1  0.31205016  0.23295994  0.71971971  1  0.012785  -0.000262  -0.077572  -0.081476  -0.000782  3.939907  0.0
C  C205  1  0.18794902  0.26703812  0.21972236  1  0.012855  -0.000262  -0.077521  -0.081353  -0.000782  3.939696  0.0
C  C206  1  0.68794733  0.76703869  0.28028289  1  0.012567  -0.000262  -0.077487  -0.081432  -0.000781  3.940062  0.0
C  C207  1  0.81205094  0.73296405  0.78027825  1  0.012585  -0.000262  -0.077498  -0.081319  -0.000782  3.939822  0.0
C  C208  1  0.52631711  0.21971823  0.85597193  1  -0.223917  -0.004687  -0.018318  -0.081058  -0.005164  3.982558  -0.003
C  C209  1  0.97367879  0.28027819  0.35597321  1  -0.223779  -0.004689  -0.018302  -0.080956  -0.005166  3.982481  -0.003
C  C210  1  0.47367960  0.78027628  0.14402471  1  -0.223787  -0.004689  -0.018289  -0.08106  -0.005166  3.982595  -0.003
C  C211  1  0.02631558  0.71971986  0.64403087  1  -0.224066  -0.004689  -0.018406  -0.08114  -0.005165  3.982576  -0.003
C  C212  1  0.52518071  0.26990759  0.91043001  1  -0.117728  0.000373  -0.07884  -0.095688  -7.6e-05  3.979371  0.001
C  C213  1  0.97481783  0.23008594  0.41042929  1  -0.117874  0.000374  -0.078803  -0.095645  -7.6e-05  3.979249  0.001
C  C214  1  0.47481808  0.73008515  0.08956812  1  -0.117891  0.000374  -0.078803  -0.095663  -7.6e-05  3.979147  0.001
C  C215  1  0.02518032  0.76990975  0.58957331  1  -0.11775  0.000374  -0.078732  -0.095543  -7.6e-05  3.979203  0.001
C  C216  1  0.49935752  0.23751383  0.97181534  1  0.016925  -0.002152  -0.074315  -0.075368  -0.002736  3.892351  -0.001
C  C217  1  0.00064028  0.26247918  0.47181562  1  0.016887  -0.002153  -0.074291  -0.0753  -0.002737  3.892169  -0.001
C  C218  1  0.50063766  0.76247891  0.02818180  1  0.016797  -0.002153  -0.074341  -0.075326  -0.002737  3.892156  -0.001
C  C219  1  0.99935940  0.73751827  0.52818549  1  0.016924  -0.002153  -0.074288  -0.075309  -0.002737  3.892234  -0.001
C  C220  1  0.47325090  0.15566970  0.97787451  1  -0.019457  0.002443  -0.007555  -0.018323  0.000795  3.94787  0.002
C  C221  1  0.02674391  0.34432332  0.47787736  1  -0.019472  0.002444  -0.007695  -0.018495  0.000795  3.948198  0.002
C  C222  1  0.52674439  0.84432363  0.02212213  1  -0.019466  0.002444  -0.007657  -0.018514  0.000795  3.948217  0.002
C  C223  1  0.97325298  0.65567532  0.52212425  1  -0.019376  0.002444  -0.007642  -0.01835  0.000795  3.947964  0.002
C  C224  1  0.47708949  0.10592359  0.92325383  1  -0.057499  -0.002064  -0.073103  -0.07992  -0.002555  3.93491  -0.001
C  C225  1  0.02290646  0.39406996  0.42325668  1  -0.057494  -0.002065  -0.072918  -0.079546  -0.002556  3.934979  -0.001
C  C226  1  0.52290388  0.89406915  0.07674232  1  -0.057058  -0.002065  -0.072954  -0.079589  -0.002556  3.934991  -0.001
C  C227  1  0.97709021  0.60592750  0.57674542  1  -0.057549  -0.002064  -0.072952  -0.079751  -0.002555  3.935007  -0.001
C  C228  1  0.50423893  0.13777258  0.86213126  1  -0.014343  0.001024  -0.081915  -0.098889  0.00031  3.98251  0.001
C  C229  1  0.99575700  0.36222385  0.36213410  1  -0.014447  0.001024  -0.082041  -0.099142  0.00031  3.982731  0.001
C  C230  1  0.49575429  0.86222252  0.13786390  1  -0.014887  0.001024  -0.082068  -0.09903  0.00031  3.982812  0.001
C  C231  1  0.00424087  0.63777361  0.63786801  1  -0.014357  0.001024  -0.081961  -0.098979  0.00031  3.98265  0.001
C  C232  1  0.43787994  0.12095243  0.04103031  1  1.51864  -0.005905  0.213254  0.581277  -0.008249  4.158043  -0.003
C  C233  1  0.06211521  0.37904310  0.54103214  1  1.517961  -0.005905  0.21326  0.581165  -0.008251  4.15831  -0.003
C  C234  1  0.56211354  0.87904091  0.95896733  1  1.517817  -0.005906  0.21322  0.581114  -0.008251  4.158454  -0.003
C  C235  1  0.93788206  0.62095435  0.45896947  1  1.51812  -0.005902  0.213309  0.581297  -0.008251  4.157911  -0.003
C  C236  1  0.06371322  0.10498997  0.59579754  1  1.537078  0.005903  0.22059  0.59175  0.004125  4.180375  0.006
C  C237  1  0.43628950  0.39500973  0.09579679  1  1.537195  0.0059  0.220518  0.59166  0.004123  4.180478  0.006
C  C238  1  0.93628920  0.89500925  0.40420159  1  1.537149  0.005903  0.220569  0.591745  0.004125  4.180545  0.006
C  C239  1  0.56371309  0.60499362  0.90420085  1  1.5372  0.005905  0.220697  0.591885  0.004126  4.18  0.006
C  C240  1  0.14414358  0.08978522  0.57151961  1  -0.022429  0.004615  -0.00553  -0.016282  0.001952  3.939818  0.004
C  C241  1  0.35586088  0.41021446  0.07151771  1  -0.022521  0.004616  -0.005522  -0.016287  0.001953  3.939903  0.004
C  C242  1  0.85586279  0.91021577  0.42848150  1  -0.022554  0.004615  -0.005497  -0.016274  0.001952  3.939798  0.004
C  C243  1  0.64414199  0.58978712  0.92847943  1  -0.022462  0.004615  -0.005483  -0.016289  0.001952  3.939796  0.004
C  C244  1  0.21237148  0.15090345  0.57443081  1  -0.048491  0.001917  -0.074704  -0.083631  0.000939  3.936218  0.001
C  C245  1  0.28763151  0.34909800  0.07443073  1  -0.048286  0.001917  -0.074662  -0.08355  0.000939  3.936193  0.001
C  C246  1  0.78763297  0.84909695  0.42556881  1  -0.048721  0.001918  -0.074703  -0.083579  0.00094  3.936137  0.001
C  C247  1  0.71236988  0.65090535  0.92556691  1  -0.048806  0.001919  -0.074675  -0.083549  0.00094  3.936119  0.001
C  C248  1  0.28891451  0.13766865  0.55444718  1  -0.084408  8.4e-05  -0.077864  -0.089421  -7.3e-05  3.956131  0.0
C  C249  1  0.21108638  0.36233161  0.05444546  1  -0.084508  8.4e-05  -0.077866  -0.08947  -7.2e-05  3.95613  0.0
C  C250  1  0.71108730  0.86233057  0.44554996  1  -0.084065  8.4e-05  -0.077869  -0.089552  -7.3e-05  3.956312  0.0
C  C251  1  0.78891561  0.63767174  0.94555317  1  -0.084058  8.4e-05  -0.077911  -0.089516  -7.3e-05  3.956121  0.0
C  C252  1  0.29494844  0.06314452  0.52966002  1  -0.183142  0.000638  -0.020549  -0.082299  0.000306  3.99959  0.0
C  C253  1  0.20505369  0.43685630  0.02965881  1  -0.183041  0.000637  -0.020537  -0.082302  0.000305  3.999368  0.0
C  C254  1  0.70505540  0.93685588  0.47033910  1  -0.182612  0.000638  -0.020517  -0.082136  0.000306  3.999385  0.0
C  C255  1  0.79494469  0.56314705  0.97034081  1  -0.182675  0.00064  -0.020526  -0.082182  0.000307  3.999515  0.0
C  C256  1  0.22710401  0.00213091  0.52444005  1  0.002354  -0.000653  -0.079931  -0.090814  -0.000879  3.977365  0.0
C  C257  1  0.27289942  0.49787049  0.02444148  1  0.002303  -0.000653  -0.079996  -0.090922  -0.000878  3.977204  0.0
C  C258  1  0.77290033  0.99786890  0.47555858  1  0.002304  -0.000653  -0.080007  -0.090966  -0.000879  3.977263  0.0
C  C259  1  0.72710054  0.50213169  0.97555417  1  0.001892  -0.000654  -0.079989  -0.091032  -0.000879  3.977342  0.0
C  C260  1  0.15142485  0.01561322  0.54623223  1  0.034737  0.001951  -0.070708  -0.071698  0.000818  3.932255  0.001
C  C261  1  0.34857821  0.48438585  0.04623084  1  0.034714  0.00195  -0.070717  -0.071681  0.000817  3.932143  0.001
C  C262  1  0.84857878  0.98438600  0.45376839  1  0.034678  0.001951  -0.070736  -0.071697  0.000818  3.9322  0.001
C  C263  1  0.65142137  0.51561751  0.95376978  1  0.034789  0.001951  -0.070748  -0.071607  0.000818  3.932224  0.001
C  C264  1  0.42659803  0.00652044  0.58258136  1  -0.228241  -0.001815  -0.020157  -0.081177  -0.002019  3.996249  -0.001
C  C265  1  0.07340482  0.49348338  0.08257939  1  -0.227972  -0.001816  -0.020061  -0.081024  -0.00202  3.996114  -0.001
C  C266  1  0.57340855  0.99348173  0.41741876  1  -0.229126  -0.001815  -0.020093  -0.081171  -0.002019  3.996436  -0.001
C  C267  1  0.92659273  0.50651880  0.91741974  1  -0.229124  -0.001815  -0.0201  -0.081088  -0.002019  3.996373  -0.001
C  C268  1  0.46747731  0.05861094  0.62975870  1  0.000894  0.000414  -0.075145  -0.073676  0.000115  3.946583  0.0
C  C269  1  0.03252920  0.44139234  0.12975812  1  0.000675  0.000414  -0.075164  -0.073775  0.000115  3.946378  0.0
C  C270  1  0.53252682  0.94139418  0.37024241  1  0.002133  0.000414  -0.075139  -0.073665  0.000115  3.946636  0.0
C  C271  1  0.96747273  0.55860748  0.87024299  1  0.002037  0.000414  -0.075121  -0.073627  0.000115  3.946722  0.0
C  C272  1  0.49625541  0.02741851  0.68677196  1  0.02947  -0.000307  -0.078141  -0.081629  -0.000846  3.917216  0.0
C  C273  1  0.00374839  0.47258541  0.18677232  1  0.029858  -0.000307  -0.078132  -0.08157  -0.000846  3.91702  0.0
C  C274  1  0.50375031  0.97258542  0.31322717  1  0.029041  -0.000307  -0.078148  -0.081602  -0.000846  3.917235  0.0
C  C275  1  0.99624943  0.52741499  0.81323028  1  0.02945  -0.000307  -0.078153  -0.081646  -0.000846  3.917327  0.0
C  C276  1  0.48267964  0.94558492  0.69706116  1  -0.05223  0.009485  -0.010522  -0.023121  0.004899  3.94396  0.008
C  C277  1  0.01731858  0.55442012  0.19706141  1  -0.052606  0.009483  -0.010476  -0.023119  0.004898  3.943919  0.008
C  C278  1  0.51731901  0.05441666  0.30293796  1  -0.052646  0.009486  -0.010458  -0.023118  0.004899  3.944011  0.008
C  C279  1  0.98267958  0.44558206  0.80294020  1  -0.052634  0.009486  -0.010503  -0.023106  0.004899  3.943948  0.008
C  C280  1  0.44020079  0.89463244  0.64964486  1  -0.001168  -0.000478  -0.080106  -0.086028  -0.001031  3.948649  0.0
C  C281  1  0.05980215  0.60536959  0.14964670  1  -0.000891  -0.000478  -0.080158  -0.086057  -0.001032  3.948573  0.0
C  C282  1  0.55980148  0.10536914  0.35035427  1  -0.001331  -0.000478  -0.080126  -0.086032  -0.001032  3.948512  0.0
C  C283  1  0.94019880  0.39463140  0.85035590  1  -0.000803  -0.000478  -0.080087  -0.086001  -0.001032  3.948571  0.0
C  C284  1  0.41234850  0.92497311  0.59192167  1  0.012429  0.000672  -0.081341  -0.086946  0.000257  3.997691  0.001
C  C285  1  0.08765638  0.57503063  0.09192356  1  0.012515  0.000672  -0.081354  -0.08706  0.000257  3.997916  0.001
C  C286  1  0.58765650  0.07503024  0.40807696  1  0.012538  0.000672  -0.081381  -0.087074  0.000257  3.998062  0.001
C  C287  1  0.91234358  0.42497154  0.90807854  1  0.01241  0.000673  -0.081401  -0.08706  0.000257  3.997993  0.001
C  C288  1  0.51742552  0.91230121  0.75704553  1  1.553817  -0.002914  0.218577  0.583881  -0.004087  4.183228  -0.002
C  C289  1  0.98257404  0.58769915  0.25704627  1  1.553782  -0.002914  0.218519  0.583818  -0.004087  4.183402  -0.002
C  C290  1  0.48257268  0.08769801  0.24295260  1  1.553694  -0.002915  0.218585  0.583929  -0.004087  4.18323  -0.002
C  C291  1  0.01742537  0.41230008  0.74295435  1  1.553799  -0.002914  0.218568  0.583902  -0.004087  4.183245  -0.002
C  C292  1  0.84898250  0.20955776  0.62283580  1  1.544679  -0.000242  0.218777  0.591569  -0.000828  4.176923  0.001
C  C293  1  0.65101885  0.29044255  0.12283442  1  1.544623  -0.000242  0.218675  0.591297  -0.000829  4.177054  0.001
C  C294  1  0.15101774  0.79044265  0.37716630  1  1.544663  -0.000241  0.218759  0.591524  -0.000828  4.176915  0.001
C  C295  1  0.34898079  0.70955785  0.87716272  1  1.544655  -0.000244  0.218744  0.5915  -0.00083  4.176985  0.001
C  C296  1  0.77398997  0.24421720  0.60865046  1  0.014235  0.008806  -0.010543  -0.025781  0.004512  3.93891  0.007
C  C297  1  0.72601133  0.25578309  0.10864972  1  0.014153  0.008806  -0.010551  -0.025794  0.004512  3.939169  0.007
C  C298  1  0.22600917  0.75578379  0.39135114  1  0.014284  0.008805  -0.010547  -0.025952  0.004512  3.939222  0.007
C  C299  1  0.27399011  0.74421731  0.89134692  1  0.01414  0.008805  -0.01055  -0.02585  0.004511  3.939141  0.007
C  C300  1  0.70366190  0.19714282  0.58195503  1  -0.036517  -0.000486  -0.08008  -0.088202  -0.000947  3.931384  0.0
C  C301  1  0.79633744  0.30285391  0.08195496  1  -0.036557  -0.000486  -0.08003  -0.08809  -0.000947  3.931574  0.0
C  C302  1  0.29633510  0.80285641  0.41804707  1  -0.036592  -0.000486  -0.080118  -0.08816  -0.000947  3.931491  0.0
C  C303  1  0.20366318  0.69714532  0.91804219  1  -0.036862  -0.000486  -0.080049  -0.08811  -0.000947  3.931479  0.0
C  C304  1  0.63343002  0.22864373  0.57051524  1  -0.018784  0.000657  -0.080107  -0.08739  0.000277  3.967724  0.001
C  C305  1  0.86656879  0.27135358  0.07051777  1  -0.018552  0.000657  -0.080075  -0.087453  0.000277  3.968054  0.001
C  C306  1  0.36657016  0.77135963  0.42948191  1  -0.018416  0.000657  -0.080097  -0.087352  0.000277  3.967633  0.001
C  C307  1  0.13343127  0.72864269  0.92948284  1  -0.018443  0.000657  -0.080129  -0.087493  0.000277  3.967887  0.001
C  C308  1  0.63394270  0.30775549  0.58638710  1  -0.231562  -0.002074  -0.016748  -0.074062  -0.002297  3.97215  -0.001
C  C309  1  0.86605694  0.19224597  0.08638812  1  -0.231961  -0.002074  -0.01682  -0.074179  -0.002296  3.972331  -0.001
C  C310  1  0.36605711  0.69224905  0.41361103  1  -0.231742  -0.002074  -0.016743  -0.074062  -0.002296  3.971984  -0.001
C  C311  1  0.13394416  0.80775267  0.91361200  1  -0.231909  -0.002075  -0.016728  -0.074042  -0.002297  3.972152  -0.001
C  C312  1  0.70307904  0.35544943  0.61354061  1  -0.014891  0.000519  -0.076701  -0.086508  0.000142  3.977461  0.001
C  C313  1  0.79692178  0.14455146  0.11354147  1  -0.014885  0.000519  -0.076668  -0.086323  0.000142  3.977188  0.001
C  C314  1  0.29692141  0.64455215  0.38645901  1  -0.014984  0.000519  -0.076767  -0.086605  0.000142  3.977235  0.001
C  C315  1  0.20307785  0.85544895  0.88645766  1  -0.014883  0.000519  -0.076681  -0.086402  0.000142  3.977212  0.001
C  C316  1  0.77316649  0.32333094  0.62456298  1  -0.011041  -0.000639  -0.074949  -0.079364  -0.001158  3.937621  0.0
C  C317  1  0.72683377  0.17666996  0.12456172  1  -0.011051  -0.000639  -0.075015  -0.079465  -0.001158  3.937783  0.0
C  C318  1  0.22683337  0.67667065  0.37543863  1  -0.011139  -0.000639  -0.074954  -0.079237  -0.001158  3.937573  0.0
C  C319  1  0.27316647  0.82333044  0.87543741  1  -0.011065  -0.00064  -0.074973  -0.079389  -0.001159  3.937696  0.0
C  C320  1  0.54706125  0.35940951  0.48259856  1  -0.195627  -0.000762  -0.020915  -0.077245  -0.000849  3.984628  0.0
C  C321  1  0.95293613  0.14059589  0.98259715  1  -0.195141  -0.000762  -0.021006  -0.077256  -0.000849  3.984369  0.0
C  C322  1  0.45293330  0.64059267  0.51740156  1  -0.195265  -0.000762  -0.021022  -0.077301  -0.000849  3.984627  0.0
C  C323  1  0.04706794  0.85940569  0.01740296  1  -0.195248  -0.000762  -0.021035  -0.077292  -0.000849  3.984416  0.0
C  C324  1  0.51139103  0.29468029  0.44425472  1  -0.082453  0.000277  -0.08865  -0.109946  8.4e-05  3.984664  0.0
C  C325  1  0.98860868  0.20532211  0.94425044  1  -0.083117  0.000277  -0.088527  -0.109841  8.4e-05  3.98456  0.0
C  C326  1  0.48860428  0.70531953  0.55574689  1  -0.082614  0.000277  -0.088569  -0.10982  8.4e-05  3.984457  0.0
C  C327  1  0.01139577  0.79467829  0.05574819  1  -0.083165  0.000277  -0.088534  -0.109779  8.4e-05  3.984406  0.0
C  C328  1  0.51226262  0.30216719  0.37565502  1  0.003535  0.000744  -0.080328  -0.088613  0.000133  3.946629  0.001
C  C329  1  0.98773209  0.19783220  0.87565123  1  0.004001  0.000744  -0.080367  -0.088533  0.000133  3.94661  0.001
C  C330  1  0.48773344  0.69783027  0.62434709  1  0.003571  0.000744  -0.080399  -0.088737  0.000133  3.946645  0.001
C  C331  1  0.01226950  0.80216584  0.12434740  1  0.004088  0.000744  -0.080381  -0.088757  0.000133  3.946752  0.001
C  C332  1  0.54875252  0.37297323  0.34538874  1  -0.048029  0.006314  -0.006961  -0.01821  0.003051  3.929177  0.005
C  C333  1  0.95124511  0.12702613  0.84538634  1  -0.048089  0.006313  -0.006935  -0.018368  0.003051  3.929171  0.005
C  C334  1  0.45124863  0.62702245  0.65461286  1  -0.048141  0.006313  -0.006857  -0.018248  0.003051  3.929091  0.005
C  C335  1  0.04875392  0.87297428  0.15461328  1  -0.048091  0.006314  -0.006951  -0.018299  0.003051  3.929052  0.005
C  C336  1  0.58613532  0.43674899  0.38449060  1  -0.024409  0.000417  -0.070025  -0.062215  -0.000263  3.903571  0.0
C  C337  1  0.91386145  0.06325159  0.88448860  1  -0.024484  0.000417  -0.070035  -0.062065  -0.000263  3.903588  0.0
C  C338  1  0.41386266  0.56324906  0.61551100  1  -0.024459  0.000417  -0.07002  -0.061979  -0.000263  3.90347  0.0
C  C339  1  0.08613599  0.93675000  0.11551103  1  -0.024348  0.000417  -0.070005  -0.061983  -0.000263  3.903385  0.0
C  C340  1  0.58489383  0.43033157  0.45346659  1  -0.044461  8e-06  -0.077013  -0.087955  -0.00015  3.968446  0.0
C  C341  1  0.91510230  0.06967085  0.95346409  1  -0.044495  8e-06  -0.077054  -0.088089  -0.00015  3.968552  0.0
C  C342  1  0.41510449  0.56966824  0.54653551  1  -0.044446  8e-06  -0.07708  -0.088178  -0.00015  3.96863  0.0
C  C343  1  0.08489465  0.93033133  0.04653553  1  -0.044504  8e-06  -0.077072  -0.088161  -0.00015  3.968668  0.0
C  C344  1  0.54480149  0.37742067  0.27142438  1  1.563859  0.000935  0.223537  0.594593  -0.000137  4.167226  0.002
C  C345  1  0.95519792  0.12257980  0.77142248  1  1.563928  0.000933  0.223477  0.594617  -0.000138  4.167135  0.002
C  C346  1  0.45519950  0.62257738  0.72857574  1  1.563874  0.000933  0.223534  0.594656  -0.000138  4.167169  0.002
C  C347  1  0.04480264  0.87742238  0.22857764  1  1.563916  0.000933  0.223442  0.594583  -0.000138  4.167181  0.002
C  C348  1  0.19735710  0.62308280  0.54678912  1  -0.122613  0.001743  -0.241427  -0.521207  0.000696  3.918431  0.001
C  C349  1  0.30264012  0.87691619  0.04678809  1  -0.122552  0.001743  -0.241485  -0.521281  0.000696  3.918394  0.001
C  C350  1  0.80264324  0.37691820  0.45321000  1  -0.122783  0.001743  -0.241429  -0.521162  0.000696  3.918366  0.001
C  C351  1  0.69735917  0.12308244  0.95321103  1  -0.122584  0.001743  -0.241418  -0.521205  0.000696  3.918431  0.001
C  C352  1  0.21206536  0.62433376  0.62011743  1  1.342057  0.000282  0.246556  0.513034  0.000177  4.034861  0.001
C  C353  1  0.28793200  0.87566471  0.12011786  1  1.342076  0.000283  0.246631  0.512944  0.000178  4.034965  0.001
C  C354  1  0.78793405  0.37566547  0.37988219  1  1.342052  0.000282  0.246558  0.512902  0.000177  4.034956  0.001
C  C355  1  0.71206670  0.12433392  0.87988375  1  1.342032  0.000282  0.246563  0.513006  0.000177  4.034878  0.001
C  C356  1  0.25649848  0.76789535  0.61700312  1  0.250212  0.001261  -0.133434  -0.273972  0.000771  3.906851  0.001
C  C357  1  0.24350116  0.73210253  0.11700241  1  0.249657  0.001261  -0.133415  -0.273959  0.000771  3.906702  0.001
C  C358  1  0.74350296  0.23210506  0.38300047  1  0.249837  0.001261  -0.133481  -0.274057  0.00077  3.906914  0.001
C  C359  1  0.75649802  0.26789552  0.88299771  1  0.250163  0.001261  -0.133458  -0.274067  0.000771  3.90681  0.001
C  C360  1  0.25813461  0.68908881  0.72276570  1  0.186012  0.000249  -0.142092  -0.277604  -3.9e-05  3.870265  0.0
C  C361  1  0.24186549  0.81090976  0.22276352  1  0.186171  0.000249  -0.142158  -0.277784  -3.9e-05  3.870347  0.0
C  C362  1  0.74186387  0.31090864  0.27723641  1  0.1863  0.000248  -0.14215  -0.277814  -3.9e-05  3.870449  0.0
C  C363  1  0.75813381  0.18908888  0.77723610  1  0.186021  0.000249  -0.142203  -0.277702  -3.9e-05  3.870409  0.0
C  C364  1  0.71718986  0.97202462  0.67201101  1  -0.085993  0.003234  -0.238137  -0.524396  0.001587  3.87709  0.002
C  C365  1  0.78281491  0.52797919  0.17201279  1  -0.085927  0.003234  -0.23818  -0.524432  0.001587  3.877112  0.002
C  C366  1  0.28281004  0.02797402  0.32798960  1  -0.086004  0.003235  -0.238176  -0.524373  0.001588  3.877125  0.002
C  C367  1  0.21718840  0.47202475  0.82798981  1  -0.086008  0.003235  -0.238165  -0.52444  0.001587  3.877192  0.002
C  C368  1  0.77392534  0.92476490  0.64026290  1  1.307818  -0.000133  0.246817  0.512636  -6.3e-05  4.027362  0.0
C  C369  1  0.72608020  0.57523711  0.14026607  1  1.307769  -0.000132  0.246749  0.512543  -6.4e-05  4.027265  0.0
C  C370  1  0.22607583  0.07523727  0.35973672  1  1.307836  -0.000131  0.246739  0.51263  -6.3e-05  4.027133  0.0
C  C371  1  0.27392233  0.42476270  0.85973306  1  1.307781  -0.000131  0.246723  0.512578  -6.4e-05  4.027068  0.0
C  C372  1  0.66614828  0.80661111  0.63575281  1  0.247189  0.001465  -0.136152  -0.281493  0.000907  3.887849  0.001
C  C373  1  0.83385691  0.69338912  0.13575476  1  0.246925  0.001465  -0.136028  -0.281426  0.000907  3.887841  0.001
C  C374  1  0.33385376  0.19338929  0.36424532  1  0.247008  0.001465  -0.136045  -0.28132  0.000907  3.887925  0.001
C  C375  1  0.16614366  0.30661305  0.86424437  1  0.246918  0.001465  -0.136068  -0.281402  0.000907  3.88803  0.001
C  C376  1  0.81153808  0.80574241  0.59889795  1  0.228764  0.00038  -0.135964  -0.264389  0.000148  3.898055  0.0
C  C377  1  0.68846555  0.69425660  0.09889959  1  0.22868  0.00038  -0.135953  -0.264286  0.000148  3.898177  0.0
C  C378  1  0.18846369  0.19425976  0.40110019  1  0.228598  0.000381  -0.135912  -0.264118  0.000148  3.898044  0.0
C  C379  1  0.31153484  0.30574144  0.90109755  1  0.226905  0.00038  -0.135842  -0.264225  0.000148  3.898134  0.0
S  S380  1  0.54925975  0.26172035  0.77574662  1  2.491805  -0.000998  0.475602  0.961406  -0.001301  5.747251  0.0
S  S381  1  0.95073830  0.23827599  0.27574486  1  2.491672  -0.000998  0.475498  0.961145  -0.001301  5.747292  0.0
S  S382  1  0.45073790  0.73827593  0.22425201  1  2.491574  -0.000998  0.475514  0.961195  -0.001301  5.747232  0.0
S  S383  1  0.04926302  0.76172383  0.72425575  1  2.49145  -0.000998  0.475505  0.961143  -0.001301  5.747311  0.0
S  S384  1  0.39264499  0.04375817  0.50781483  1  2.468175  -0.000532  0.475415  0.958353  -0.000677  5.75352  0.0
S  S385  1  0.10735840  0.45624971  0.00781292  1  2.467979  -0.000532  0.475433  0.958515  -0.000677  5.753699  0.0
S  S386  1  0.60735865  0.95624754  0.49218480  1  2.467881  -0.000532  0.475491  0.958623  -0.000677  5.753584  0.0
S  S387  1  0.89264107  0.54375306  0.99218720  1  2.468008  -0.000531  0.475291  0.958266  -0.000677  5.753911  0.0
S  S388  1  0.54427571  0.34851847  0.57059151  1  2.498064  -0.000577  0.469526  0.956172  -0.000758  5.758846  0.0
S  S389  1  0.95572205  0.15147648  0.07059122  1  2.498135  -0.000577  0.469661  0.956166  -0.000758  5.758869  0.0
S  S390  1  0.45572118  0.65148017  0.42941009  1  2.498281  -0.000577  0.469534  0.956087  -0.000758  5.759021  0.0
S  S391  1  0.04427888  0.84851802  0.92940890  1  2.498294  -0.000577  0.469533  0.95612  -0.000758  5.7588  0.0
N  N392  1  0.24129656  0.69209168  0.65145812  1  -1.173861  0.007596  -0.270897  -0.011665  0.003638  3.627515  0.006
N  N393  1  0.25870330  0.80790682  0.15145697  1  -1.174108  0.007596  -0.270798  -0.01141  0.003637  3.627344  0.006
N  N394  1  0.75870334  0.30790695  0.34854299  1  -1.174099  0.007596  -0.270746  -0.011281  0.003637  3.627339  0.006
N  N395  1  0.74129611  0.19209241  0.84854315  1  -1.173913  0.007595  -0.27073  -0.011455  0.003637  3.627337  0.006
N  N396  1  0.75000448  0.84839203  0.62563141  1  -1.179892  0.011137  -0.271236  -0.013595  0.005403  3.636468  0.009
N  N397  1  0.75000101  0.65160996  0.12563267  1  -1.179821  0.011137  -0.271305  -0.013833  0.005403  3.636661  0.009
N  N398  1  0.24999861  0.15161073  0.37436821  1  -1.179887  0.011137  -0.271248  -0.013982  0.005404  3.636612  0.009
N  N399  1  0.24999912  0.34838986  0.87436596  1  -1.179793  0.011135  -0.271342  -0.013846  0.005403  3.636517  0.009
O  O400  1  0.51636381  0.83871962  0.75857197  1  -1.166214  0.062527  -0.298602  -0.562455  0.032525  2.40227  0.054
O  O401  1  0.98363624  0.66128016  0.25857472  1  -1.166247  0.062523  -0.298609  -0.562451  0.032524  2.40224  0.054
O  O402  1  0.48363751  0.16128020  0.24142616  1  -1.166187  0.062526  -0.298581  -0.562448  0.032524  2.402212  0.054
O  O403  1  0.01635945  0.33871848  0.74142937  1  -1.16612  0.062521  -0.298583  -0.562453  0.032522  2.402213  0.054
O  O404  1  0.90938896  0.25396199  0.64870032  1  -1.162172  0.060961  -0.299667  -0.571331  0.031606  2.402069  0.054
O  O405  1  0.59061126  0.24603834  0.14869830  1  -1.162074  0.060961  -0.299627  -0.571194  0.031605  2.402036  0.054
O  O406  1  0.09061188  0.74603841  0.35130030  1  -1.162139  0.060959  -0.299628  -0.571275  0.031605  2.402034  0.054
O  O407  1  0.40938848  0.75396265  0.85129884  1  -1.162161  0.060961  -0.299641  -0.571286  0.031606  2.402043  0.054
O  O408  1  0.05314407  0.17564241  0.60077500  1  -1.167604  0.056055  -0.308949  -0.605259  0.029638  2.472676  0.044
O  O409  1  0.44685736  0.32435671  0.10077772  1  -1.167672  0.056067  -0.308985  -0.605218  0.029643  2.472599  0.044
O  O410  1  0.94685896  0.82435681  0.39922463  1  -1.167666  0.056059  -0.308985  -0.605213  0.029638  2.472681  0.044
O  O411  1  0.55314151  0.67564606  0.89922537  1  -1.1678  0.056056  -0.309046  -0.605336  0.029638  2.472472  0.044
O  O412  1  0.49272611  0.32731418  0.24130474  1  -1.158887  0.070917  -0.302471  -0.573255  0.037194  2.404576  0.058
O  O413  1  0.00727457  0.17268508  0.74130341  1  -1.158959  0.070924  -0.302419  -0.573182  0.037197  2.404523  0.058
O  O414  1  0.50727440  0.67268445  0.75869538  1  -1.158909  0.070922  -0.302486  -0.573261  0.037196  2.40462  0.058
O  O415  1  0.99272829  0.82731650  0.25869770  1  -1.158889  0.070923  -0.302406  -0.573201  0.037197  2.404607  0.058
O  O416  1  0.44198381  0.15986713  0.09490934  1  -1.161402  0.103185  -0.298621  -0.589009  0.054252  2.509307  0.09
O  O417  1  0.05801261  0.34012786  0.59491065  1  -1.160921  0.103202  -0.298651  -0.589005  0.054256  2.509482  0.09
O  O418  1  0.55800990  0.84012738  0.90508780  1  -1.160642  0.103205  -0.29869  -0.58899  0.054256  2.509509  0.09
O  O419  1  0.94198620  0.65987136  0.40509145  1  -1.160859  0.103186  -0.298666  -0.589022  0.054254  2.509307  0.09
O  O420  1  0.15745084  0.27270634  0.69267915  1  -1.163992  0.062311  -0.296636  -0.56206  0.032361  2.375796  0.055
O  O421  1  0.34255122  0.22729465  0.19267766  1  -1.164064  0.062313  -0.296693  -0.562103  0.032362  2.375887  0.055
O  O422  1  0.84255307  0.72729760  0.30732096  1  -1.164177  0.06231  -0.296633  -0.562102  0.032361  2.376044  0.055
O  O423  1  0.65745180  0.77270458  0.80731899  1  -1.164034  0.062311  -0.296647  -0.562124  0.032361  2.37574  0.055
O  O424  1  0.39898705  0.04925735  0.04129004  1  -1.136188  0.086471  -0.315721  -0.559522  0.044638  2.276651  0.068
O  O425  1  0.10101050  0.45073818  0.54129544  1  -1.13605  0.086475  -0.315706  -0.559464  0.044642  2.276736  0.068
O  O426  1  0.60101042  0.95073480  0.95870710  1  -1.13612  0.08647  -0.315616  -0.559366  0.044639  2.276782  0.068
O  O427  1  0.89898665  0.54925869  0.45870765  1  -1.136203  0.086475  -0.315715  -0.559502  0.04464  2.27664  0.068
O  O428  1  0.54862290  0.96302524  0.80090919  1  -1.154002  0.088365  -0.319758  -0.568741  0.044942  2.405561  0.07
O  O429  1  0.95137526  0.53697339  0.30090736  1  -1.154006  0.088358  -0.319744  -0.568718  0.044938  2.40559  0.07
O  O430  1  0.45137557  0.03697221  0.19909093  1  -1.153925  0.088362  -0.319814  -0.56881  0.044941  2.405565  0.07
O  O431  1  0.04862366  0.46302642  0.69909276  1  -1.153806  0.088354  -0.319788  -0.568802  0.044942  2.405555  0.07
O  O432  1  0.21979173  0.39817849  0.66694022  1  -1.152274  0.085717  -0.319931  -0.574239  0.043572  2.409391  0.067
O  O433  1  0.28020882  0.10182129  0.16694302  1  -1.152162  0.085714  -0.319925  -0.574207  0.043574  2.409325  0.067
O  O434  1  0.78020725  0.60182487  0.33306684  1  -1.152178  0.085718  -0.319874  -0.574203  0.043575  2.409281  0.067
O  O435  1  0.71979179  0.89817793  0.83306057  1  -1.152253  0.085719  -0.319907  -0.574199  0.043573  2.409375  0.067
O  O436  1  0.19863180  0.56114448  0.65401272  1  -1.152668  0.071612  -0.303445  -0.523442  0.036959  2.383259  0.055
O  O437  1  0.30136276  0.93885462  0.15401319  1  -1.152621  0.071606  -0.303451  -0.523348  0.036955  2.383323  0.055
O  O438  1  0.80136400  0.43885475  0.34598592  1  -1.152677  0.071612  -0.30348  -0.523401  0.036957  2.383281  0.055
O  O439  1  0.69863363  0.06114461  0.84598742  1  -1.152634  0.07161  -0.30346  -0.523415  0.036957  2.383255  0.055
O  O440  1  0.59523084  0.43285191  0.24259583  1  -1.148506  0.09102  -0.313147  -0.564796  0.045644  2.383402  0.071
O  O441  1  0.90476482  0.06715148  0.74259281  1  -1.148536  0.091024  -0.313119  -0.564853  0.045649  2.383508  0.071
O  O442  1  0.40476513  0.56715145  0.75740577  1  -1.14854  0.091023  -0.313147  -0.564835  0.045646  2.383371  0.071
O  O443  1  0.09523564  0.93285010  0.25740780  1  -1.148585  0.091021  -0.313137  -0.564882  0.045648  2.383438  0.071
O  O444  1  0.00906504  0.04431376  0.60931296  1  -1.123745  0.097374  -0.31431  -0.546969  0.04895  2.345772  0.074
O  O445  1  0.49093833  0.45568596  0.10931036  1  -1.123813  0.097367  -0.314194  -0.546927  0.048948  2.345919  0.074
O  O446  1  0.99093738  0.95568546  0.39068766  1  -1.12383  0.097376  -0.314248  -0.547003  0.048952  2.345982  0.074
O  O447  1  0.50906475  0.54431680  0.89068727  1  -1.123688  0.097372  -0.314338  -0.547077  0.048952  2.345725  0.074
O  O448  1  0.84398008  0.13575957  0.60839867  1  -1.159641  0.082931  -0.32775  -0.593062  0.042005  2.410098  0.061
O  O449  1  0.65602347  0.36424308  0.10839683  1  -1.159655  0.082936  -0.32769  -0.592923  0.042008  2.410091  0.061
O  O450  1  0.15602027  0.86424143  0.39160393  1  -1.159688  0.082934  -0.327761  -0.593029  0.042007  2.410087  0.061
O  O451  1  0.34397890  0.63575909  0.89160180  1  -1.159652  0.082934  -0.327758  -0.593054  0.042007  2.410075  0.061
O  O452  1  0.84771959  0.95595079  0.62700182  1  -1.144393  0.085562  -0.304383  -0.52427  0.042935  2.401958  0.067
O  O453  1  0.65228578  0.54405062  0.12700829  1  -1.144203  0.085555  -0.304303  -0.524121  0.042932  2.401863  0.067
O  O454  1  0.15228157  0.04405139  0.37299929  1  -1.144319  0.085561  -0.304367  -0.524258  0.042935  2.40191  0.067
O  O455  1  0.34771773  0.45594801  0.87298984  1  -1.144276  0.085556  -0.304356  -0.524215  0.042933  2.401781  0.067
O  O456  1  0.60582875  0.33576070  0.78330757  1  -1.29743  -0.000138  -0.318656  -0.515557  -4.7e-05  2.119458  0.0
O  O457  1  0.89417212  0.16423446  0.28330517  1  -1.297576  -0.000138  -0.318597  -0.515486  -4.7e-05  2.119525  0.0
O  O458  1  0.39416939  0.66423498  0.21669403  1  -1.297573  -0.000138  -0.318639  -0.515479  -4.7e-05  2.11939  0.0
O  O459  1  0.10583003  0.83576653  0.71669594  1  -1.297505  -0.000138  -0.318626  -0.515496  -4.7e-05  2.119499  0.0
O  O460  1  0.57003752  0.20049573  0.73289884  1  -1.300434  -0.000165  -0.303014  -0.51131  -9.7e-05  2.216004  0.0
O  O461  1  0.92996117  0.29950470  0.23289755  1  -1.30028  -0.000165  -0.302958  -0.51119  -9.7e-05  2.215878  0.0
O  O462  1  0.42995816  0.79950291  0.26709980  1  -1.300314  -0.000165  -0.302935  -0.511204  -9.7e-05  2.21593  0.0
O  O463  1  0.07003748  0.70049689  0.76710406  1  -1.300251  -0.000165  -0.302943  -0.511211  -9.7e-05  2.215997  0.0
O  O464  1  0.44561837  0.11843709  0.49310858  1  -1.31578  -3.5e-05  -0.304599  -0.520184  -1.8e-05  2.25429  0.0
O  O465  1  0.05438390  0.38156656  0.99310742  1  -1.3155  -3.5e-05  -0.304709  -0.520412  -1.8e-05  2.254144  0.0
O  O466  1  0.55438554  0.88156685  0.50689203  1  -1.315516  -3.5e-05  -0.304724  -0.52046  -1.8e-05  2.254319  0.0
O  O467  1  0.94561731  0.61843266  0.00689617  1  -1.315578  -3.5e-05  -0.304605  -0.520274  -1.8e-05  2.254272  0.0
O  O468  1  0.38154495  0.98095693  0.45888070  1  -1.298244  -6.4e-05  -0.303787  -0.512156  -5.7e-05  2.222189  0.0
O  O469  1  0.11846124  0.51904777  0.95888103  1  -1.298597  -6.4e-05  -0.303688  -0.512066  -5.7e-05  2.222626  0.0
O  O470  1  0.61846306  0.01904641  0.54111892  1  -1.298471  -6.4e-05  -0.303747  -0.512137  -5.8e-05  2.222336  0.0
O  O471  1  0.88153166  0.48095205  0.04111958  1  -1.298589  -6.4e-05  -0.30366  -0.51202  -5.7e-05  2.222552  0.0
O  O472  1  0.47340863  0.28891282  0.58666753  1  -1.29861  -0.000125  -0.315201  -0.518821  -8.5e-05  2.176614  0.0
O  O473  1  0.02659170  0.21108393  0.08666636  1  -1.298481  -0.000125  -0.315256  -0.518862  -8.5e-05  2.176496  0.0
O  O474  1  0.52659077  0.71108640  0.41333705  1  -1.298805  -0.000125  -0.315259  -0.518884  -8.5e-05  2.176578  0.0
O  O475  1  0.97340967  0.78891294  0.91333624  1  -1.298854  -0.000126  -0.315228  -0.518854  -8.5e-05  2.176657  0.0
O  O476  1  0.55518155  0.42619341  0.60059263  1  -1.293395  -5.6e-05  -0.320239  -0.520871  -2e-05  2.133149  0.0
O  O477  1  0.94481347  0.07380570  0.10059030  1  -1.293491  -5.6e-05  -0.32026  -0.520796  -2e-05  2.133478  0.0
O  O478  1  0.44481710  0.57380818  0.39940997  1  -1.293357  -5.6e-05  -0.320155  -0.520705  -2e-05  2.133428  0.0
O  O479  1  0.05518101  0.92619294  0.89941031  1  -1.293322  -5.6e-05  -0.320172  -0.520779  -2e-05  2.133156  0.0
