# generated using pymatgen
data_Zn3In2H36(C3N2)12
_symmetry_space_group_name_H-M   'P 1'
_cell_length_a   19.07495615
_cell_length_b   19.07478333
_cell_length_c   19.07478207
_cell_angle_alpha   109.47106763
_cell_angle_beta   109.47142909
_cell_angle_gamma   109.47143272
_symmetry_Int_Tables_number   1
_chemical_formula_structural   Zn3In2H36(C3N2)12
_chemical_formula_sum   'Zn12 In8 H144 C144 N96'
_cell_volume   5342.68318375
_cell_formula_units_Z   4
loop_
 _symmetry_equiv_pos_site_id
 _symmetry_equiv_pos_as_xyz
  1  'x, y, z'
loop_
 _atom_site_type_symbol
 _atom_site_label
 _atom_site_symmetry_multiplicity
 _atom_site_fract_x
 _atom_site_fract_y
 _atom_site_fract_z
 _atom_site_occupancy
 _atom_site_pbe_bader_charge
 _atom_site_pbe_bader_spin_density
 _atom_site_pbe_cm5_charge
 _atom_site_pbe_ddec_charge
 _atom_site_pbe_ddec_spin_density
 _atom_site_pbe_ddec_sum_bond_order
 _atom_site_pbe_magmom
Zn  Zn0  1  0.37499925  0.24999912  0.12499957  1  1.178759  0  0.713078  0.617061  0  2.593347  0
Zn  Zn1  1  0.75000071  0.12499987  0.87500052  1  1.17877  0  0.713068  0.617064  0  2.593438  0
Zn  Zn2  1  0.87499932  0.62499989  0.74999902  1  1.178779  0  0.713076  0.617057  0  2.593347  0
Zn  Zn3  1  0.87499873  0.24999818  0.62499884  1  1.178832  0  0.713072  0.617053  0  2.593417  0
Zn  Zn4  1  0.62500051  0.75000063  0.87499989  1  1.178776  0  0.71306  0.617055  0  2.593361  0
Zn  Zn5  1  0.12500079  0.37500020  0.25000133  1  1.178773  0  0.713071  0.617023  0  2.593397  0
Zn  Zn6  1  0.37499928  0.12499926  0.74999876  1  1.178825  0  0.713057  0.617059  0  2.593397  0
Zn  Zn7  1  0.24999958  0.87500041  0.12499946  1  1.178787  0  0.713039  0.617051  0  2.593397  0
Zn  Zn8  1  0.74999983  0.62499937  0.37500030  1  1.178739  0  0.71305  0.617052  0  2.593361  0
Zn  Zn9  1  0.12500051  0.75000105  0.37500009  1  1.178738  0  0.713063  0.617025  0  2.593409  0
Zn  Zn10  1  0.25000028  0.37500073  0.62500005  1  1.178754  0  0.713056  0.617035  0  2.593379  0
Zn  Zn11  1  0.62500133  0.87500070  0.25000121  1  1.178831  0  0.713064  0.617044  0  2.593406  0
In  In12  1  0.00000000  0.00000000  0.00000000  1  1.775473  0  0.792788  1.070038  0  2.914015  0
In  In13  1  0.99999998  0.49999988  0.99999979  1  1.775449  0  0.792778  1.070008  0  2.914071  0
In  In14  1  0.49999995  1.00000000  0.00000029  1  1.769394  0  0.792755  1.0701  0  2.91391  0
In  In15  1  0.49999998  0.50000030  0.49999999  1  1.775471  0  0.79279  1.070032  0  2.914018  0
In  In16  1  0.00000003  0.99999994  0.49999960  1  1.77547  0  0.792802  1.07008  0  2.913982  0
In  In17  1  0.49999993  0.49999997  0.99999973  1  1.775448  0  0.792797  1.070033  0  2.914025  0
In  In18  1  0.00000025  0.50000007  0.49999993  1  1.769402  0  0.79274  1.070059  0  2.913986  0
In  In19  1  0.49999990  0.99999967  0.50000003  1  1.775474  0  0.792789  1.070047  0  2.914  0
H  H20  1  0.97295490  0.80105444  0.92092713  1  0.112968  0  0.123379  0.080935  0  1.041861  0
H  H21  1  0.19894565  0.17189950  0.11987354  1  0.117857  0  0.123392  0.080972  0  1.041932  0
H  H22  1  0.82809979  0.02704554  0.94797390  1  0.118068  0  0.123403  0.08101  0  1.041901  0
H  H23  1  0.07907308  0.69894586  0.02704602  1  0.112939  0  0.1234  0.080988  0  1.041943  0
H  H24  1  0.42092770  0.94797391  0.11987454  1  0.114802  0  0.123405  0.080962  0  1.041932  0
H  H25  1  0.67190000  0.55202665  0.47295472  1  0.118113  0  0.123392  0.080943  0  1.041946  0
H  H26  1  0.88012680  0.32810097  0.80105394  1  0.11789  0  0.123374  0.080937  0  1.042008  0
H  H27  1  0.52704605  0.57907351  0.69894636  1  0.112971  0  0.123366  0.080876  0  1.041993  0
H  H28  1  0.61987469  0.92092886  0.94797476  1  0.114808  0  0.123399  0.080991  0  1.04188  0
H  H29  1  0.05202697  0.47295348  0.17190044  1  0.118089  0  0.123401  0.08095  0  1.042003  0
H  H30  1  0.44797318  0.11987357  0.92092707  1  0.114846  0  0.123383  0.080923  0  1.041926  0
H  H31  1  0.30105450  0.38012668  0.32810039  1  0.117849  0  0.123382  0.080955  0  1.041964  0
H  H32  1  0.82810040  0.80105421  0.38012706  1  0.117872  0  0.12338  0.08093  0  1.041956  0
H  H33  1  0.97295407  0.17190127  0.55202800  1  0.118139  0  0.123394  0.080929  0  1.041974  0
H  H34  1  0.19894462  0.02704433  0.57907087  1  0.112913  0  0.123383  0.080974  0  1.041894  0
H  H35  1  0.61987423  0.69894649  0.17189970  1  0.11791  0  0.123363  0.080955  0  1.041907  0
H  H36  1  0.88012579  0.55202534  0.57907138  1  0.11482  0  0.123397  0.080988  0  1.041914  0
H  H37  1  0.52704597  0.94797259  0.32809867  1  0.118122  0  0.123399  0.080951  0  1.041953  0
H  H38  1  0.30105539  0.92092947  0.47295584  1  0.112912  0  0.123397  0.080978  0  1.041884  0
H  H39  1  0.44797340  0.32809940  0.02704656  1  0.118094  0  0.123372  0.080897  0  1.041907  0
H  H40  1  0.05202662  0.57907353  0.38012657  1  0.114845  0  0.123401  0.080949  0  1.041991  0
H  H41  1  0.07907253  0.38012523  0.55202658  1  0.114834  0  0.123388  0.08093  0  1.041933  0
H  H42  1  0.67189993  0.11987303  0.69894594  1  0.117867  0  0.123375  0.08092  0  1.041964  0
H  H43  1  0.42092753  0.47295392  0.80105410  1  0.112939  0  0.123364  0.080924  0  1.041879  0
H  H44  1  0.02704570  0.19894552  0.07907284  1  0.112964  0  0.123376  0.080923  0  1.041928  0
H  H45  1  0.80105374  0.82809988  0.88012665  1  0.117845  0  0.123376  0.080935  0  1.041991  0
H  H46  1  0.17189981  0.97295469  0.05202682  1  0.118074  0  0.123402  0.080986  0  1.04193  0
H  H47  1  0.92092720  0.30105442  0.97295395  1  0.112943  0  0.123363  0.080939  0  1.041913  0
H  H48  1  0.57907259  0.05202637  0.88012543  1  0.114807  0  0.123379  0.08094  0  1.041958  0
H  H49  1  0.32809978  0.44797376  0.52704563  1  0.118072  0  0.123373  0.080943  0  1.041889  0
H  H50  1  0.11987367  0.67189949  0.19894566  1  0.11785  0  0.123363  0.080945  0  1.041913  0
H  H51  1  0.47295405  0.42092659  0.30105399  1  0.112966  0  0.123378  0.080925  0  1.041923  0
H  H52  1  0.38012541  0.07907123  0.05202558  1  0.114801  0  0.123385  0.08096  0  1.041929  0
H  H53  1  0.94797313  0.52704661  0.82809991  1  0.11809  0  0.123373  0.080918  0  1.041931  0
H  H54  1  0.55202692  0.88012652  0.07907327  1  0.114849  0  0.123379  0.080928  0  1.041958  0
H  H55  1  0.69894644  0.61987362  0.67190048  1  0.117884  0  0.123396  0.08096  0  1.041944  0
H  H56  1  0.17189970  0.19894588  0.61987328  1  0.117865  0  0.123372  0.080921  0  1.041967  0
H  H57  1  0.02704637  0.82809917  0.44797324  1  0.118124  0  0.123405  0.080966  0  1.041941  0
H  H58  1  0.80105546  0.97295510  0.42092858  1  0.112922  0  0.123384  0.080973  0  1.0419  0
H  H59  1  0.38012659  0.30105431  0.82810080  1  0.117919  0  0.123359  0.080936  0  1.041957  0
H  H60  1  0.11987463  0.44797444  0.42092897  1  0.114799  0  0.123386  0.080977  0  1.041918  0
H  H61  1  0.47295379  0.05202717  0.67190079  1  0.118135  0  0.123396  0.080927  0  1.04196  0
H  H62  1  0.69894439  0.07907095  0.52704451  1  0.112915  0  0.123386  0.080964  0  1.041914  0
H  H63  1  0.55202702  0.67190038  0.97295378  1  0.118098  0  0.123379  0.080954  0  1.041899  0
H  H64  1  0.94797335  0.42092707  0.61987340  1  0.114845  0  0.123399  0.080962  0  1.041971  0
H  H65  1  0.92092737  0.61987401  0.44797324  1  0.114805  0  0.123398  0.080942  0  1.041963  0
H  H66  1  0.32810068  0.88012693  0.30105404  1  0.117873  0  0.123379  0.080928  0  1.041964  0
H  H67  1  0.57907257  0.52704618  0.19894625  1  0.112946  0  0.123364  0.08091  0  1.041928  0
H  H68  1  0.88657513  0.91178668  0.77825897  1  0.091112  0  0.1135  0.108384  0  1.018247  0
H  H69  1  0.08821134  0.97478888  0.86647124  1  0.098172  0  0.11352  0.108355  0  1.018206  0
H  H70  1  0.02520859  0.11342400  0.89168217  1  0.089452  0  0.113537  0.108396  0  1.018175  0
H  H71  1  0.22174060  0.58821407  0.11342430  1  0.091153  0  0.113517  0.108397  0  1.01824  0
H  H72  1  0.27825990  0.89168211  0.86647244  1  0.100147  0  0.113482  0.108343  0  1.018196  0
H  H73  1  0.47479127  0.60831730  0.38657564  1  0.089448  0  0.113538  0.10839  0  1.018195  0
H  H74  1  0.13352667  0.52521047  0.91178640  1  0.09822  0  0.113537  0.108385  0  1.018246  0
H  H75  1  0.61342509  0.72174144  0.58821350  1  0.09112  0  0.113493  0.108366  0  1.018264  0
H  H76  1  0.36647468  0.77825819  0.89168208  1  0.100203  0  0.113513  0.108386  0  1.018228  0
H  H77  1  0.10831623  0.38657632  0.97479014  1  0.089435  0  0.113522  0.108371  0  1.018189  0
H  H78  1  0.39168268  0.86647187  0.77825806  1  0.100081  0  0.113491  0.108383  0  1.018245  0
H  H79  1  0.41178847  0.63352822  0.52521104  1  0.098172  0  0.113515  0.108342  0  1.018249  0
H  H80  1  0.02521176  0.91178665  0.63352837  1  0.098176  0  0.113509  0.108354  0  1.018273  0
H  H81  1  0.88657797  0.97478943  0.60831725  1  0.08941  0  0.113526  0.108369  0  1.018197  0
H  H82  1  0.08821585  0.11342396  0.72174164  1  0.091427  0  0.113517  0.108403  0  1.018219  0
H  H83  1  0.36647283  0.58821232  0.97478897  1  0.098189  0  0.113521  0.108359  0  1.018249  0
H  H84  1  0.13352556  0.60831828  0.72174200  1  0.100188  0  0.113517  0.1084  0  1.01821  0
H  H85  1  0.61342263  0.89168298  0.52521052  1  0.089409  0  0.113525  0.108375  0  1.018201  0
H  H86  1  0.41178416  0.77825885  0.38657607  1  0.091424  0  0.113507  0.108392  0  1.018255  0
H  H87  1  0.39168403  0.52521062  0.11342319  1  0.089416  0  0.113533  0.108378  0  1.018205  0
H  H88  1  0.10831727  0.72174147  0.63352785  1  0.100071  0  0.113495  0.108357  0  1.018237  0
H  H89  1  0.22174013  0.63352813  0.60831807  1  0.100109  0  0.113491  0.108354  0  1.018226  0
H  H90  1  0.47478820  0.86647130  0.58821292  1  0.098162  0  0.113509  0.108355  0  1.018259  0
H  H91  1  0.27826039  0.38657615  0.91178660  1  0.091147  0  0.1135  0.108365  0  1.018258  0
H  H92  1  0.11342516  0.08821360  0.22174101  1  0.091115  0  0.113485  0.108348  0  1.018286  0
H  H93  1  0.91178842  0.02521087  0.13352822  1  0.098181  0  0.11352  0.108357  0  1.018228  0
H  H94  1  0.97479170  0.88657628  0.10831781  1  0.089445  0  0.113528  0.108381  0  1.018224  0
H  H95  1  0.77826021  0.41178674  0.88657620  1  0.091147  0  0.113506  0.108379  0  1.018243  0
H  H96  1  0.72173968  0.10831746  0.13352738  1  0.100122  0  0.113505  0.108376  0  1.018217  0
H  H97  1  0.52520817  0.39168277  0.61342381  1  0.089378  0  0.113529  0.108385  0  1.018232  0
H  H98  1  0.86647289  0.47478844  0.08821253  1  0.098188  0  0.113516  0.108354  0  1.018262  0
H  H99  1  0.38657520  0.27825884  0.41178648  1  0.091117  0  0.113496  0.108365  0  1.018259  0
H  H100  1  0.63352561  0.22174209  0.10831789  1  0.100162  0  0.113523  0.108413  0  1.018183  0
H  H101  1  0.89168387  0.61342378  0.02521021  1  0.089419  0  0.11353  0.108368  0  1.018235  0
H  H102  1  0.60831690  0.13352770  0.22174176  1  0.100081  0  0.113484  0.10835  0  1.018263  0
H  H103  1  0.58821144  0.36647169  0.47478968  1  0.098178  0  0.113512  0.108355  0  1.01823  0
H  H104  1  0.97478866  0.08821313  0.36647198  1  0.098181  0  0.113514  0.108353  0  1.018262  0
H  H105  1  0.11342211  0.02521000  0.39168221  1  0.089406  0  0.113532  0.108388  0  1.018186  0
H  H106  1  0.91178405  0.88657528  0.27825818  1  0.091187  0  0.113505  0.10838  0  1.018233  0
H  H107  1  0.63352707  0.41178693  0.02521085  1  0.098198  0  0.11353  0.108375  0  1.018227  0
H  H108  1  0.86647454  0.39168182  0.27825835  1  0.100205  0  0.113515  0.108398  0  1.018221  0
H  H109  1  0.38657765  0.10831730  0.47478945  1  0.089394  0  0.113525  0.108367  0  1.018199  0
H  H110  1  0.58821562  0.22174157  0.61342428  1  0.091412  0  0.113507  0.108387  0  1.018228  0
H  H111  1  0.60831573  0.47478913  0.88657626  1  0.089425  0  0.113524  0.108365  0  1.018226  0
H  H112  1  0.89168284  0.27825862  0.36647250  1  0.100076  0  0.113496  0.108356  0  1.018254  0
H  H113  1  0.77825965  0.36647229  0.39168228  1  0.100134  0  0.113502  0.108369  0  1.018205  0
H  H114  1  0.52521241  0.13352866  0.41178706  1  0.098158  0  0.113509  0.108349  0  1.018259  0
H  H115  1  0.72173938  0.61342361  0.08821286  1  0.09114  0  0.113501  0.108342  0  1.018276  0
H  H116  1  0.82302783  0.73989180  0.66700840  1  0.067538  0  0.110327  0.101152  0  1.020381  0
H  H117  1  0.26010602  0.08313418  0.92711701  1  0.059153  0  0.110355  0.101187  0  1.020364  0
H  H118  1  0.91686169  0.17697159  0.84398044  1  0.059023  0  0.11037  0.101212  0  1.020288  0
H  H119  1  0.33299040  0.76010866  0.17697122  1  0.067565  0  0.110323  0.10115  0  1.02036  0
H  H120  1  0.16701037  0.84398242  0.92711714  1  0.063714  0  0.110353  0.101185  0  1.020351  0
H  H121  1  0.58313777  0.65601934  0.32302817  1  0.059028  0  0.110347  0.101193  0  1.020325  0
H  H122  1  0.07288207  0.41686251  0.73989123  1  0.059472  0  0.110339  0.101124  0  1.020348  0
H  H123  1  0.67697157  0.83299192  0.76010772  1  0.067531  0  0.110323  0.101157  0  1.020377  0
H  H124  1  0.42711953  0.66700955  0.84398089  1  0.063686  0  0.110348  0.101163  0  1.020373  0
H  H125  1  0.15601971  0.32302869  0.08313691  1  0.05903  0  0.110342  0.101177  0  1.020316  0
H  H126  1  0.34397991  0.92711668  0.66700800  1  0.063666  0  0.110365  0.101176  0  1.020328  0
H  H127  1  0.23989385  0.57288350  0.41686599  1  0.059138  0  0.110363  0.101196  0  1.020314  0
H  H128  1  0.91686322  0.73989214  0.57288359  1  0.059076  0  0.110379  0.101188  0  1.020304  0
H  H129  1  0.82302810  0.08313414  0.65601743  1  0.059205  0  0.110345  0.101192  0  1.020368  0
H  H130  1  0.26010986  0.17697216  0.83299051  1  0.067536  0  0.110322  0.101164  0  1.020364  0
H  H131  1  0.42711810  0.76010789  0.08313714  1  0.059501  0  0.110363  0.101156  0  1.020339  0
H  H132  1  0.07288059  0.65601914  0.83299109  1  0.063748  0  0.110348  0.101163  0  1.020347  0
H  H133  1  0.67697206  0.84398185  0.41686541  1  0.0592  0  0.110325  0.101164  0  1.02033  0
H  H134  1  0.23988999  0.66700977  0.32302825  1  0.067553  0  0.110323  0.101164  0  1.020367  0
H  H135  1  0.34398093  0.41686337  0.17697065  1  0.059199  0  0.110342  0.101167  0  1.020327  0
H  H136  1  0.15602045  0.83299226  0.57288346  1  0.063601  0  0.110361  0.101169  0  1.020334  0
H  H137  1  0.33298970  0.57288293  0.65601822  1  0.063645  0  0.110356  0.101201  0  1.020337  0
H  H138  1  0.58313683  0.92711595  0.76010749  1  0.059177  0  0.110366  0.101174  0  1.020359  0
H  H139  1  0.16701024  0.32302935  0.73989223  1  0.067598  0  0.11033  0.10116  0  1.020351  0
H  H140  1  0.17697228  0.26010829  0.33299195  1  0.067534  0  0.110315  0.101136  0  1.020369  0
H  H141  1  0.73989356  0.91686539  0.07288282  1  0.05919  0  0.110351  0.101173  0  1.020371  0
H  H142  1  0.08313756  0.82302830  0.15601939  1  0.059027  0  0.110348  0.101175  0  1.020329  0
H  H143  1  0.66700936  0.23989109  0.82302823  1  0.067561  0  0.11032  0.101153  0  1.02035  0
H  H144  1  0.83298992  0.15601786  0.07288284  1  0.063715  0  0.110355  0.101201  0  1.02034  0
H  H145  1  0.41686233  0.34398075  0.67697218  1  0.059023  0  0.110344  0.101188  0  1.020333  0
H  H146  1  0.92711820  0.58313711  0.26010785  1  0.059517  0  0.110367  0.101179  0  1.020328  0
H  H147  1  0.32302768  0.16700797  0.23989211  1  0.067524  0  0.110317  0.101141  0  1.020397  0
H  H148  1  0.57288044  0.33299105  0.15601909  1  0.063745  0  0.110371  0.101181  0  1.020378  0
H  H149  1  0.84398058  0.67697159  0.91686307  1  0.059035  0  0.11034  0.10119  0  1.020323  0
H  H150  1  0.65602038  0.07288360  0.33299198  1  0.063669  0  0.110349  0.101153  0  1.020388  0
H  H151  1  0.76010593  0.42711692  0.58313435  1  0.059146  0  0.110366  0.101191  0  1.020349  0
H  H152  1  0.08313656  0.26010827  0.42711676  1  0.059458  0  0.110368  0.101162  0  1.020319  0
H  H153  1  0.17697114  0.91686509  0.34398150  1  0.059204  0  0.110326  0.101176  0  1.020318  0
H  H154  1  0.73989043  0.82302812  0.16700947  1  0.067528  0  0.110335  0.101188  0  1.020364  0
H  H155  1  0.57288180  0.23989136  0.91686268  1  0.059512  0  0.110365  0.101195  0  1.020297  0
H  H156  1  0.92711983  0.34398063  0.16700926  1  0.063747  0  0.11037  0.101181  0  1.020384  0
H  H157  1  0.32302770  0.15601790  0.58313404  1  0.059194  0  0.110324  0.101182  0  1.02035  0
H  H158  1  0.76010979  0.33299064  0.67697210  1  0.067542  0  0.110336  0.101186  0  1.020348  0
H  H159  1  0.65601884  0.58313639  0.82302880  1  0.059172  0  0.110333  0.101167  0  1.020338  0
H  H160  1  0.84397984  0.16700802  0.42711651  1  0.063604  0  0.110364  0.101176  0  1.020323  0
H  H161  1  0.66700989  0.42711730  0.34398249  1  0.063718  0  0.11034  0.101151  0  1.020373  0
H  H162  1  0.41686377  0.07288401  0.23989248  1  0.059075  0  0.110365  0.101163  0  1.020356  0
H  H163  1  0.83299005  0.67697093  0.26010775  1  0.067565  0  0.110325  0.101152  0  1.020357  0
C  C164  1  0.94117238  0.80788801  0.86675230  1  0.951961  0  0.114799  0.118873  0  4.024749  0
C  C165  1  0.19211132  0.13328389  0.05886569  1  0.944472  0  0.114844  0.11894  0  4.024734  0
C  C166  1  0.86671512  0.05882724  0.92558151  1  0.945696  0  0.114814  0.118804  0  4.024702  0
C  C167  1  0.13324544  0.69211241  0.05882707  1  0.952121  0  0.114815  0.118853  0  4.024677  0
C  C168  1  0.36675397  0.92558145  0.05886701  1  0.950105  0  0.114788  0.118921  0  4.024685  0
C  C169  1  0.63328490  0.57441862  0.44117320  1  0.945492  0  0.114831  0.118957  0  4.024723  0
C  C170  1  0.94113251  0.36671502  0.80788720  1  0.944144  0  0.114818  0.118895  0  4.024667  0
C  C171  1  0.55882781  0.63324681  0.69211194  1  0.951932  0  0.114805  0.118956  0  4.024755  0
C  C172  1  0.55886733  0.86675514  0.92558233  1  0.950538  0  0.114818  0.118848  0  4.024636  0
C  C173  1  0.07441913  0.44117275  0.13328567  1  0.945562  0  0.114804  0.118887  0  4.024697  0
C  C174  1  0.42558107  0.05886536  0.86675272  1  0.950615  0  0.114798  0.118908  0  4.024699  0
C  C175  1  0.30788852  0.44113354  0.36671573  1  0.944602  0  0.114825  0.118873  0  4.024697  0
C  C176  1  0.86671604  0.80788861  0.44113544  1  0.944482  0  0.114822  0.118918  0  4.024747  0
C  C177  1  0.94117321  0.13328562  0.57441965  1  0.945906  0  0.114788  0.118926  0  4.024644  0
C  C178  1  0.19211141  0.05882661  0.63324518  1  0.952127  0  0.114808  0.118821  0  4.024711  0
C  C179  1  0.55886589  0.69211168  0.13328354  1  0.944398  0  0.114851  0.118867  0  4.024696  0
C  C180  1  0.94113298  0.57441768  0.63324536  1  0.95008  0  0.114836  0.118873  0  4.024645  0
C  C181  1  0.55882659  0.92558101  0.36671448  1  0.945899  0  0.114789  0.1189  0  4.024657  0
C  C182  1  0.30788820  0.86675456  0.44117300  1  0.952123  0  0.114867  0.118925  0  4.024676  0
C  C183  1  0.42558046  0.36671483  0.05882741  1  0.94563  0  0.114779  0.118856  0  4.024728  0
C  C184  1  0.07441899  0.63324651  0.44113432  1  0.950594  0  0.114797  0.118893  0  4.024702  0
C  C185  1  0.13324564  0.44113378  0.57441864  1  0.950082  0  0.114802  0.118943  0  4.024677  0
C  C186  1  0.63328405  0.05886496  0.69211148  1  0.944493  0  0.114824  0.118919  0  4.024735  0
C  C187  1  0.36675418  0.44117288  0.80788853  1  0.95214  0  0.114807  0.118845  0  4.024702  0
C  C188  1  0.05882789  0.19211161  0.13324678  1  0.951948  0  0.114802  0.118876  0  4.024707  0
C  C189  1  0.80788877  0.86671554  0.94113376  1  0.94475  0  0.114837  0.11896  0  4.024729  0
C  C190  1  0.13328517  0.94117304  0.07441846  1  0.945521  0  0.114839  0.118896  0  4.024632  0
C  C191  1  0.86675400  0.30788766  0.94117238  1  0.952131  0  0.114847  0.118883  0  4.02467  0
C  C192  1  0.63324595  0.07441846  0.94113371  1  0.95011  0  0.114855  0.11894  0  4.024726  0
C  C193  1  0.36671502  0.42558129  0.55882752  1  0.945672  0  0.114795  0.118842  0  4.024749  0
C  C194  1  0.05886622  0.63328435  0.19211210  1  0.94427  0  0.114853  0.118855  0  4.024677  0
C  C195  1  0.44117229  0.36675329  0.30788841  1  0.951937  0  0.114806  0.118884  0  4.024701  0
C  C196  1  0.44113193  0.13324476  0.07441749  1  0.950069  0  0.114835  0.11889  0  4.024638  0
C  C197  1  0.92558150  0.55882787  0.86671521  1  0.945533  0  0.114812  0.118911  0  4.024689  0
C  C198  1  0.57441922  0.94113492  0.13324725  1  0.95061  0  0.114795  0.118878  0  4.024764  0
C  C199  1  0.69211190  0.55886623  0.63328462  1  0.944389  0  0.114782  0.118901  0  4.02471  0
C  C200  1  0.13328406  0.19211149  0.55886491  1  0.944453  0  0.114806  0.118884  0  4.024784  0
C  C201  1  0.05882689  0.86671447  0.42558070  1  0.945912  0  0.114789  0.118882  0  4.024662  0
C  C202  1  0.80788869  0.94117348  0.36675517  1  0.952111  0  0.11482  0.11884  0  4.024679  0
C  C203  1  0.44113369  0.30788789  0.86671629  1  0.944199  0  0.11486  0.118879  0  4.024741  0
C  C204  1  0.05886797  0.42558261  0.36675551  1  0.95007  0  0.114809  0.118824  0  4.024685  0
C  C205  1  0.44117356  0.07441978  0.63328512  1  0.94592  0  0.114793  0.118946  0  4.024668  0
C  C206  1  0.69211138  0.13324501  0.55882683  1  0.952128  0  0.114846  0.118882  0  4.024711  0
C  C207  1  0.57441912  0.63328474  0.94117241  1  0.945632  0  0.114807  0.118841  0  4.024721  0
C  C208  1  0.92558111  0.36675359  0.55886602  1  0.950173  0  0.114804  0.118893  0  4.024704  0
C  C209  1  0.86675432  0.55886682  0.42558134  1  0.950106  0  0.114805  0.118954  0  4.024673  0
C  C210  1  0.36671624  0.94113532  0.30788850  1  0.944455  0  0.114808  0.118905  0  4.024773  0
C  C211  1  0.63324663  0.55882792  0.19211198  1  0.95215  0  0.11479  0.118842  0  4.024799  0
C  C212  1  0.89544208  0.86330062  0.79134037  1  0.314127  0  -0.016751  -0.065435  0  4.03601  0
C  C213  1  0.13669884  0.03214253  0.92804089  1  0.350501  0  -0.016744  -0.06536  0  4.036025  0
C  C214  1  0.96785506  0.10455628  0.89589695  1  0.330194  0  -0.016699  -0.065376  0  4.036013  0
C  C215  1  0.20865883  0.63669987  0.10455653  1  0.314469  0  -0.016757  -0.065426  0  4.036088  0
C  C216  1  0.29134131  0.89589783  0.92804173  1  0.332437  0  -0.016738  -0.065333  0  4.036015  0
C  C217  1  0.53214442  0.60410282  0.39544348  1  0.330182  0  -0.016697  -0.065358  0  4.035993  0
C  C218  1  0.07195911  0.46785688  0.86330008  1  0.350502  0  -0.016725  -0.065395  0  4.036067  0
C  C219  1  0.60455758  0.70865942  0.63669916  1  0.31412  0  -0.016746  -0.065406  0  4.036057  0
C  C220  1  0.42804200  0.79134071  0.89589719  1  0.332507  0  -0.016706  -0.065327  0  4.036043  0
C  C221  1  0.10410177  0.39544338  0.03214403  1  0.330487  0  -0.016692  -0.065359  0  4.03603  0
C  C222  1  0.39589730  0.92804015  0.79134025  1  0.332355  0  -0.016763  -0.065492  0  4.0361  0
C  C223  1  0.36330120  0.57195940  0.46785769  1  0.350533  0  -0.01673  -0.065359  0  4.035968  0
C  C224  1  0.96785742  0.86330035  0.57195987  1  0.350624  0  -0.016713  -0.065389  0  4.036105  0
C  C225  1  0.89544401  0.03214319  0.60410204  1  0.330498  0  -0.016734  -0.065381  0  4.036012  0
C  C226  1  0.13670145  0.10455649  0.70865949  1  0.314269  0  -0.016741  -0.065395  0  4.036102  0
C  C227  1  0.42804119  0.63669899  0.03214269  1  0.350521  0  -0.016709  -0.065349  0  4.036058  0
C  C228  1  0.07195888  0.60410340  0.70866018  1  0.332634  0  -0.016742  -0.065395  0  4.036014  0
C  C229  1  0.60455613  0.89589736  0.46785626  1  0.330181  0  -0.016724  -0.065364  0  4.036017  0
C  C230  1  0.36329958  0.79134126  0.39544384  1  0.314241  0  -0.016722  -0.065351  0  4.036026  0
C  C231  1  0.39589829  0.46785795  0.10455639  1  0.33036  0  -0.01672  -0.065387  0  4.035917  0
C  C232  1  0.10410258  0.70865975  0.57196072  1  0.332415  0  -0.016737  -0.06538  0  4.035967  0
C  C233  1  0.20865830  0.57195902  0.60410259  1  0.332259  0  -0.016744  -0.065329  0  4.035999  0
C  C234  1  0.53214260  0.92803958  0.63669939  1  0.350623  0  -0.016706  -0.065394  0  4.036116  0
C  C235  1  0.29134189  0.39544368  0.86330130  1  0.314429  0  -0.016747  -0.065397  0  4.036049  0
C  C236  1  0.10455782  0.13669863  0.20865945  1  0.314106  0  -0.016763  -0.065442  0  4.036062  0
C  C237  1  0.86330073  0.96785704  0.07195894  1  0.350506  0  -0.016725  -0.065347  0  4.036033  0
C  C238  1  0.03214401  0.89544342  0.10410324  1  0.33017  0  -0.016717  -0.065423  0  4.036064  0
C  C239  1  0.79134146  0.36330041  0.89544345  1  0.314475  0  -0.016749  -0.065387  0  4.036064  0
C  C240  1  0.70865847  0.10410259  0.07195862  1  0.332442  0  -0.01676  -0.065359  0  4.036008  0
C  C241  1  0.46785587  0.39589746  0.60455650  1  0.330264  0  -0.016689  -0.065348  0  4.03601  0
C  C242  1  0.92804063  0.53214221  0.13669848  1  0.350553  0  -0.016713  -0.065338  0  4.036022  0
C  C243  1  0.39544271  0.29134086  0.36330082  1  0.314132  0  -0.016751  -0.065415  0  4.036039  0
C  C244  1  0.57195778  0.20865971  0.10410316  1  0.332465  0  -0.016727  -0.065385  0  4.036063  0
C  C245  1  0.89589764  0.60455667  0.96785706  1  0.330441  0  -0.016712  -0.065339  0  4.03603  0
C  C246  1  0.60410227  0.07195942  0.20865957  1  0.332377  0  -0.016717  -0.065364  0  4.036085  0
C  C247  1  0.63669872  0.42804050  0.53214303  1  0.350598  0  -0.016735  -0.065382  0  4.036034  0
C  C248  1  0.03214163  0.13669869  0.42803943  1  0.350527  0  -0.016708  -0.065396  0  4.036023  0
C  C249  1  0.10455575  0.96785656  0.39589741  1  0.330173  0  -0.01673  -0.06537  0  4.035983  0
C  C250  1  0.86329897  0.89544329  0.29134086  1  0.314147  0  -0.01671  -0.065346  0  4.036019  0
C  C251  1  0.57195974  0.36330064  0.96785729  1  0.350513  0  -0.016734  -0.065357  0  4.035974  0
C  C252  1  0.92804207  0.39589690  0.29134069  1  0.332509  0  -0.016721  -0.065375  0  4.036039  0
C  C253  1  0.39544330  0.10410205  0.53214230  1  0.330476  0  -0.016747  -0.065399  0  4.035933  0
C  C254  1  0.63670053  0.20865884  0.60455651  1  0.314271  0  -0.016726  -0.065407  0  4.036077  0
C  C255  1  0.60410168  0.53214265  0.89544358  1  0.330447  0  -0.01671  -0.065338  0  4.036012  0
C  C256  1  0.89589699  0.29133982  0.42803910  1  0.332418  0  -0.016729  -0.065378  0  4.035958  0
C  C257  1  0.79134109  0.42804036  0.39589761  1  0.332221  0  -0.016753  -0.065342  0  4.035931  0
C  C258  1  0.46785814  0.07195988  0.36330095  1  0.350665  0  -0.016695  -0.065358  0  4.036022  0
C  C259  1  0.70865840  0.60455660  0.13669868  1  0.314409  0  -0.016757  -0.065366  0  4.036021  0
C  C260  1  0.86392454  0.77791524  0.73629905  1  0.411545  0  -0.021964  -0.060433  0  4.036731  0
C  C261  1  0.22208304  0.08600799  0.95838414  1  0.381216  0  -0.021863  -0.060497  0  4.03676  0
C  C262  1  0.91398974  0.13607493  0.87237527  1  0.388027  0  -0.021979  -0.060553  0  4.036739  0
C  C263  1  0.26369880  0.72208407  0.13607432  1  0.411227  0  -0.021959  -0.060439  0  4.036799  0
C  C264  1  0.23630097  0.87237558  0.95838470  1  0.370837  0  -0.021922  -0.060504  0  4.036802  0
C  C265  1  0.58601027  0.62762493  0.36392544  1  0.38797  0  -0.02195  -0.060533  0  4.036759  0
C  C266  1  0.04161439  0.41398986  0.77791569  1  0.380898  0  -0.021868  -0.060429  0  4.036772  0
C  C267  1  0.63607495  0.76370102  0.72208445  1  0.411605  0  -0.021948  -0.060425  0  4.036744  0
C  C268  1  0.45838641  0.73630051  0.87237550  1  0.370756  0  -0.021985  -0.06055  0  4.036878  0
C  C269  1  0.12762507  0.36392513  0.08600983  1  0.387684  0  -0.021958  -0.06053  0  4.036755  0
C  C270  1  0.37237351  0.95838356  0.73629849  1  0.370847  0  -0.021931  -0.060411  0  4.036656  0
C  C271  1  0.27791699  0.54161554  0.41399128  1  0.381196  0  -0.021878  -0.060501  0  4.036684  0
C  C272  1  0.91399091  0.77791590  0.54161699  1  0.381071  0  -0.021915  -0.060487  0  4.0367  0
C  C273  1  0.86392538  0.08600853  0.62762469  1  0.387657  0  -0.021917  -0.060494  0  4.036726  0
C  C274  1  0.22208482  0.13607449  0.76369918  1  0.411205  0  -0.022006  -0.060551  0  4.036835  0
C  C275  1  0.45838491  0.72208426  0.08600984  1  0.380879  0  -0.021911  -0.060487  0  4.036765  0
C  C276  1  0.04161394  0.62762510  0.76369933  1  0.370479  0  -0.021999  -0.060554  0  4.036832  0
C  C277  1  0.63607334  0.87237486  0.41399062  1  0.388126  0  -0.021883  -0.060472  0  4.036814  0
C  C278  1  0.27791420  0.73630090  0.36392537  1  0.411307  0  -0.02197  -0.060514  0  4.036783  0
C  C279  1  0.37237505  0.41398984  0.13607375  1  0.38787  0  -0.021912  -0.060492  0  4.036691  0
C  C280  1  0.12762645  0.76370091  0.54161627  1  0.370906  0  -0.021969  -0.060483  0  4.03668  0
C  C281  1  0.26369903  0.54161578  0.62762473  1  0.37103  0  -0.021961  -0.060594  0  4.036795  0
C  C282  1  0.58600954  0.95838294  0.72208452  1  0.380998  0  -0.021907  -0.060485  0  4.036671  0
C  C283  1  0.23630129  0.36392602  0.77791602  1  0.411275  0  -0.021944  -0.06045  0  4.036737  0
C  C284  1  0.13607522  0.22208452  0.26370041  1  0.411568  0  -0.021961  -0.060429  0  4.036751  0
C  C285  1  0.77791654  0.91399158  0.04161569  1  0.381185  0  -0.021849  -0.060451  0  4.036743  0
C  C286  1  0.08601004  0.86392549  0.12762508  1  0.388135  0  -0.021925  -0.060426  0  4.036773  0
C  C287  1  0.73630130  0.27791602  0.86392603  1  0.411279  0  -0.021956  -0.06045  0  4.036793  0
C  C288  1  0.76369861  0.12762399  0.04161513  1  0.370844  0  -0.021936  -0.060553  0  4.036775  0
C  C289  1  0.41398951  0.37237548  0.63607490  1  0.38796  0  -0.021944  -0.060533  0  4.036738  0
C  C290  1  0.95838519  0.58600971  0.22208414  1  0.380849  0  -0.021924  -0.06057  0  4.036749  0
C  C291  1  0.36392463  0.23629855  0.27791538  1  0.411599  0  -0.021982  -0.060475  0  4.036742  0
C  C292  1  0.54161369  0.26369959  0.12762485  1  0.37063  0  -0.021995  -0.060539  0  4.03689  0
C  C293  1  0.87237535  0.63607464  0.91399052  1  0.38771  0  -0.021899  -0.060498  0  4.036677  0
C  C294  1  0.62762607  0.04161601  0.26370133  1  0.370817  0  -0.021983  -0.060508  0  4.036798  0
C  C295  1  0.72208259  0.45838403  0.58600854  1  0.381159  0  -0.021887  -0.060502  0  4.036763  0
C  C296  1  0.08600986  0.22208422  0.45838425  1  0.380819  0  -0.02191  -0.060445  0  4.036683  0
C  C297  1  0.13607335  0.91399083  0.37237461  1  0.388119  0  -0.021901  -0.060513  0  4.036763  0
C  C298  1  0.77791462  0.86392558  0.23630027  1  0.411609  0  -0.022024  -0.060586  0  4.036819  0
C  C299  1  0.54161455  0.27791648  0.91399051  1  0.380856  0  -0.021893  -0.060537  0  4.036731  0
C  C300  1  0.95838583  0.37237466  0.23630013  1  0.37063  0  -0.022006  -0.060549  0  4.036821  0
C  C301  1  0.36392558  0.12762469  0.58600831  1  0.387775  0  -0.021867  -0.060427  0  4.036653  0
C  C302  1  0.72208508  0.26369965  0.63607535  1  0.411196  0  -0.02198  -0.060488  0  4.036739  0
C  C303  1  0.62762471  0.58600991  0.86392570  1  0.387782  0  -0.021929  -0.060547  0  4.036772  0
C  C304  1  0.87237366  0.23629919  0.45838408  1  0.37091  0  -0.02197  -0.06048  0  4.036697  0
C  C305  1  0.73630160  0.45838484  0.37237614  1  0.370996  0  -0.021916  -0.060492  0  4.036804  0
C  C306  1  0.41399056  0.04161715  0.27791582  1  0.381078  0  -0.021894  -0.060454  0  4.036705  0
C  C307  1  0.76369881  0.63607408  0.22208433  1  0.411239  0  -0.021939  -0.060459  0  4.036754  0
N  N308  1  0.89302803  0.74320777  0.78472724  1  -1.275923  0  -0.381375  -0.292823  0  3.629335  0
N  N309  1  0.25679144  0.14981885  0.04152064  1  -1.283684  0  -0.381409  -0.292916  0  3.629349  0
N  N310  1  0.85017940  0.10697184  0.89170047  1  -1.257967  0  -0.381352  -0.29282  0  3.62924  0
N  N311  1  0.21527204  0.75679338  0.10697286  1  -1.275982  0  -0.381385  -0.292856  0  3.629239  0
N  N312  1  0.28472891  0.89170156  0.04152106  1  -1.26804  0  -0.381357  -0.292897  0  3.629384  0
N  N313  1  0.64982018  0.60829940  0.39302772  1  -1.257964  0  -0.381341  -0.292846  0  3.629311  0
N  N314  1  0.95847874  0.35017972  0.74320694  1  -1.283545  0  -0.381368  -0.292833  0  3.629226  0
N  N315  1  0.60697253  0.71527296  0.75679229  1  -1.275902  0  -0.381392  -0.292891  0  3.629283  0
N  N316  1  0.54152199  0.78472883  0.89170114  1  -1.268047  0  -0.381362  -0.292855  0  3.629226  0
N  N317  1  0.10830019  0.39302790  0.14982110  1  -1.257983  0  -0.381296  -0.292744  0  3.629156  0
N  N318  1  0.39169975  0.04151993  0.78472712  1  -1.268059  0  -0.381348  -0.29288  0  3.629269  0
N  N319  1  0.24320858  0.45847956  0.35018121  1  -1.283688  0  -0.381387  -0.292846  0  3.629329  0
N  N320  1  0.85018030  0.74320783  0.45848049  1  -1.283668  0  -0.381373  -0.292849  0  3.629252  0
N  N321  1  0.89302739  0.14981957  0.60829934  1  -1.257929  0  -0.381318  -0.292817  0  3.629253  0
N  N322  1  0.25679266  0.10697193  0.71527092  1  -1.275926  0  -0.381367  -0.292774  0  3.629201  0
N  N323  1  0.54152091  0.75679262  0.14982007  1  -1.283788  0  -0.38134  -0.292776  0  3.629269  0
N  N324  1  0.95847845  0.60829909  0.71527133  1  -1.268053  0  -0.381359  -0.29284  0  3.629177  0
N  N325  1  0.60697250  0.89170032  0.35017987  1  -1.258033  0  -0.381338  -0.292825  0  3.629278  0
N  N326  1  0.24320763  0.78472914  0.39302826  1  -1.275956  0  -0.381422  -0.292832  0  3.629295  0
N  N327  1  0.39169972  0.35017972  0.10697163  1  -1.25818  0  -0.381327  -0.292774  0  3.629263  0
N  N328  1  0.10830038  0.71527293  0.45848043  1  -1.268038  0  -0.381312  -0.292802  0  3.629217  0
N  N329  1  0.21527126  0.45847898  0.60829872  1  -1.268016  0  -0.381322  -0.292812  0  3.629272  0
N  N330  1  0.64982003  0.04151951  0.75679242  1  -1.283667  0  -0.38137  -0.292833  0  3.629223  0
N  N331  1  0.28472829  0.39302787  0.74320765  1  -1.275921  0  -0.381381  -0.29281  0  3.629244  0
N  N332  1  0.10697257  0.25679219  0.21527274  1  -1.275904  0  -0.381334  -0.292755  0  3.629234  0
N  N333  1  0.74320814  0.85018072  0.95847919  1  -1.283678  0  -0.381414  -0.292942  0  3.629332  0
N  N334  1  0.14982032  0.89302722  0.10829972  1  -1.258067  0  -0.381362  -0.292898  0  3.629262  0
N  N335  1  0.78472774  0.24320704  0.89302749  1  -1.275994  0  -0.38138  -0.292843  0  3.629317  0
N  N336  1  0.71527085  0.10829820  0.95847839  1  -1.268034  0  -0.381378  -0.292891  0  3.629346  0
N  N337  1  0.35017926  0.39170068  0.60697174  1  -1.257973  0  -0.381326  -0.292795  0  3.629275  0
N  N338  1  0.04152089  0.64982055  0.25679215  1  -1.283502  0  -0.381338  -0.292737  0  3.629296  0
N  N339  1  0.39302757  0.28472714  0.24320806  1  -1.27588  0  -0.381349  -0.292767  0  3.629247  0
N  N340  1  0.45847798  0.21527177  0.10829884  1  -1.268066  0  -0.381339  -0.292815  0  3.62916  0
N  N341  1  0.89169992  0.60697220  0.85017925  1  -1.257979  0  -0.381327  -0.292812  0  3.629221  0
N  N342  1  0.60830054  0.95848035  0.21527286  1  -1.268051  0  -0.381309  -0.292798  0  3.629254  0
N  N343  1  0.75679152  0.54152054  0.64981914  1  -1.283697  0  -0.381362  -0.292844  0  3.629312  0
N  N344  1  0.14981980  0.25679226  0.54151986  1  -1.283713  0  -0.381354  -0.292805  0  3.629246  0
N  N345  1  0.10697237  0.85018018  0.39170012  1  -1.258038  0  -0.381339  -0.292822  0  3.629309  0
N  N346  1  0.74320743  0.89302751  0.28472854  1  -1.275917  0  -0.381375  -0.292802  0  3.629234  0
N  N347  1  0.45847885  0.24320714  0.85017938  1  -1.283604  0  -0.381362  -0.292779  0  3.629255  0
N  N348  1  0.04152268  0.39170140  0.28472917  1  -1.268036  0  -0.38135  -0.292826  0  3.629204  0
N  N349  1  0.39302726  0.10829944  0.64981958  1  -1.258014  0  -0.381374  -0.292959  0  3.629224  0
N  N350  1  0.75679247  0.21527095  0.60697209  1  -1.27591  0  -0.381417  -0.292871  0  3.629316  0
N  N351  1  0.60830025  0.64982088  0.89302835  1  -1.258004  0  -0.381297  -0.292706  0  3.629229  0
N  N352  1  0.89169920  0.28472664  0.54151940  1  -1.268061  0  -0.381354  -0.292881  0  3.629333  0
N  N353  1  0.78472884  0.54152111  0.39170163  1  -1.268028  0  -0.381336  -0.292861  0  3.629351  0
N  N354  1  0.35018007  0.95848058  0.24320793  1  -1.283671  0  -0.381382  -0.292854  0  3.62928  0
N  N355  1  0.71527200  0.60697241  0.25679233  1  -1.275944  0  -0.381366  -0.292776  0  3.629265  0
N  N356  1  0.94439705  0.88165383  0.87396180  1  -1.263305  0  -0.352414  -0.323249  0  3.569234  0
N  N357  1  0.11834518  0.06274365  0.99230791  1  -1.25942  0  -0.352437  -0.323303  0  3.569295  0
N  N358  1  0.93725513  0.05560217  0.92956465  1  -1.263035  0  -0.35245  -0.323278  0  3.569302  0
N  N359  1  0.12603710  0.61834570  0.05560227  1  -1.263522  0  -0.352436  -0.323251  0  3.569213  0
N  N360  1  0.37396256  0.92956366  0.99230831  1  -1.253163  0  -0.352414  -0.323303  0  3.569207  0
N  N361  1  0.56274467  0.57043559  0.44439840  1  -1.262882  0  -0.352455  -0.323353  0  3.569284  0
N  N362  1  0.00769189  0.43725741  0.88165477  1  -1.259371  0  -0.352449  -0.323283  0  3.569182  0
N  N363  1  0.55560341  0.62603830  0.61834643  1  -1.263296  0  -0.352404  -0.323238  0  3.569209  0
N  N364  1  0.49230983  0.87396272  0.92956471  1  -1.253606  0  -0.352436  -0.32328  0  3.569262  0
N  N365  1  0.07043476  0.44439752  0.06274362  1  -1.262919  0  -0.352448  -0.323315  0  3.569227  0
N  N366  1  0.42956472  0.99230805  0.87396165  1  -1.253503  0  -0.352395  -0.323214  0  3.569235  0
N  N367  1  0.38165511  0.50769220  0.43725650  1  -1.259548  0  -0.352441  -0.323277  0  3.569242  0
N  N368  1  0.93725758  0.88165458  0.50769247  1  -1.259352  0  -0.352439  -0.323278  0  3.569239  0
N  N369  1  0.94439932  0.06274416  0.57043629  1  -1.26336  0  -0.352438  -0.323337  0  3.569204  0
N  N370  1  0.11834632  0.05560148  0.62603754  1  -1.263567  0  -0.35241  -0.323241  0  3.569299  0
N  N371  1  0.49230882  0.61834613  0.06274307  1  -1.259405  0  -0.35247  -0.323326  0  3.569334  0
N  N372  1  0.00769057  0.57043559  0.62603737  1  -1.253121  0  -0.352415  -0.323256  0  3.569229  0
N  N373  1  0.55560116  0.92956416  0.43725548  1  -1.26331  0  -0.352437  -0.323333  0  3.569233  0
N  N374  1  0.38165334  0.87396315  0.44439870  1  -1.26354  0  -0.352475  -0.323366  0  3.569348  0
N  N375  1  0.42956505  0.43725587  0.05560184  1  -1.262806  0  -0.352404  -0.323216  0  3.569164  0
N  N376  1  0.07043536  0.62603781  0.50769160  1  -1.253584  0  -0.352437  -0.323317  0  3.569203  0
N  N377  1  0.12603697  0.50769138  0.57043633  1  -1.2532  0  -0.352409  -0.323303  0  3.569269  0
N  N378  1  0.56274281  0.99230738  0.61834597  1  -1.259353  0  -0.352428  -0.323252  0  3.569316  0
N  N379  1  0.37396329  0.44439798  0.88165418  1  -1.263528  0  -0.352419  -0.323222  0  3.569269  0
N  N380  1  0.05560272  0.11834593  0.12603765  1  -1.263316  0  -0.352416  -0.323242  0  3.569232  0
N  N381  1  0.88165524  0.93725612  0.00769243  1  -1.259697  0  -0.352433  -0.323302  0  3.569284  0
N  N382  1  0.06274465  0.94439825  0.07043570  1  -1.262856  0  -0.352449  -0.323299  0  3.569276  0
N  N383  1  0.87396248  0.38165388  0.94439756  1  -1.263534  0  -0.352441  -0.323275  0  3.569265  0
N  N384  1  0.62603720  0.07043610  0.00769114  1  -1.253176  0  -0.352427  -0.323292  0  3.569253  0
N  N385  1  0.43725511  0.42956483  0.55560195  1  -1.263007  0  -0.352433  -0.323285  0  3.56928  0
N  N386  1  0.99230839  0.56274287  0.11834521  1  -1.259401  0  -0.352453  -0.32325  0  3.569195  0
N  N387  1  0.44439670  0.37396179  0.38165392  1  -1.263307  0  -0.352418  -0.323251  0  3.569257  0
N  N388  1  0.50769046  0.12603756  0.07043527  1  -1.253033  0  -0.352454  -0.323322  0  3.5693  0
N  N389  1  0.92956534  0.55560258  0.93725673  1  -1.262873  0  -0.352439  -0.323315  0  3.569232  0
N  N390  1  0.57043486  0.00769152  0.12603817  1  -1.253517  0  -0.352405  -0.32326  0  3.569312  0
N  N391  1  0.61834499  0.49230790  0.56274385  1  -1.259354  0  -0.352416  -0.323286  0  3.569249  0
N  N392  1  0.06274355  0.11834590  0.49230803  1  -1.259322  0  -0.352419  -0.323272  0  3.569278  0
N  N393  1  0.05560110  0.93725561  0.42956406  1  -1.263318  0  -0.352436  -0.323323  0  3.56918  0
N  N394  1  0.88165411  0.94439829  0.37396281  1  -1.263546  0  -0.352452  -0.323274  0  3.569293  0
N  N395  1  0.50769146  0.38165415  0.93725691  1  -1.259377  0  -0.352459  -0.32331  0  3.569237  0
N  N396  1  0.99230972  0.42956469  0.37396261  1  -1.253138  0  -0.352433  -0.323263  0  3.569289  0
N  N397  1  0.44439913  0.07043612  0.56274450  1  -1.263357  0  -0.352403  -0.323262  0  3.569176  0
N  N398  1  0.61834593  0.12603740  0.55560202  1  -1.263548  0  -0.352452  -0.32326  0  3.569285  0
N  N399  1  0.57043505  0.56274422  0.94439851  1  -1.26299  0  -0.352454  -0.323319  0  3.569267  0
N  N400  1  0.92956493  0.37396247  0.49230838  1  -1.253149  0  -0.352398  -0.323245  0  3.569166  0
N  N401  1  0.87396346  0.49230839  0.42956402  1  -1.253164  0  -0.352427  -0.323325  0  3.569099  0
N  N402  1  0.43725708  0.00769187  0.38165386  1  -1.259329  0  -0.352424  -0.323274  0  3.569265  0
N  N403  1  0.62603681  0.55560211  0.11834616  1  -1.263511  0  -0.352409  -0.323225  0  3.569223  0
