# generated using pymatgen
data_ZnPH5C5N2O3
_symmetry_space_group_name_H-M   'P 1'
_cell_length_a   10.19517005
_cell_length_b   19.59422402
_cell_length_c   26.14844177
_cell_angle_alpha   89.99954988
_cell_angle_beta   90.00006882
_cell_angle_gamma   94.52956596
_symmetry_Int_Tables_number   1
_chemical_formula_structural   ZnPH5C5N2O3
_chemical_formula_sum   'Zn24 P24 H120 C120 N48 O72'
_cell_volume   5207.26654069
_cell_formula_units_Z   24
loop_
 _symmetry_equiv_pos_site_id
 _symmetry_equiv_pos_as_xyz
  1  'x, y, z'
loop_
 _atom_site_type_symbol
 _atom_site_label
 _atom_site_symmetry_multiplicity
 _atom_site_fract_x
 _atom_site_fract_y
 _atom_site_fract_z
 _atom_site_occupancy
 _atom_site_pbe_bader_charge
 _atom_site_pbe_bader_spin_density
 _atom_site_pbe_cm5_charge
 _atom_site_pbe_ddec_charge
 _atom_site_pbe_ddec_spin_density
 _atom_site_pbe_ddec_sum_bond_order
 _atom_site_pbe_magmom
Zn  Zn0  1  0.03329896  0.89609108  0.96258435  1  1.306199  0  0.703958  0.938217  0  2.369405  0
Zn  Zn1  1  0.46670222  0.60390495  0.46258497  1  1.306292  0  0.704017  0.938298  0  2.369428  0
Zn  Zn2  1  0.96668758  0.10390665  0.03741286  1  1.306811  0  0.703922  0.938151  0  2.369634  0
Zn  Zn3  1  0.53330016  0.39609397  0.53741530  1  1.306238  0  0.70401  0.938192  0  2.36961  0
Zn  Zn4  1  0.02401158  0.96349745  0.15857754  1  1.310137  0  0.70885  0.942979  0  2.374503  0
Zn  Zn5  1  0.47599417  0.53650281  0.65857505  1  1.310118  0  0.708975  0.943179  0  2.374385  0
Zn  Zn6  1  0.97599149  0.03650762  0.84142387  1  1.310186  0  0.708886  0.943085  0  2.374394  0
Zn  Zn7  1  0.52401682  0.46349417  0.34142560  1  1.310338  0  0.708928  0.943086  0  2.374586  0
Zn  Zn8  1  0.67528641  0.04317233  0.17730467  1  1.332518  0  0.717135  0.986  0  2.360801  0
Zn  Zn9  1  0.82468311  0.45682869  0.67730612  1  1.33273  0  0.717091  0.986029  0  2.360566  0
Zn  Zn10  1  0.32469962  0.95682949  0.82269330  1  1.332591  0  0.717123  0.986044  0  2.360571  0
Zn  Zn11  1  0.17529881  0.54318024  0.32269644  1  1.332676  0  0.717117  0.985982  0  2.360654  0
Zn  Zn12  1  0.66934649  0.88743268  0.29675058  1  1.31462  0  0.714882  0.963777  0  2.363824  0
Zn  Zn13  1  0.83066059  0.61255814  0.79675676  1  1.314512  0  0.714732  0.963498  0  2.363971  0
Zn  Zn14  1  0.33066802  0.11256075  0.70323935  1  1.314479  0  0.714733  0.963401  0  2.364293  0
Zn  Zn15  1  0.16934428  0.38743672  0.20324733  1  1.3146  0  0.714774  0.96349  0  2.364093  0
Zn  Zn16  1  0.36253810  0.96966911  0.36755678  1  1.309372  0  0.70976  0.948058  0  2.368118  0
Zn  Zn17  1  0.13744277  0.53033179  0.86755341  1  1.309392  0  0.709756  0.948064  0  2.368228  0
Zn  Zn18  1  0.63744221  0.03032550  0.63243507  1  1.30934  0  0.709751  0.948206  0  2.368301  0
Zn  Zn19  1  0.86255776  0.46966814  0.13244035  1  1.309535  0  0.709815  0.948211  0  2.368048  0
Zn  Zn20  1  0.53736235  0.88650773  0.48738333  1  1.30736  0  0.707103  0.937431  0  2.353321  0
Zn  Zn21  1  0.96265489  0.61349042  0.98738267  1  1.307108  0  0.707122  0.937497  0  2.353236  0
Zn  Zn22  1  0.46264419  0.11348459  0.51260814  1  1.306988  0  0.707106  0.937366  0  2.353594  0
Zn  Zn23  1  0.03735280  0.38651214  0.01260841  1  1.306994  0  0.707173  0.937527  0  2.353385  0
P  P24  1  0.86100628  0.95243494  0.04912268  1  3.368311  0  0.259876  1.20387  0  5.483082  0
P  P25  1  0.63898274  0.54755826  0.54912035  1  3.368736  0  0.259862  1.20368  0  5.48335  0
P  P26  1  0.13898535  0.04756438  0.95087873  1  3.368186  0  0.259921  1.203796  0  5.483044  0
P  P27  1  0.36101363  0.45243958  0.45087838  1  3.368064  0  0.259835  1.203647  0  5.483268  0
P  P28  1  0.96662784  0.11627922  0.15751902  1  3.32688  0  0.269993  1.218353  0  5.519113  0
P  P29  1  0.53335969  0.38371657  0.65752115  1  3.32733  0  0.270045  1.21856  0  5.519043  0
P  P30  1  0.03336813  0.88372372  0.84247627  1  3.326568  0  0.269929  1.218149  0  5.519218  0
P  P31  1  0.46663524  0.61628585  0.34247988  1  3.327003  0  0.270056  1.218613  0  5.518895  0
P  P32  1  0.76850013  0.88647135  0.18599831  1  3.401286  0  0.25417  1.189378  0  5.581306  0
P  P33  1  0.73148846  0.61353218  0.68599984  1  3.401225  0  0.254324  1.189602  0  5.581199  0
P  P34  1  0.23150646  0.11353018  0.81399736  1  3.401285  0  0.254088  1.189311  0  5.58139  0
P  P35  1  0.26849936  0.38647681  0.31400080  1  3.400953  0  0.254212  1.189542  0  5.581079  0
P  P36  1  0.55284687  0.03434692  0.29047967  1  3.393888  0  0.260187  1.217679  0  5.572347  0
P  P37  1  0.94714068  0.46564597  0.79047845  1  3.393746  0  0.260185  1.217679  0  5.572275  0
P  P38  1  0.44713950  0.96564928  0.70951639  1  3.394218  0  0.260052  1.217365  0  5.573004  0
P  P39  1  0.05285171  0.53435132  0.20951952  1  3.394197  0  0.260155  1.217574  0  5.57241  0
P  P40  1  0.45349055  0.82069540  0.37958014  1  3.369172  0  0.274757  1.224707  0  5.513312  0
P  P41  1  0.04652079  0.67930570  0.87958349  1  3.369124  0  0.274618  1.224494  0  5.51368  0
P  P42  1  0.54651749  0.17930154  0.62041439  1  3.36876  0  0.27463  1.224726  0  5.513119  0
P  P43  1  0.95348500  0.32069735  0.12041410  1  3.368771  0  0.274656  1.224612  0  5.513538  0
P  P44  1  0.61521396  0.02777883  0.44192926  1  3.389506  0  0.262773  1.202609  0  5.502774  0
P  P45  1  0.88477966  0.47222073  0.94193180  1  3.389432  0  0.262759  1.202683  0  5.502747  0
P  P46  1  0.38478727  0.97221855  0.55805953  1  3.388105  0  0.262657  1.202375  0  5.502635  0
P  P47  1  0.11522642  0.52777619  0.05806234  1  3.388045  0  0.262727  1.202564  0  5.502668  0
H  H48  1  0.01465991  0.81500201  0.07202215  1  0.15883  0  0.126278  0.128077  0  0.996645  0
H  H49  1  0.48535172  0.68500023  0.57201917  1  0.158767  0  0.126292  0.128121  0  0.996602  0
H  H50  1  0.98533449  0.18500450  0.92798194  1  0.158764  0  0.126256  0.128114  0  0.99664  0
H  H51  1  0.51466147  0.31499881  0.42798645  1  0.158743  0  0.126263  0.128103  0  0.996618  0
H  H52  1  0.16892731  0.70656670  0.09060029  1  0.123842  0  0.131248  0.134573  0  0.990506  0
H  H53  1  0.33108122  0.79343379  0.59059697  1  0.123933  0  0.131248  0.134574  0  0.990545  0
H  H54  1  0.83107188  0.29344753  0.90940877  1  0.123614  0  0.131222  0.134494  0  0.990517  0
H  H55  1  0.66891307  0.20655431  0.40940788  1  0.123666  0  0.131221  0.134564  0  0.990462  0
H  H56  1  0.26677543  0.79648071  0.94630380  1  0.16257  0  0.144312  0.109833  0  0.99693  0
H  H57  1  0.23321665  0.70351336  0.44630487  1  0.163557  0  0.144272  0.10986  0  0.996985  0
H  H58  1  0.73321146  0.20352010  0.05370067  1  0.16376  0  0.144371  0.109979  0  0.996897  0
H  H59  1  0.76678093  0.29647785  0.55370189  1  0.163302  0  0.144352  0.109905  0  0.997015  0
H  H60  1  0.41304289  0.58363478  0.14079682  1  0.153018  0  0.131461  0.139273  0  0.994486  0
H  H61  1  0.08698426  0.91637305  0.64078233  1  0.153107  0  0.131477  0.139143  0  0.994855  0
H  H62  1  0.58697393  0.41637044  0.85920995  1  0.153101  0  0.131471  0.139156  0  0.994635  0
H  H63  1  0.91300991  0.08363141  0.35921066  1  0.152842  0  0.131451  0.139093  0  0.99478  0
H  H64  1  0.59594201  0.51437090  0.19291374  1  0.159188  0  0.135715  0.140417  0  0.966773  0
H  H65  1  0.90406549  0.98561742  0.69291124  1  0.159403  0  0.135782  0.140432  0  0.966774  0
H  H66  1  0.40407482  0.48562562  0.80708422  1  0.159207  0  0.135732  0.140455  0  0.966725  0
H  H67  1  0.09589754  0.01438057  0.30707870  1  0.159181  0  0.135824  0.140472  0  0.966778  0
H  H68  1  0.71489906  0.53123014  0.03827009  1  0.21001  0  0.139907  0.121738  0  1.020122  0
H  H69  1  0.78510173  0.96877199  0.53825922  1  0.209857  0  0.13997  0.121931  0  1.019845  0
H  H70  1  0.28508881  0.46877937  0.96172788  1  0.209986  0  0.139936  0.121883  0  1.01997  0
H  H71  1  0.21489753  0.03122537  0.46172537  1  0.210119  0  0.139898  0.121755  0  1.020052  0
H  H72  1  0.34832532  0.65235583  0.85387427  1  0.176754  0  0.124027  0.142354  0  1.04933  0
H  H73  1  0.15169997  0.84763903  0.35386450  1  0.176595  0  0.12402  0.142567  0  1.049087  0
H  H74  1  0.65169236  0.34766575  0.14612561  1  0.176876  0  0.124052  0.142509  0  1.049327  0
H  H75  1  0.84830017  0.15232255  0.64612200  1  0.176797  0  0.124088  0.142518  0  1.049229  0
H  H76  1  0.52540684  0.64523045  0.77217424  1  0.210546  0  0.123351  0.137705  0  1.022919  0
H  H77  1  0.97461106  0.85476995  0.27217070  1  0.210132  0  0.123367  0.137603  0  1.023031  0
H  H78  1  0.47462246  0.35477235  0.22782717  1  0.210196  0  0.123401  0.13774  0  1.022993  0
H  H79  1  0.02538786  0.14522434  0.72782191  1  0.210482  0  0.123365  0.137729  0  1.022995  0
H  H80  1  0.72057886  0.60002997  0.90896154  1  0.179687  0  0.135655  0.114411  0  1.039241  0
H  H81  1  0.77945179  0.89995840  0.40895190  1  0.18022  0  0.135597  0.114551  0  1.039061  0
H  H82  1  0.27942242  0.39996792  0.09105020  1  0.179645  0  0.135637  0.114488  0  1.039155  0
H  H83  1  0.22057348  0.10002594  0.59104186  1  0.179432  0  0.135649  0.114383  0  1.039177  0
H  H84  1  0.37157888  0.66427956  0.08727712  1  0.062656  0  0.113984  0.125615  0  1.014437  0
H  H85  1  0.12840088  0.83571809  0.58726811  1  0.062804  0  0.11392  0.125476  0  1.014182  0
H  H86  1  0.62840940  0.33572484  0.91273193  1  0.063052  0  0.113937  0.12552  0  1.014278  0
H  H87  1  0.87156481  0.16427737  0.41273368  1  0.062776  0  0.113946  0.12549  0  1.014423  0
H  H88  1  0.60036253  0.55837684  0.97745788  1  0.115849  0  0.115057  0.139716  0  1.029262  0
H  H89  1  0.89964991  0.94161370  0.47744690  1  0.115685  0  0.115018  0.139653  0  1.02946  0
H  H90  1  0.39962604  0.44162143  0.02254468  1  0.115843  0  0.115044  0.139705  0  1.029552  0
H  H91  1  0.10035779  0.05837148  0.52253730  1  0.115228  0  0.115056  0.139675  0  1.029386  0
H  H92  1  0.33925030  0.70545569  0.92596062  1  0.133238  0  0.120496  0.136456  0  1.019768  0
H  H93  1  0.16077994  0.79454666  0.42595806  1  0.132881  0  0.120544  0.13636  0  1.019961  0
H  H94  1  0.66075086  0.29455856  0.07404308  1  0.13269  0  0.120609  0.136559  0  1.019757  0
H  H95  1  0.83924573  0.20544126  0.57404450  1  0.132644  0  0.120621  0.136557  0  1.019805  0
H  H96  1  0.26648565  0.91649377  0.23639958  1  0.146706  0  0.128438  0.133853  0  0.981618  0
H  H97  1  0.23353003  0.58352318  0.73640779  1  0.147244  0  0.128581  0.133996  0  0.981276  0
H  H98  1  0.73353243  0.08353140  0.76360527  1  0.147225  0  0.128432  0.133799  0  0.981528  0
H  H99  1  0.76651510  0.41648950  0.26360050  1  0.146884  0  0.128397  0.133766  0  0.981581  0
H  H100  1  0.48441423  0.86536468  0.19216082  1  0.178183  0  0.126278  0.139743  0  1.040943  0
H  H101  1  0.01559810  0.63463224  0.69216136  1  0.178299  0  0.126266  0.139715  0  1.040901  0
H  H102  1  0.51558335  0.13463522  0.80784289  1  0.178255  0  0.126335  0.139808  0  1.041016  0
H  H103  1  0.98443300  0.36536904  0.30784847  1  0.1782  0  0.126248  0.139633  0  1.041169  0
H  H104  1  0.21880884  0.92129044  0.07616171  1  0.186062  0  0.140392  0.11785  0  1.011419  0
H  H105  1  0.28119748  0.57870813  0.57616385  1  0.185685  0  0.140412  0.117846  0  1.011433  0
H  H106  1  0.78118297  0.07871042  0.92384315  1  0.185972  0  0.140424  0.117957  0  1.011367  0
H  H107  1  0.71879941  0.42128563  0.42383718  1  0.185647  0  0.140406  0.117846  0  1.011414  0
H  H108  1  0.64072929  0.93861391  0.83097882  1  0.160201  0  0.131076  0.136665  0  0.98009  0
H  H109  1  0.85928275  0.56139399  0.33097084  1  0.160022  0  0.131087  0.136741  0  0.980003  0
H  H110  1  0.35927540  0.06138810  0.16902718  1  0.159998  0  0.131098  0.13675  0  0.980043  0
H  H111  1  0.14071460  0.43861255  0.66903631  1  0.159979  0  0.131088  0.136707  0  0.979846  0
H  H112  1  0.74620617  0.89735074  0.92304793  1  0.179372  0  0.12762  0.148815  0  1.02845  0
H  H113  1  0.75378636  0.60264731  0.42303813  1  0.1795  0  0.12764  0.1489  0  1.028468  0
H  H114  1  0.25377027  0.10264433  0.07695998  1  0.179442  0  0.12764  0.148846  0  1.028412  0
H  H115  1  0.24619753  0.39735295  0.57696787  1  0.179714  0  0.127632  0.148932  0  1.028512  0
H  H116  1  0.34148789  0.93437802  0.94284929  1  0.217818  0  0.132927  0.115494  0  1.055699  0
H  H117  1  0.15849865  0.56561040  0.44285534  1  0.217776  0  0.133015  0.115669  0  1.055441  0
H  H118  1  0.65849069  0.06561861  0.05714524  1  0.218002  0  0.133003  0.115639  0  1.055535  0
H  H119  1  0.84150200  0.43439925  0.55715142  1  0.218006  0  0.133032  0.115687  0  1.05556  0
H  H120  1  0.71584871  0.72469054  0.14178429  1  0.142187  0  0.134656  0.143223  0  0.988573  0
H  H121  1  0.78416051  0.77528811  0.64178068  1  0.142893  0  0.134708  0.143226  0  0.988551  0
H  H122  1  0.28418493  0.27528981  0.85822133  1  0.142628  0  0.134713  0.143161  0  0.988787  0
H  H123  1  0.21582661  0.22471474  0.35821958  1  0.142684  0  0.134751  0.143245  0  0.988592  0
H  H124  1  0.89264040  0.63005949  0.11487402  1  0.149744  0  0.125651  0.125388  0  1.011641  0
H  H125  1  0.60736399  0.86992041  0.61487856  1  0.149634  0  0.125681  0.125434  0  1.011748  0
H  H126  1  0.10739758  0.36993317  0.88511018  1  0.149154  0  0.125676  0.125343  0  1.011564  0
H  H127  1  0.39262487  0.13008042  0.38512017  1  0.1495  0  0.125749  0.12555  0  1.011682  0
H  H128  1  0.77407951  0.72521098  0.98037959  1  0.17432  0  0.147834  0.124859  0  0.980748  0
H  H129  1  0.72590531  0.77477821  0.48037870  1  0.174219  0  0.147784  0.124844  0  0.980792  0
H  H130  1  0.22590796  0.27479495  0.01961800  1  0.174127  0  0.147891  0.124899  0  0.980745  0
H  H131  1  0.27410331  0.22522385  0.51962309  1  0.174368  0  0.147759  0.124796  0  0.980851  0
H  H132  1  0.53933794  0.78521393  0.12884104  1  0.103834  0  0.119488  0.138237  0  0.99707  0
H  H133  1  0.96066496  0.71477859  0.62883902  1  0.103881  0  0.11948  0.138267  0  0.997025  0
H  H134  1  0.46065329  0.21478181  0.87116381  1  0.103944  0  0.119455  0.138211  0  0.997216  0
H  H135  1  0.03934973  0.28522507  0.37116698  1  0.10416  0  0.119441  0.138188  0  0.997263  0
H  H136  1  0.69040231  0.81177562  0.97484476  1  0.101993  0  0.123714  0.142965  0  1.004027  0
H  H137  1  0.80961226  0.68821650  0.47484212  1  0.101743  0  0.123733  0.143087  0  1.004022  0
H  H138  1  0.30959429  0.18822426  0.02515933  1  0.101921  0  0.123716  0.143023  0  1.00402  0
H  H139  1  0.19039792  0.31179069  0.52515814  1  0.101553  0  0.123676  0.143012  0  1.004122  0
H  H140  1  0.40386513  0.94230895  0.03061289  1  0.121526  0  0.119363  0.141399  0  1.005832  0
H  H141  1  0.09612743  0.55768177  0.53061431  1  0.12192  0  0.119304  0.14136  0  1.005884  0
H  H142  1  0.59612268  0.05769136  0.96939311  1  0.12163  0  0.119308  0.141378  0  1.005916  0
H  H143  1  0.90385554  0.44231031  0.46939551  1  0.121864  0  0.11934  0.141289  0  1.005986  0
H  H144  1  0.70484402  0.04903064  0.40284047  1  -0.474987  0  0.075935  -0.12863  0  1.005489  0
H  H145  1  0.79515011  0.45097445  0.90284309  1  -0.474584  0  0.075932  -0.128641  0  1.005529  0
H  H146  1  0.29516390  0.95096528  0.59714871  1  -0.474555  0  0.075947  -0.128629  0  1.005584  0
H  H147  1  0.20485551  0.54902707  0.09714991  1  -0.474498  0  0.075933  -0.128649  0  1.005539  0
H  H148  1  0.38415560  0.75569675  0.37619656  1  -0.441567  0  0.084175  -0.115298  0  0.985708  0
H  H149  1  0.11585452  0.74430232  0.87619305  1  -0.441707  0  0.084199  -0.115223  0  0.985645  0
H  H150  1  0.61585654  0.24430177  0.62379912  1  -0.441408  0  0.08421  -0.115262  0  0.985547  0
H  H151  1  0.88416051  0.25569572  0.12380262  1  -0.441541  0  0.084187  -0.115256  0  0.985652  0
H  H152  1  0.57381281  0.09148294  0.32363980  1  -0.485402  0  0.064788  -0.144623  0  0.973868  0
H  H153  1  0.92619733  0.40850933  0.82364312  1  -0.485465  0  0.064758  -0.144674  0  0.973921  0
H  H154  1  0.42619269  0.90850886  0.67635511  1  -0.485557  0  0.064779  -0.144569  0  0.973899  0
H  H155  1  0.07380696  0.59148910  0.17635715  1  -0.485441  0  0.064745  -0.144661  0  0.973883  0
H  H156  1  0.76781230  0.83874848  0.14554212  1  -0.49512  0  0.069386  -0.147549  0  1.03691  0
H  H157  1  0.73219206  0.66126536  0.64554987  1  -0.49513  0  0.069392  -0.147562  0  1.03696  0
H  H158  1  0.23220417  0.16126236  0.85444629  1  -0.495556  0  0.069391  -0.147538  0  1.036968  0
H  H159  1  0.26780939  0.33875145  0.35445613  1  -0.495146  0  0.069367  -0.14764  0  1.036978  0
H  H160  1  0.00502123  0.17359765  0.18812886  1  -0.413246  0  0.087459  -0.099379  0  0.943105  0
H  H161  1  0.49495569  0.32639960  0.68813002  1  -0.413479  0  0.087511  -0.099298  0  0.943165  0
H  H162  1  0.99497422  0.82640938  0.81186375  1  -0.413092  0  0.087474  -0.099264  0  0.943041  0
H  H163  1  0.50504068  0.67359824  0.31186565  1  -0.413469  0  0.087495  -0.099304  0  0.943085  0
H  H164  1  0.74593032  0.92644788  0.07417279  1  -0.454738  0  0.082091  -0.115752  0  1.040283  0
H  H165  1  0.75405239  0.57354090  0.57417342  1  -0.454819  0  0.082099  -0.11572  0  1.040338  0
H  H166  1  0.25406495  0.07354893  0.92582824  1  -0.454608  0  0.082091  -0.115711  0  1.040222  0
H  H167  1  0.24594092  0.42645588  0.42582685  1  -0.454537  0  0.082106  -0.115712  0  1.040294  0
C  C168  1  0.09052882  0.79446241  0.04887247  1  0.389328  0  0.009209  -0.016621  0  3.974528  0
C  C169  1  0.40947266  0.70553741  0.54887507  1  0.389091  0  0.009221  -0.016635  0  3.974431  0
C  C170  1  0.90947338  0.20554368  0.95113429  1  0.389684  0  0.00923  -0.016633  0  3.974291  0
C  C171  1  0.59052099  0.29446244  0.45113934  1  0.390381  0  0.009134  -0.0167  0  3.974241  0
C  C172  1  0.16832987  0.74211710  0.05896847  1  0.29374  0  0.007673  -0.090812  0  3.887278  0
C  C173  1  0.33167469  0.75788367  0.55896690  1  0.293664  0  0.007727  -0.090709  0  3.887504  0
C  C174  1  0.83167776  0.25789364  0.94103906  1  0.293758  0  0.007688  -0.09066  0  3.887021  0
C  C175  1  0.66830781  0.24211300  0.44103719  1  0.292179  0  0.007747  -0.090729  0  3.886906  0
C  C176  1  0.21880364  0.78693420  0.98284099  1  0.971787  0  0.155069  0.109805  0  3.897776  0
C  C177  1  0.28119144  0.71305952  0.48284011  1  0.970006  0  0.155074  0.109811  0  3.897627  0
C  C178  1  0.78118048  0.21306811  0.01716501  1  0.970599  0  0.154878  0.109568  0  3.897956  0
C  C179  1  0.71880898  0.28693070  0.51716742  1  0.97102  0  0.154841  0.109523  0  3.898089  0
C  C180  1  0.50335082  0.56406935  0.12756360  1  0.22157  0  0.005726  -0.104042  0  3.899599  0
C  C181  1  0.99666761  0.93593050  0.62755761  1  0.221752  0  0.00548  -0.103985  0  3.899773  0
C  C182  1  0.49666398  0.43593533  0.87243781  1  0.221427  0  0.005676  -0.103844  0  3.89971  0
C  C183  1  0.00331518  0.06406872  0.37243539  1  0.221652  0  0.005662  -0.103598  0  3.899437  0
C  C184  1  0.59351405  0.52832428  0.15282910  1  0.459931  0  0.016838  -0.00399  0  3.96163  0
C  C185  1  0.90649691  0.97166961  0.65282209  1  0.458986  0  0.016919  -0.0038  0  3.961502  0
C  C186  1  0.40650491  0.47167381  0.84717079  1  0.459759  0  0.016835  -0.004098  0  3.961775  0
C  C187  1  0.09348472  0.02832807  0.34716747  1  0.459795  0  0.016951  -0.00401  0  3.96207  0
C  C188  1  0.65718590  0.53513438  0.07300407  1  0.942349  0  0.150001  0.110137  0  3.870484  0
C  C189  1  0.84281535  0.96486228  0.57299324  1  0.943277  0  0.149919  0.110203  0  3.870408  0
C  C190  1  0.34281145  0.46487216  0.92699505  1  0.941857  0  0.149848  0.109889  0  3.870383  0
C  C191  1  0.15717593  0.03513398  0.42699402  1  0.942347  0  0.149985  0.110205  0  3.870111  0
C  C192  1  0.45211418  0.64355157  0.85260197  1  0.246158  0  -0.00303  -0.112275  0  3.895051  0
C  C193  1  0.04790735  0.85644481  0.35259516  1  0.246544  0  -0.003132  -0.112968  0  3.894975  0
C  C194  1  0.54789450  0.35645970  0.14740059  1  0.245927  0  -0.003106  -0.112836  0  3.894972  0
C  C195  1  0.95210284  0.14353631  0.64739669  1  0.246375  0  -0.003091  -0.112666  0  3.894933  0
C  C196  1  0.53868359  0.63907418  0.81304515  1  0.36117  0  0.007305  -0.018334  0  3.961353  0
C  C197  1  0.96133310  0.86092322  0.31303545  1  0.362278  0  0.007485  -0.017619  0  3.960789  0
C  C198  1  0.46132774  0.36093456  0.18696353  1  0.361301  0  0.007394  -0.017996  0  3.960962  0
C  C199  1  0.03867269  0.13906245  0.68695602  1  0.361186  0  0.007296  -0.018285  0  3.96128  0
C  C200  1  0.64470340  0.61369320  0.88241917  1  0.950373  0  0.149159  0.106212  0  3.867437  0
C  C201  1  0.85531589  0.88629942  0.38240545  1  0.949811  0  0.149238  0.106054  0  3.867773  0
C  C202  1  0.35530291  0.38631446  0.11759333  1  0.950286  0  0.149204  0.106096  0  3.867796  0
C  C203  1  0.14469315  0.11368015  0.61758487  1  0.950377  0  0.149253  0.106212  0  3.867524  0
C  C204  1  0.34427446  0.68939755  0.00771857  1  0.309661  0  0.110833  0.232551  0  4.008671  0
C  C205  1  0.15573546  0.81059972  0.50771890  1  0.309579  0  0.110725  0.232321  0  4.008795  0
C  C206  1  0.65572532  0.31061310  0.99228666  1  0.309905  0  0.110869  0.232803  0  4.008238  0
C  C207  1  0.84425861  0.18938634  0.49228519  1  0.30967  0  0.110858  0.232902  0  4.008096  0
C  C208  1  0.39855849  0.65407286  0.04797884  1  0.08131  0  -0.092174  -0.265747  0  3.944987  0
C  C209  1  0.10143871  0.84593255  0.54796860  1  0.081842  0  -0.092176  -0.265518  0  3.944669  0
C  C210  1  0.60142338  0.34593556  0.95202869  1  0.081027  0  -0.092204  -0.265797  0  3.94485  0
C  C211  1  0.89856372  0.15406689  0.45202784  1  0.081652  0  -0.092207  -0.265712  0  3.944795  0
C  C212  1  0.48875610  0.60594684  0.03672632  1  0.345964  0  0.102554  0.209811  0  4.013348  0
C  C213  1  0.01124663  0.89405568  0.53671806  1  0.345405  0  0.102644  0.209885  0  4.013377  0
C  C214  1  0.51122825  0.39405752  0.96327624  1  0.343966  0  0.102743  0.210195  0  4.013346  0
C  C215  1  0.98876182  0.10594485  0.46327188  1  0.344497  0  0.102648  0.209932  0  4.013802  0
C  C216  1  0.52854151  0.59491731  0.98638983  1  0.01074  0  -0.096481  -0.280566  0  3.937741  0
C  C217  1  0.97147302  0.90508288  0.48637949  1  0.01156  0  -0.096515  -0.280416  0  3.937672  0
C  C218  1  0.47145723  0.40509283  0.01361272  1  0.011517  0  -0.096552  -0.280796  0  3.937947  0
C  C219  1  0.02853000  0.09490430  0.51360853  1  0.01274  0  -0.096469  -0.280474  0  3.937827  0
C  C220  1  0.47655178  0.63319432  0.94739695  1  0.298488  0  0.107842  0.220607  0  4.036701  0
C  C221  1  0.02346550  0.86679693  0.44739121  1  0.301549  0  0.107783  0.220368  0  4.037165  0
C  C222  1  0.52344297  0.36681526  0.05260561  1  0.298399  0  0.107904  0.220718  0  4.03663  0
C  C223  1  0.97654636  0.13318164  0.55260102  1  0.298094  0  0.107723  0.220453  0  4.036885  0
C  C224  1  0.38278469  0.67925928  0.95749261  1  0.068128  0  -0.085855  -0.24768  0  3.916412  0
C  C225  1  0.11723913  0.82073756  0.45748987  1  0.065064  0  -0.085717  -0.247242  0  3.916426  0
C  C226  1  0.61721722  0.32075293  0.04251339  1  0.068318  0  -0.085966  -0.247875  0  3.916377  0
C  C227  1  0.88277238  0.17924664  0.54251231  1  0.068401  0  -0.085937  -0.247894  0  3.916429  0
C  C228  1  0.28704515  0.90808296  0.19633871  1  0.378539  0  0.011673  -0.009115  0  3.951141  0
C  C229  1  0.21296082  0.59192714  0.69634419  1  0.378062  0  0.011475  -0.00934  0  3.950766  0
C  C230  1  0.71295387  0.09192974  0.80366537  1  0.377033  0  0.0118  -0.008837  0  3.950959  0
C  C231  1  0.78706218  0.40808070  0.30366411  1  0.377472  0  0.011754  -0.009033  0  3.951292  0
C  C232  1  0.39545948  0.88225615  0.17502550  1  0.334274  0  0.008785  -0.086049  0  3.856955  0
C  C233  1  0.10455438  0.61774607  0.67502656  1  0.333692  0  0.00884  -0.085814  0  3.856911  0
C  C234  1  0.60453596  0.11775088  0.82497744  1  0.335201  0  0.008738  -0.086  0  3.856989  0
C  C235  1  0.89546995  0.38225616  0.32497714  1  0.33513  0  0.008812  -0.085798  0  3.857083  0
C  C236  1  0.26040331  0.91307066  0.11361101  1  0.976459  0  0.146035  0.092373  0  3.919951  0
C  C237  1  0.23960410  0.58692805  0.61361347  1  0.976425  0  0.146051  0.092582  0  3.919393  0
C  C238  1  0.73958878  0.08693276  0.88639384  1  0.97599  0  0.146229  0.092589  0  3.91972  0
C  C239  1  0.76040926  0.41306384  0.38638909  1  0.976011  0  0.146128  0.092583  0  3.919953  0
C  C240  1  0.59507987  0.93096996  0.86818066  1  0.360028  0  0.011424  -0.010283  0  3.961202  0
C  C241  1  0.90493211  0.56903653  0.36817458  1  0.362042  0  0.011464  -0.010366  0  3.961333  0
C  C242  1  0.40491910  0.06902484  0.13182228  1  0.362059  0  0.011385  -0.010466  0  3.961248  0
C  C243  1  0.09505553  0.43097093  0.63183181  1  0.361529  0  0.011527  -0.010186  0  3.961122  0
C  C244  1  0.64746050  0.90943837  0.91300865  1  0.326353  0  0.004788  -0.099675  0  3.861184  0
C  C245  1  0.85253191  0.59055876  0.41300279  1  0.324354  0  0.004747  -0.099757  0  3.860983  0
C  C246  1  0.35252495  0.09055833  0.08699697  1  0.324311  0  0.004791  -0.099686  0  3.861018  0
C  C247  1  0.14746290  0.40944265  0.58700627  1  0.3247  0  0.004712  -0.099958  0  3.86086  0
C  C248  1  0.43655802  0.92947139  0.92465015  1  0.933011  0  0.142636  0.090495  0  3.881626  0
C  C249  1  0.06343733  0.57051731  0.42464772  1  0.932945  0  0.14266  0.09045  0  3.881582  0
C  C250  1  0.56343159  0.07052740  0.07535241  1  0.93246  0  0.142648  0.090397  0  3.88159  0
C  C251  1  0.93656372  0.42948723  0.57535331  1  0.932471  0  0.142555  0.090153  0  3.881883  0
C  C252  1  0.75238928  0.71045979  0.10472515  1  0.303917  0  0.00838  -0.097105  0  3.878084  0
C  C253  1  0.74762075  0.78952692  0.60472335  1  0.303728  0  0.008345  -0.097021  0  3.877502  0
C  C254  1  0.24763656  0.28952967  0.89527473  1  0.303999  0  0.008323  -0.097084  0  3.877758  0
C  C255  1  0.25237828  0.21047708  0.39527844  1  0.303943  0  0.00836  -0.097024  0  3.877755  0
C  C256  1  0.84078260  0.66439931  0.09111417  1  0.395162  0  0.009207  -0.014311  0  3.97302  0
C  C257  1  0.65921192  0.83558942  0.59111512  1  0.395042  0  0.009242  -0.01418  0  3.972793  0
C  C258  1  0.15923838  0.33559930  0.90887729  1  0.395739  0  0.009367  -0.013906  0  3.972345  0
C  C259  1  0.34078116  0.16441401  0.40888361  1  0.395293  0  0.009085  -0.014439  0  3.972895  0
C  C260  1  0.78052367  0.71212161  0.02048342  1  1.003104  0  0.154302  0.114597  0  3.875883  0
C  C261  1  0.71947467  0.78786790  0.52048086  1  1.002973  0  0.154185  0.114449  0  3.875695  0
C  C262  1  0.21948021  0.28788194  0.97951493  1  1.003335  0  0.154289  0.11459  0  3.875769  0
C  C263  1  0.28053759  0.21213165  0.47952170  1  1.002446  0  0.154293  0.114488  0  3.875631  0
C  C264  1  0.46258736  0.86505033  0.08338416  1  0.39334  0  0.108996  0.222215  0  4.003159  0
C  C265  1  0.03740395  0.63493676  0.58338394  1  0.39337  0  0.109183  0.222442  0  4.00304  0
C  C266  1  0.53740035  0.13494026  0.91661993  1  0.39478  0  0.109101  0.222489  0  4.003196  0
C  C267  1  0.96259224  0.36505955  0.41662321  1  0.394402  0  0.109141  0.222402  0  4.003289  0
C  C268  1  0.54281869  0.81138133  0.09211564  1  0.004213  0  -0.088513  -0.263512  0  3.926596  0
C  C269  1  0.95718312  0.68861104  0.59211186  1  0.00449  0  -0.088662  -0.263773  0  3.926848  0
C  C270  1  0.45718964  0.18861817  0.90789189  1  0.004433  0  -0.088748  -0.263938  0  3.927162  0
C  C271  1  0.04281326  0.31138680  0.40789567  1  0.004595  0  -0.088731  -0.263882  0  3.9271  0
C  C272  1  0.62636984  0.79288699  0.05290497  1  0.371047  0  0.103336  0.201737  0  4.033631  0
C  C273  1  0.87363352  0.70710275  0.55290257  1  0.371352  0  0.103521  0.202215  0  4.033364  0
C  C274  1  0.37364242  0.20711256  0.94709912  1  0.371248  0  0.103581  0.202207  0  4.033322  0
C  C275  1  0.12638168  0.29290552  0.44710229  1  0.370594  0  0.103576  0.202254  0  4.033243  0
C  C276  1  0.62566073  0.82510817  0.00549172  1  0.006704  0  -0.08603  -0.25183  0  3.964073  0
C  C277  1  0.87434234  0.67488001  0.50548798  1  0.007168  0  -0.086083  -0.252244  0  3.964198  0
C  C278  1  0.37432657  0.17488753  0.99451275  1  0.006637  0  -0.086  -0.251992  0  3.963998  0
C  C279  1  0.12566322  0.32512969  0.49451496  1  0.007345  0  -0.086005  -0.252099  0  3.964616  0
C  C280  1  0.54447738  0.87780273  0.99761797  1  0.383647  0  0.105746  0.210592  0  4.049929  0
C  C281  1  0.95552058  0.62218080  0.49761541  1  0.383116  0  0.105861  0.210876  0  4.049972  0
C  C282  1  0.45550379  0.12219085  0.00238841  1  0.382969  0  0.105857  0.210989  0  4.049881  0
C  C283  1  0.04446660  0.37781388  0.50239403  1  0.383065  0  0.105842  0.210753  0  4.050593  0
C  C284  1  0.46350808  0.89927095  0.03645851  1  -0.044914  0  -0.088829  -0.267602  0  3.925709  0
C  C285  1  0.03647611  0.60071501  0.53645964  1  -0.045685  0  -0.08888  -0.267659  0  3.925779  0
C  C286  1  0.53648049  0.10072732  0.96354826  1  -0.045879  0  -0.088917  -0.267954  0  3.925696  0
C  C287  1  0.96351015  0.39928017  0.46354674  1  -0.045499  0  -0.088991  -0.267633  0  3.92569  0
N  N288  1  0.12338211  0.82182033  0.00132043  1  -1.203434  0  -0.34195  -0.280837  0  3.565623  0
N  N289  1  0.37662387  0.67817696  0.50132470  1  -1.202507  0  -0.341962  -0.280891  0  3.56535  0
N  N290  1  0.87660577  0.17818049  0.99868557  1  -1.202893  0  -0.341872  -0.280757  0  3.565449  0
N  N291  1  0.62338758  0.32182410  0.49868856  1  -1.202376  0  -0.341849  -0.280735  0  3.565456  0
N  N292  1  0.24988653  0.73749570  0.01667650  1  -1.255415  0  -0.217612  0.008948  0  3.764808  0
N  N293  1  0.25012040  0.76250093  0.51667715  1  -1.255614  0  -0.217604  0.008874  0  3.764989  0
N  N294  1  0.75010765  0.26250876  0.98332797  1  -1.255973  0  -0.217501  0.008842  0  3.764509  0
N  N295  1  0.74987326  0.23749023  0.48332846  1  -1.255579  0  -0.217424  0.009027  0  3.764233  0
N  N296  1  0.68824325  0.51056941  0.11832654  1  -1.243881  0  -0.345206  -0.291666  0  3.571683  0
N  N297  1  0.81175830  0.98942013  0.61832129  1  -1.243689  0  -0.345214  -0.291848  0  3.571516  0
N  N298  1  0.31176317  0.48943058  0.88166799  1  -1.243405  0  -0.345154  -0.29166  0  3.571314  0
N  N299  1  0.18821507  0.01057388  0.38166367  1  -1.243542  0  -0.345173  -0.291615  0  3.571562  0
N  N300  1  0.54463362  0.56862747  0.07677357  1  -1.2503  0  -0.22553  -0.005272  0  3.782405  0
N  N301  1  0.95537024  0.93137480  0.57676453  1  -1.250786  0  -0.225339  -0.005497  0  3.782773  0
N  N302  1  0.45536194  0.43138059  0.92322784  1  -1.249125  0  -0.225529  -0.005304  0  3.782366  0
N  N303  1  0.04462758  0.06862714  0.42322503  1  -1.250325  0  -0.225695  -0.00579  0  3.782852  0
N  N304  1  0.65752628  0.62090840  0.83231751  1  -1.200608  0  -0.346544  -0.275159  0  3.584992  0
N  N305  1  0.84248675  0.87908212  0.33230688  1  -1.20147  0  -0.346808  -0.27556  0  3.585543  0
N  N306  1  0.34247899  0.37909005  0.16769117  1  -1.200706  0  -0.346597  -0.275205  0  3.585464  0
N  N307  1  0.15752523  0.12090618  0.66768153  1  -1.200662  0  -0.346517  -0.27501  0  3.58492  0
N  N308  1  0.52032832  0.62720068  0.89653849  1  -1.27406  0  -0.22828  -0.000429  0  3.796866  0
N  N309  1  0.97969139  0.87279537  0.39653179  1  -1.274113  0  -0.228211  -0.000292  0  3.796999  0
N  N310  1  0.47967360  0.37281153  0.10346636  1  -1.273223  0  -0.228457  -0.000379  0  3.796702  0
N  N311  1  0.02032111  0.12718014  0.60346083  1  -1.27367  0  -0.228465  -0.000362  0  3.796861  0
N  N312  1  0.20366319  0.92652123  0.15768356  1  -1.252827  0  -0.348309  -0.290144  0  3.591495  0
N  N313  1  0.29634619  0.57348521  0.65768995  1  -1.252318  0  -0.348298  -0.290289  0  3.590669  0
N  N314  1  0.79633976  0.07349151  0.84232052  1  -1.252537  0  -0.348411  -0.290379  0  3.591112  0
N  N315  1  0.70367300  0.42651491  0.34231490  1  -1.252668  0  -0.34833  -0.290207  0  3.591401  0
N  N316  1  0.37754919  0.88572708  0.12230877  1  -1.303556  0  -0.222854  0.002399  0  3.782297  0
N  N317  1  0.12245159  0.61426481  0.62230948  1  -1.303077  0  -0.222949  0.002073  0  3.782199  0
N  N318  1  0.62243909  0.11426863  0.87769417  1  -1.303959  0  -0.22299  0.002015  0  3.78263  0
N  N319  1  0.87755697  0.38572805  0.37769346  1  -1.303633  0  -0.222898  0.00215  0  3.782695  0
N  N320  1  0.46462467  0.94292128  0.87612715  1  -1.228083  0  -0.349653  -0.276447  0  3.565736  0
N  N321  1  0.03537863  0.55707823  0.37612364  1  -1.227776  0  -0.349714  -0.276408  0  3.56622  0
N  N322  1  0.53537366  0.05707658  0.12387502  1  -1.227599  0  -0.349753  -0.276477  0  3.566005  0
N  N323  1  0.96461600  0.44293033  0.62387777  1  -1.227847  0  -0.349692  -0.276336  0  3.566214  0
N  N324  1  0.54561192  0.90851759  0.94873275  1  -1.299059  0  -0.229633  -0.001858  0  3.785215  0
N  N325  1  0.95437881  0.59146382  0.44873229  1  -1.299126  0  -0.229812  -0.002141  0  3.785154  0
N  N326  1  0.45437082  0.09147244  0.05127058  1  -1.298328  0  -0.229707  -0.001885  0  3.785139  0
N  N327  1  0.04562051  0.40853406  0.55127410  1  -1.299155  0  -0.229686  -0.001759  0  3.785403  0
N  N328  1  0.85648431  0.66593278  0.03851333  1  -1.271137  0  -0.347969  -0.298491  0  3.59797  0
N  N329  1  0.64351805  0.83405709  0.53851619  1  -1.270857  0  -0.347952  -0.298443  0  3.597769  0
N  N330  1  0.14352853  0.33407188  0.96147393  1  -1.271237  0  -0.348251  -0.298727  0  3.597638  0
N  N331  1  0.35649236  0.16594346  0.46148369  1  -1.270663  0  -0.347895  -0.298269  0  3.597561  0
N  N332  1  0.71427991  0.74078719  0.05944549  1  -1.266569  0  -0.2199  0.008151  0  3.76903  0
N  N333  1  0.78572329  0.75920094  0.55944083  1  -1.267185  0  -0.21992  0.007828  0  3.768841  0
N  N334  1  0.28572981  0.25920722  0.94055974  1  -1.26732  0  -0.21997  0.007865  0  3.769069  0
N  N335  1  0.21428157  0.24080261  0.44056287  1  -1.266613  0  -0.219971  0.007918  0  3.768611  0
O  O336  1  0.87412283  0.90532987  0.00257053  1  -1.446626  0  -0.391754  -0.73247  0  2.371775  0
O  O337  1  0.62587289  0.59467155  0.50257250  1  -1.446909  0  -0.391781  -0.732447  0  2.371813  0
O  O338  1  0.12587475  0.09467003  0.99743280  1  -1.446589  0  -0.391747  -0.732413  0  2.371577  0
O  O339  1  0.37412764  0.40532838  0.49742929  1  -1.446448  0  -0.391751  -0.732386  0  2.371699  0
O  O340  1  0.97827425  0.94893429  0.08566447  1  -1.459663  0  -0.391074  -0.759505  0  2.384453  0
O  O341  1  0.52171443  0.55105494  0.58566207  1  -1.459806  0  -0.391055  -0.759414  0  2.384458  0
O  O342  1  0.02172056  0.05106711  0.91433694  1  -1.459803  0  -0.391091  -0.759494  0  2.384568  0
O  O343  1  0.47827847  0.44894695  0.41433437  1  -1.459752  0  -0.391043  -0.759437  0  2.384762  0
O  O344  1  0.83370726  0.02615196  0.03359906  1  -1.451392  0  -0.394091  -0.74343  0  2.359759  0
O  O345  1  0.66628291  0.47384413  0.53359116  1  -1.451505  0  -0.394155  -0.743424  0  2.359887  0
O  O346  1  0.16627536  0.97384573  0.96639967  1  -1.451383  0  -0.394142  -0.743502  0  2.359983  0
O  O347  1  0.33371173  0.52615574  0.46640298  1  -1.451558  0  -0.394167  -0.743471  0  2.359938  0
O  O348  1  0.02560307  0.05570986  0.18438482  1  -1.443548  0  -0.402909  -0.742666  0  2.320594  0
O  O349  1  0.47438690  0.44429013  0.68438221  1  -1.443444  0  -0.402956  -0.742792  0  2.320641  0
O  O350  1  0.97440335  0.94429882  0.81561353  1  -1.443397  0  -0.402907  -0.742675  0  2.320659  0
O  O351  1  0.52560578  0.55570972  0.31562149  1  -1.443357  0  -0.403009  -0.742835  0  2.320498  0
O  O352  1  0.81516944  0.11000124  0.15525730  1  -1.440517  0  -0.40277  -0.76778  0  2.361886  0
O  O353  1  0.68481738  0.38999713  0.65526100  1  -1.440736  0  -0.402886  -0.768008  0  2.361845  0
O  O354  1  0.18482652  0.89000171  0.84474182  1  -1.440451  0  -0.402828  -0.767796  0  2.361972  0
O  O355  1  0.31517789  0.61000836  0.34474003  1  -1.440688  0  -0.402814  -0.767961  0  2.361969  0
O  O356  1  0.02771041  0.13293171  0.10451521  1  -1.446547  0  -0.397031  -0.734924  0  2.334237  0
O  O357  1  0.47228170  0.36706299  0.60451726  1  -1.44609  0  -0.396981  -0.734919  0  2.334231  0
O  O358  1  0.97228302  0.86706610  0.89547970  1  -1.445882  0  -0.396938  -0.734795  0  2.334032  0
O  O359  1  0.52771276  0.63294403  0.39548377  1  -1.445871  0  -0.397023  -0.735013  0  2.334193  0
O  O360  1  0.91313370  0.90040874  0.20219430  1  -1.445707  0  -0.385612  -0.726484  0  2.336983  0
O  O361  1  0.58684821  0.59959608  0.70219393  1  -1.445698  0  -0.385719  -0.726602  0  2.336797  0
O  O362  1  0.08686706  0.09959324  0.79780635  1  -1.445705  0  -0.385598  -0.726499  0  2.337061  0
O  O363  1  0.41313677  0.40041390  0.29780480  1  -1.445844  0  -0.385647  -0.726527  0  2.336872  0
O  O364  1  0.70877300  0.94873797  0.16309962  1  -1.459885  0  -0.390053  -0.763032  0  2.472237  0
O  O365  1  0.79120579  0.55126620  0.66310193  1  -1.459932  0  -0.390037  -0.763034  0  2.472234  0
O  O366  1  0.29123076  0.05126455  0.83690065  1  -1.459521  0  -0.3901  -0.763096  0  2.472209  0
O  O367  1  0.20876596  0.44873955  0.33689642  1  -1.459678  0  -0.38998  -0.76295  0  2.472139  0
O  O368  1  0.68158059  0.85018557  0.22752057  1  -1.444078  0  -0.39039  -0.717196  0  2.298143  0
O  O369  1  0.81841523  0.64981147  0.72752728  1  -1.443873  0  -0.390415  -0.717283  0  2.298121  0
O  O370  1  0.31842595  0.14980676  0.77246708  1  -1.443911  0  -0.3902  -0.717046  0  2.298223  0
O  O371  1  0.18157825  0.35018685  0.27247681  1  -1.443803  0  -0.390407  -0.717212  0  2.298071  0
O  O372  1  0.65624323  0.98563101  0.30680825  1  -1.454358  0  -0.399338  -0.772067  0  2.385757  0
O  O373  1  0.84374446  0.51436154  0.80681157  1  -1.454418  0  -0.399339  -0.772062  0  2.3857  0
O  O374  1  0.34374500  0.01436418  0.69318513  1  -1.454737  0  -0.399311  -0.771903  0  2.385978  0
O  O375  1  0.15625382  0.48563581  0.19318831  1  -1.454679  0  -0.399315  -0.772023  0  2.385597  0
O  O376  1  0.57134260  0.06339912  0.23657236  1  -1.450029  0  -0.39088  -0.729023  0  2.363044  0
O  O377  1  0.92862811  0.43659363  0.73657475  1  -1.449627  0  -0.390918  -0.729009  0  2.362995  0
O  O378  1  0.42864683  0.93659813  0.76342370  1  -1.450025  0  -0.390885  -0.728937  0  2.363019  0
O  O379  1  0.07134827  0.56340093  0.26342437  1  -1.450135  0  -0.390849  -0.728902  0  2.363098  0
O  O380  1  0.41010494  0.00413974  0.29958658  1  -1.441019  0  -0.397793  -0.739065  0  2.298196  0
O  O381  1  0.08988416  0.49585853  0.79957928  1  -1.441142  0  -0.39766  -0.738951  0  2.298091  0
O  O382  1  0.58987600  0.99586049  0.70041063  1  -1.44082  0  -0.397643  -0.738989  0  2.298448  0
O  O383  1  0.91011100  0.50413725  0.20041449  1  -1.440935  0  -0.397742  -0.739031  0  2.298166  0
O  O384  1  0.34485852  0.87176662  0.37887361  1  -1.449638  0  -0.39372  -0.756056  0  2.407044  0
O  O385  1  0.15514779  0.62823341  0.87887043  1  -1.449573  0  -0.393638  -0.755922  0  2.407005  0
O  O386  1  0.65514426  0.12822720  0.62113851  1  -1.449753  0  -0.393639  -0.756132  0  2.407078  0
O  O387  1  0.84485274  0.37176652  0.12113213  1  -1.449532  0  -0.393656  -0.756048  0  2.407068  0
O  O388  1  0.54262771  0.82604781  0.33279686  1  -1.450201  0  -0.390755  -0.732224  0  2.376791  0
O  O389  1  0.95736803  0.67395478  0.83280158  1  -1.45001  0  -0.390783  -0.732192  0  2.376803  0
O  O390  1  0.45735820  0.17395298  0.66719155  1  -1.450086  0  -0.390715  -0.732162  0  2.377011  0
O  O391  1  0.04265445  0.32604845  0.16718989  1  -1.450047  0  -0.390762  -0.732156  0  2.376864  0
O  O392  1  0.52733273  0.82146692  0.43106009  1  -1.452194  0  -0.398611  -0.744389  0  2.346404  0
O  O393  1  0.97269500  0.67853858  0.93106479  1  -1.452178  0  -0.398524  -0.74435  0  2.3467  0
O  O394  1  0.47269917  0.17853284  0.56892909  1  -1.451805  0  -0.398613  -0.744464  0  2.346523  0
O  O395  1  0.02730246  0.32146898  0.06893012  1  -1.451829  0  -0.398606  -0.744447  0  2.346675  0
O  O396  1  0.47703254  0.01847772  0.41877912  1  -1.470867  0  -0.387405  -0.760937  0  2.430117  0
O  O397  1  0.02295621  0.48153209  0.91877914  1  -1.470991  0  -0.387517  -0.761129  0  2.430407  0
O  O398  1  0.52297440  0.98152688  0.58120470  1  -1.470613  0  -0.387432  -0.761041  0  2.430509  0
O  O399  1  0.97704934  0.51846891  0.08121424  1  -1.470777  0  -0.387499  -0.761124  0  2.430285  0
O  O400  1  0.66677784  0.96118778  0.46298742  1  -1.454953  0  -0.384991  -0.734026  0  2.341226  0
O  O401  1  0.83322377  0.53881148  0.96299174  1  -1.455124  0  -0.38496  -0.733936  0  2.341048  0
O  O402  1  0.33321709  0.03880595  0.53699678  1  -1.455195  0  -0.384948  -0.733767  0  2.341018  0
O  O403  1  0.16679011  0.46118501  0.03700394  1  -1.45531  0  -0.384975  -0.733906  0  2.341087  0
O  O404  1  0.62308675  0.08590990  0.48172688  1  -1.438369  0  -0.390177  -0.726003  0  2.37051  0
O  O405  1  0.87691761  0.41408833  0.98172899  1  -1.438368  0  -0.390091  -0.725997  0  2.370545  0
O  O406  1  0.37691407  0.91408389  0.51826421  1  -1.437375  0  -0.39009  -0.725943  0  2.370291  0
O  O407  1  0.12309228  0.58590761  0.01826439  1  -1.437128  0  -0.390089  -0.725908  0  2.37031  0
