# generated using pymatgen
data_CoH18C28SN2O5
_symmetry_space_group_name_H-M   'P 1'
_cell_length_a   13.03028319
_cell_length_b   19.72851008
_cell_length_c   22.13292705
_cell_angle_alpha   89.99989519
_cell_angle_beta   89.99990541
_cell_angle_gamma   100.12521944
_symmetry_Int_Tables_number   1
_chemical_formula_structural   CoH18C28SN2O5
_chemical_formula_sum   'Co8 H144 C224 S8 N16 O40'
_cell_volume   5601.05741147
_cell_formula_units_Z   8
loop_
 _symmetry_equiv_pos_site_id
 _symmetry_equiv_pos_as_xyz
  1  'x, y, z'
loop_
 _atom_site_type_symbol
 _atom_site_label
 _atom_site_symmetry_multiplicity
 _atom_site_fract_x
 _atom_site_fract_y
 _atom_site_fract_z
 _atom_site_occupancy
 _atom_site_pbe_bader_charge
 _atom_site_pbe_bader_spin_density
 _atom_site_pbe_cm5_charge
 _atom_site_pbe_ddec_charge
 _atom_site_pbe_ddec_spin_density
 _atom_site_pbe_ddec_sum_bond_order
 _atom_site_pbe_magmom
Co  Co0  1  0.54905913  0.42077682  0.55002876  1  1.299438  2.605004  0.683384  0.883187  2.858191  2.545215  2.584
Co  Co1  1  0.95094165  0.57922357  0.05003493  1  1.299551  2.605005  0.683512  0.883307  2.858175  2.545064  2.584
Co  Co2  1  0.45094181  0.57922451  0.44996600  1  1.29952  2.605006  0.683493  0.883238  2.858165  2.545063  2.584
Co  Co3  1  0.04906042  0.42077622  0.94997069  1  1.299416  2.605003  0.683389  0.88318  2.858176  2.545115  2.584
Co  Co4  1  0.54058552  0.93256824  0.54944641  1  1.279036  2.590643  0.688501  0.888557  2.823032  2.583254  2.554
Co  Co5  1  0.95941499  0.06743113  0.04944753  1  1.27904  2.590646  0.6885  0.888536  2.823026  2.583317  2.554
Co  Co6  1  0.45941243  0.06743052  0.45055423  1  1.279011  2.590648  0.688491  0.888536  2.823039  2.583258  2.554
Co  Co7  1  0.04058541  0.93256815  0.95055402  1  1.279024  2.590642  0.688521  0.888569  2.823034  2.583258  2.554
H  H8  1  0.70897158  0.93044072  0.45626842  1  0.1039  0.001307  0.115195  0.087253  0.000124  1.014142  0.001
H  H9  1  0.79102662  0.06955713  0.95626892  1  0.103965  0.001307  0.115147  0.087204  0.000124  1.014136  0.001
H  H10  1  0.29102010  0.06955751  0.54373267  1  0.103951  0.001307  0.11515  0.087236  0.000124  1.014127  0.001
H  H11  1  0.20897129  0.93043854  0.04373082  1  0.104993  0.001306  0.115184  0.087248  0.000124  1.014153  0.001
H  H12  1  0.88170547  0.99694816  0.43063272  1  0.074534  0.000856  0.103699  0.105438  0.000377  1.013905  0.0
H  H13  1  0.61829422  0.00304925  0.93063395  1  0.074455  0.000855  0.103701  0.105461  0.000377  1.013946  0.0
H  H14  1  0.11828671  0.00304905  0.56936611  1  0.074487  0.000855  0.103697  0.105507  0.000377  1.013905  0.0
H  H15  1  0.38170383  0.99694694  0.06936759  1  0.074516  0.000856  0.103698  0.105448  0.000377  1.013892  0.0
H  H16  1  0.86951997  0.10875179  0.59828818  1  0.087415  0.000751  0.102396  0.116393  0.00034  1.018078  0.0
H  H17  1  0.63048150  0.89124592  0.09829008  1  0.087321  0.000751  0.10236  0.116392  0.00034  1.018084  0.0
H  H18  1  0.13047848  0.89124594  0.40171110  1  0.087362  0.000751  0.102385  0.116404  0.00034  1.01802  0.0
H  H19  1  0.36952169  0.10875233  0.90171237  1  0.087429  0.000751  0.102401  0.116386  0.00034  1.01805  0.0
H  H20  1  0.69754941  0.03515341  0.61739560  1  0.130032  0.001598  0.120031  0.097192  0.000433  1.00121  0.001
H  H21  1  0.80245149  0.96484528  0.11739586  1  0.13011  0.001598  0.120011  0.097134  0.000433  1.001249  0.001
H  H22  1  0.30244931  0.96484535  0.38260594  1  0.13006  0.001598  0.120012  0.097127  0.000433  1.001325  0.001
H  H23  1  0.19754917  0.03515503  0.88260433  1  0.130047  0.001598  0.120023  0.097166  0.000433  1.001215  0.001
H  H24  1  0.01572995  0.07383573  0.40282826  1  0.067416  6.9e-05  0.110863  0.124484  5.6e-05  0.984573  0.0
H  H25  1  0.48426842  0.92616151  0.90283034  1  0.067473  6.9e-05  0.11082  0.124419  5.6e-05  0.984538  0.0
H  H26  1  0.98426422  0.92615736  0.59717057  1  0.067531  6.9e-05  0.110782  0.124323  5.6e-05  0.984547  0.0
H  H27  1  0.51573012  0.07383364  0.09717256  1  0.067367  6.9e-05  0.110858  0.124449  5.6e-05  0.984544  0.0
H  H28  1  0.19296021  0.15903231  0.40371728  1  0.108211  -3e-06  0.112637  0.130456  -5.6e-05  0.992185  0.0
H  H29  1  0.30704109  0.84096442  0.90371741  1  0.108251  -3e-06  0.112637  0.130409  -5.6e-05  0.992293  0.0
H  H30  1  0.80703346  0.84096181  0.59628156  1  0.107919  -3e-06  0.112644  0.130362  -5.6e-05  0.992261  0.0
H  H31  1  0.69296102  0.15902971  0.09628233  1  0.108061  -3e-06  0.112615  0.130457  -5.6e-05  0.992157  0.0
H  H32  1  0.34816900  0.21296673  0.43666445  1  0.118423  0.00081  0.105714  0.118869  0.000355  1.050169  0.0
H  H33  1  0.15182795  0.78702837  0.93666347  1  0.118445  0.00081  0.105716  0.118879  0.000355  1.050103  0.0
H  H34  1  0.65182354  0.78702894  0.56333303  1  0.118375  0.00081  0.105732  0.118859  0.000355  1.050209  0.0
H  H35  1  0.84816965  0.21296318  0.06333492  1  0.118237  0.00081  0.105697  0.118826  0.000355  1.050149  0.0
H  H36  1  0.49321767  0.30738867  0.46053236  1  0.133028  0.001574  0.11876  0.090311  0.000368  1.000105  0.001
H  H37  1  0.00677742  0.69260843  0.96053077  1  0.132989  0.001575  0.118847  0.090434  0.000368  1.000091  0.001
H  H38  1  0.50677450  0.69260854  0.53946692  1  0.1329  0.001575  0.118782  0.090259  0.000368  1.000157  0.001
H  H39  1  0.99321462  0.30738826  0.03946987  1  0.13299  0.001574  0.118763  0.09031  0.000368  1.000186  0.001
H  H40  1  0.34598410  0.36250868  0.61357541  1  0.137133  0.00151  0.12063  0.097303  0.000329  0.996925  0.001
H  H41  1  0.15400349  0.63748823  0.11357498  1  0.137079  0.00151  0.120584  0.097246  0.000329  0.997059  0.001
H  H42  1  0.65400550  0.63748750  0.38642388  1  0.137408  0.001509  0.120616  0.097326  0.000329  0.997049  0.001
H  H43  1  0.84598241  0.36250845  0.88642656  1  0.137083  0.00151  0.120588  0.097238  0.000329  0.996941  0.001
H  H44  1  0.18989446  0.27217124  0.59561047  1  0.063231  0.000818  0.101149  0.113356  0.000397  1.010341  0.0
H  H45  1  0.31009644  0.72782057  0.09561065  1  0.063253  0.000818  0.101156  0.113397  0.000397  1.010286  0.0
H  H46  1  0.81009600  0.72782236  0.40438791  1  0.063216  0.000818  0.101188  0.113407  0.000397  1.010313  0.0
H  H47  1  0.68989411  0.27217046  0.90439135  1  0.063237  0.000818  0.101152  0.113333  0.000397  1.010316  0.0
H  H48  1  0.75303702  0.48312684  0.48859978  1  0.095509  0.001356  0.115789  0.084836  0.000135  1.01929  0.001
H  H49  1  0.74696851  0.51688176  0.98860411  1  0.09545  0.001356  0.115797  0.084825  0.000135  1.019252  0.001
H  H50  1  0.24696861  0.51688068  0.51139635  1  0.095421  0.001356  0.115799  0.08481  0.000135  1.019259  0.001
H  H51  1  0.25303852  0.48312525  0.01139969  1  0.095512  0.001356  0.115768  0.084829  0.000135  1.019263  0.001
H  H52  1  0.89754420  0.58158377  0.50241976  1  0.055852  0.000902  0.102631  0.112613  0.000444  1.004605  0.0
H  H53  1  0.60246478  0.41842396  0.00242291  1  0.055752  0.000902  0.102614  0.112545  0.000444  1.004677  0.0
H  H54  1  0.10246274  0.41842581  0.49757772  1  0.055954  0.000902  0.102641  0.112637  0.000444  1.004607  0.0
H  H55  1  0.39754722  0.58158151  0.99757909  1  0.055547  0.000902  0.102668  0.112637  0.000444  1.004504  0.0
H  H56  1  0.73922457  0.63338682  0.66340392  1  0.085352  0.000738  0.101768  0.10351  0.000357  1.058843  0.0
H  H57  1  0.76078720  0.36662155  0.16340655  1  0.08582  0.000737  0.101736  0.103486  0.000357  1.058827  0.0
H  H58  1  0.26077903  0.36662173  0.33659355  1  0.085736  0.000737  0.10178  0.103514  0.000357  1.058783  0.0
H  H59  1  0.23922742  0.63338804  0.83659725  1  0.085233  0.000738  0.101796  0.103525  0.000357  1.058853  0.0
H  H60  1  0.60280432  0.53240061  0.64301454  1  0.111188  0.001348  0.119989  0.092624  0.000305  1.001818  0.001
H  H61  1  0.89720318  0.46760883  0.14301868  1  0.111313  0.001349  0.120056  0.092729  0.000306  1.001808  0.001
H  H62  1  0.39719824  0.46760691  0.35698023  1  0.111297  0.001348  0.120008  0.092626  0.000305  1.001759  0.001
H  H63  1  0.10280701  0.53240436  0.85698648  1  0.110883  0.001347  0.120014  0.092642  0.000305  1.001853  0.001
H  H64  1  0.87044401  0.71046838  0.68603930  1  0.081373  1.3e-05  0.102732  0.114586  -3e-05  1.032469  0.0
H  H65  1  0.62955865  0.28953477  0.18604308  1  0.081533  1.3e-05  0.102729  0.1146  -3e-05  1.0324  0.0
H  H66  1  0.12955593  0.28953501  0.31395953  1  0.081313  1.3e-05  0.102756  0.114653  -3e-05  1.032438  0.0
H  H67  1  0.37044550  0.71046708  0.81396072  1  0.081384  1.3e-05  0.102733  0.114596  -3e-05  1.032473  0.0
H  H68  1  0.04191775  0.80088055  0.68660033  1  0.084746  9e-05  0.108129  0.122443  7.6e-05  1.01154  0.0
H  H69  1  0.45808846  0.19912083  0.18660214  1  0.084778  9e-05  0.108113  0.122412  7.6e-05  1.011476  0.0
H  H70  1  0.95808612  0.19912027  0.31340031  1  0.084836  9e-05  0.10812  0.12242  7.6e-05  1.011527  0.0
H  H71  1  0.54191722  0.80088103  0.81339850  1  0.084717  9e-05  0.10812  0.122421  7.6e-05  1.01159  0.0
H  H72  1  0.17779190  0.87960572  0.65531243  1  0.10789  0.000793  0.109202  0.118313  0.000361  0.998564  0.0
H  H73  1  0.32220733  0.12039213  0.15531540  1  0.107836  0.000793  0.109242  0.118367  0.000361  0.998607  0.0
H  H74  1  0.82220836  0.12039304  0.34468685  1  0.107896  0.000793  0.109238  0.118351  0.000361  0.998547  0.0
H  H75  1  0.67779266  0.87960561  0.84468615  1  0.107906  0.000793  0.109211  0.118327  0.000361  0.998552  0.0
H  H76  1  0.35193363  0.94571169  0.62930534  1  0.100346  0.001244  0.117542  0.092333  0.000101  0.994986  0.001
H  H77  1  0.14806763  0.05428777  0.12930723  1  0.100288  0.001245  0.117547  0.092321  0.000101  0.995027  0.001
H  H78  1  0.64806780  0.05428862  0.37069440  1  0.100342  0.001244  0.117563  0.092336  0.000101  0.994976  0.001
H  H79  1  0.85193584  0.94571151  0.87069341  1  0.100335  0.001245  0.117548  0.092337  0.000101  0.994989  0.001
H  H80  1  0.39244189  0.81077671  0.49200547  1  0.125302  0.001137  0.119051  0.097177  7.5e-05  1.002374  0.001
H  H81  1  0.10756412  0.18922135  0.99200641  1  0.125417  0.001137  0.119047  0.097146  7.5e-05  1.00239  0.001
H  H82  1  0.60756081  0.18922257  0.50799472  1  0.125347  0.001137  0.119025  0.097115  7.5e-05  1.002347  0.001
H  H83  1  0.89243867  0.81077535  0.00799514  1  0.125319  0.001137  0.119052  0.097178  7.5e-05  1.002356  0.001
H  H84  1  0.22231538  0.73773535  0.51161305  1  0.083649  0.00095  0.101212  0.113284  0.000508  1.044351  0.0
H  H85  1  0.27768805  0.26226234  0.01161447  1  0.08373  0.00095  0.10119  0.113188  0.000508  1.044314  0.0
H  H86  1  0.77768705  0.26226290  0.48838759  1  0.083681  0.00095  0.101228  0.113289  0.000508  1.044347  0.0
H  H87  1  0.72231347  0.73773540  0.98838617  1  0.083663  0.00095  0.101221  0.113291  0.000508  1.044331  0.0
H  H88  1  0.97035294  0.75388074  0.84970894  1  0.087425  0.000195  0.104027  0.109231  1.1e-05  0.999013  0.0
H  H89  1  0.52964775  0.24612253  0.34970792  1  0.087328  0.000195  0.104012  0.109205  1.1e-05  0.999012  0.0
H  H90  1  0.02964507  0.24612111  0.15029215  1  0.087365  0.000195  0.104023  0.109217  1.1e-05  0.999007  0.0
H  H91  1  0.47035201  0.75387726  0.65029046  1  0.087426  0.000195  0.104014  0.109197  1.1e-05  0.998961  0.0
H  H92  1  0.97558516  0.63945237  0.80169279  1  0.10852  1e-06  0.102457  0.117197  -2.7e-05  1.027945  0.0
H  H93  1  0.52441018  0.36055048  0.30169249  1  0.108497  1e-06  0.10243  0.117184  -2.7e-05  1.02794  0.0
H  H94  1  0.02441207  0.36054947  0.19830785  1  0.108505  1e-06  0.102434  0.117184  -2.7e-05  1.027928  0.0
H  H95  1  0.47558741  0.63944982  0.69830815  1  0.108485  1e-06  0.102436  0.117185  -2.7e-05  1.027893  0.0
H  H96  1  0.27162830  0.72352460  0.72063510  1  0.081398  0.000199  0.101778  0.115943  7.6e-05  1.0259  0.0
H  H97  1  0.22837124  0.27647515  0.22063429  1  0.081372  0.000199  0.101785  0.11599  7.6e-05  1.025886  0.0
H  H98  1  0.72836907  0.27647776  0.27936554  1  0.08132  0.000199  0.101775  0.115918  7.6e-05  1.025892  0.0
H  H99  1  0.77162726  0.72352567  0.77936681  1  0.081415  0.000199  0.101787  0.115969  7.6e-05  1.025924  0.0
H  H100  1  0.26137950  0.83814638  0.76515058  1  0.069008  4.6e-05  0.104547  0.107985  -2.7e-05  0.992276  0.0
H  H101  1  0.23862246  0.16185429  0.26515085  1  0.069049  4.6e-05  0.10456  0.107986  -2.7e-05  0.992244  0.0
H  H102  1  0.73861724  0.16185649  0.23484960  1  0.069017  4.6e-05  0.104544  0.107967  -2.7e-05  0.992274  0.0
H  H103  1  0.76137847  0.83814705  0.73484707  1  0.069034  4.6e-05  0.104566  0.107992  -2.7e-05  0.992224  0.0
H  H104  1  0.22800543  0.51272121  0.76163981  1  0.090854  7e-06  0.111372  0.129589  -5.5e-05  0.996013  0.0
H  H105  1  0.27199839  0.48728359  0.26163997  1  0.090787  7e-06  0.111462  0.12969  -5.5e-05  0.99609  0.0
H  H106  1  0.77199700  0.48728579  0.23835631  1  0.090634  7e-06  0.111408  0.129644  -5.5e-05  0.996183  0.0
H  H107  1  0.72800606  0.51272238  0.73836158  1  0.090903  7e-06  0.111346  0.129576  -5.5e-05  0.996048  0.0
H  H108  1  0.35943563  0.47439899  0.69224272  1  0.101943  0.000329  0.111251  0.118925  0.00012  0.986569  0.0
H  H109  1  0.14057205  0.52560805  0.19224159  1  0.101697  0.00033  0.111228  0.118888  0.00012  0.98662  0.0
H  H110  1  0.64056784  0.52560905  0.30775340  1  0.101773  0.00033  0.111192  0.118822  0.00012  0.986576  0.0
H  H111  1  0.85943873  0.47440154  0.80775770  1  0.102026  0.000329  0.111255  0.118944  0.00012  0.986594  0.0
H  H112  1  0.31317600  0.62990107  0.56372188  1  0.137977  -1.4e-05  0.107141  0.121364  -0.00015  1.029058  0.0
H  H113  1  0.18682133  0.37010318  0.06372322  1  0.138134  -1.5e-05  0.107186  0.12143  -0.00015  1.029049  0.0
H  H114  1  0.68682286  0.37010695  0.43627424  1  0.138295  -1.5e-05  0.107176  0.121426  -0.00015  1.029045  0.0
H  H115  1  0.81317942  0.62990331  0.93627833  1  0.137945  -1.4e-05  0.107139  0.121389  -0.00015  1.028999  0.0
H  H116  1  0.18068108  0.66706932  0.63216203  1  0.078707  9.7e-05  0.095334  0.103812  -1e-05  1.06511  0.0
H  H117  1  0.31931583  0.33293115  0.13216284  1  0.078779  9.7e-05  0.095321  0.103832  -1e-05  1.064973  0.0
H  H118  1  0.81931863  0.33293613  0.36783500  1  0.078884  9.7e-05  0.09536  0.103879  -1e-05  1.064888  0.0
H  H119  1  0.68068231  0.66707121  0.86783780  1  0.078957  9.7e-05  0.095324  0.103865  -1e-05  1.065037  0.0
H  H120  1  0.03509517  0.03121227  0.81011965  1  0.118666  0.000124  0.10909  0.121152  -9.5e-05  1.005056  0.0
H  H121  1  0.46490569  0.96878469  0.31011883  1  0.11822  0.000124  0.109126  0.121233  -9.5e-05  1.005049  0.0
H  H122  1  0.96490545  0.96878495  0.18988370  1  0.118704  0.000124  0.109112  0.121239  -9.5e-05  1.005056  0.0
H  H123  1  0.53509353  0.03121304  0.68988226  1  0.11868  0.000124  0.10909  0.121178  -9.5e-05  1.005082  0.0
H  H124  1  0.02385332  0.08973036  0.71007319  1  0.082118  0.00018  0.106116  0.119034  0.000108  0.993705  0.0
H  H125  1  0.47614517  0.91026529  0.21007336  1  0.082229  0.00018  0.106115  0.119004  0.000109  0.993599  0.0
H  H126  1  0.97614766  0.91026531  0.28992881  1  0.082113  0.00018  0.106101  0.118997  0.000109  0.993702  0.0
H  H127  1  0.52385328  0.08973244  0.78992863  1  0.082177  0.00018  0.106119  0.119022  0.000109  0.993702  0.0
H  H128  1  0.92899478  0.26207716  0.80064897  1  0.10342  0.000178  0.111392  0.1296  7.4e-05  0.993102  0.0
H  H129  1  0.57100224  0.73791747  0.30065072  1  0.103312  0.000178  0.111376  0.129568  7.4e-05  0.993097  0.0
H  H130  1  0.07100814  0.73792007  0.19935031  1  0.103438  0.000178  0.111372  0.129557  7.4e-05  0.993076  0.0
H  H131  1  0.42899233  0.26207716  0.69935127  1  0.103388  0.000178  0.111377  0.129589  7.4e-05  0.993098  0.0
H  H132  1  0.93757324  0.20314033  0.89957538  1  0.109402  0.000302  0.103767  0.109332  8e-06  1.020792  0.0
H  H133  1  0.56242565  0.79685664  0.39957479  1  0.109537  0.000302  0.103762  0.109285  8e-06  1.020878  0.0
H  H134  1  0.06242792  0.79685895  0.10042571  1  0.109411  0.000302  0.103761  0.109331  8e-06  1.020799  0.0
H  H135  1  0.43756856  0.20313954  0.60042540  1  0.109403  0.000302  0.103784  0.10937  8e-06  1.020727  0.0
H  H136  1  0.99453229  0.28537728  0.60230146  1  0.110077  -3e-06  0.094123  0.100769  -2.5e-05  1.044645  0.0
H  H137  1  0.50546790  0.71462145  0.10229608  1  0.110009  -3e-06  0.094117  0.100735  -2.5e-05  1.044667  0.0
H  H138  1  0.00546585  0.71461634  0.39770190  1  0.110252  -2e-06  0.094135  0.10079  -2.5e-05  1.044676  0.0
H  H139  1  0.49453556  0.28537784  0.89769778  1  0.110091  -3e-06  0.094138  0.100783  -2.5e-05  1.044594  0.0
H  H140  1  0.85856242  0.34597751  0.55736842  1  0.087624  0.000315  0.096183  0.093061  0.000156  1.029393  0.0
H  H141  1  0.64144023  0.65402132  0.05736437  1  0.087531  0.000315  0.096242  0.093186  0.000155  1.029381  0.0
H  H142  1  0.14143996  0.65401765  0.44263403  1  0.087599  0.000315  0.096242  0.093138  0.000155  1.029403  0.0
H  H143  1  0.35856401  0.34597796  0.94263085  1  0.087754  0.000315  0.096212  0.093092  0.000156  1.029379  0.0
H  H144  1  0.64628712  0.26629664  0.69889393  1  0.105979  0.000379  0.100283  0.103682  0.000219  1.028958  0.0
H  H145  1  0.85371504  0.73370185  0.19888908  1  0.106024  0.00038  0.100227  0.103636  0.000219  1.028986  0.0
H  H146  1  0.35371553  0.73369956  0.30111078  1  0.106002  0.00038  0.100242  0.10364  0.000219  1.028978  0.0
H  H147  1  0.14629164  0.26629795  0.80110478  1  0.106019  0.000379  0.10023  0.103565  0.000219  1.029033  0.0
H  H148  1  0.77752850  0.20222196  0.74179606  1  0.080278  3.7e-05  0.103991  0.119208  8e-06  1.014308  0.0
H  H149  1  0.72247311  0.79777487  0.24179350  1  0.080381  3.7e-05  0.10397  0.119169  8e-06  1.014346  0.0
H  H150  1  0.22247325  0.79777371  0.25820549  1  0.080375  3.7e-05  0.103977  0.119186  8e-06  1.014349  0.0
H  H151  1  0.27753429  0.20222184  0.75820353  1  0.080234  3.7e-05  0.103979  0.119194  8e-06  1.014323  0.0
C  C152  1  0.74702012  0.97088787  0.48628337  1  0.519729  -0.005712  0.038071  0.090626  -0.005992  3.976504  -0.003
C  C153  1  0.75297923  0.02910888  0.98628353  1  0.519733  -0.00571  0.038147  0.090705  -0.005989  3.976579  -0.003
C  C154  1  0.25297296  0.02910985  0.51371772  1  0.519585  -0.005709  0.038142  0.090696  -0.005989  3.976446  -0.003
C  C155  1  0.24702021  0.97088679  0.01371666  1  0.5187  -0.00571  0.038049  0.090598  -0.00599  3.976608  -0.003
C  C156  1  0.84380961  0.00853200  0.47223672  1  -0.093054  0.003064  -0.088066  -0.174946  0.001233  3.9749  0.003
C  C157  1  0.65619147  0.99146531  0.97223720  1  -0.092913  0.003063  -0.088102  -0.175076  0.001233  3.975029  0.003
C  C158  1  0.15618424  0.99146573  0.52776392  1  -0.092613  0.003064  -0.088072  -0.175131  0.001233  3.97491  0.003
C  C159  1  0.34380784  0.00852985  0.02776389  1  -0.092893  0.003064  -0.088035  -0.174963  0.001233  3.974891  0.003
C  C160  1  0.89208357  0.06035093  0.51179084  1  0.015797  -0.009537  0.002746  0.11402  -0.01015  4.043221  -0.006
C  C161  1  0.60791613  0.93964493  0.01179132  1  0.015659  -0.009535  0.002724  0.114065  -0.010148  4.043053  -0.006
C  C162  1  0.10791218  0.93964525  0.48820844  1  0.01549  -0.009534  0.0027  0.114064  -0.010147  4.043022  -0.006
C  C163  1  0.39208459  0.06034972  0.98820932  1  0.015478  -0.009537  0.002738  0.114033  -0.010149  4.043188  -0.006
C  C164  1  0.83755158  0.06960232  0.56528491  1  -0.062461  0.002773  -0.091346  -0.183329  0.001057  3.929316  0.003
C  C165  1  0.66245000  0.93039546  0.06528536  1  -0.06232  0.002772  -0.091246  -0.183293  0.001057  3.929178  0.003
C  C166  1  0.16244471  0.93039592  0.43471618  1  -0.062483  0.002773  -0.091272  -0.183305  0.001057  3.929395  0.003
C  C167  1  0.33755355  0.06960125  0.93471618  1  -0.062428  0.002773  -0.09133  -0.183321  0.001057  3.929306  0.003
C  C168  1  0.74059047  0.02960035  0.57603956  1  0.491473  -0.005777  0.047905  0.112748  -0.006278  3.934152  -0.004
C  C169  1  0.75941121  0.97039793  0.07603894  1  0.491421  -0.005776  0.047872  0.112762  -0.006277  3.934246  -0.004
C  C170  1  0.25940852  0.97039944  0.42396244  1  0.491553  -0.005777  0.047941  0.112839  -0.006278  3.934548  -0.004
C  C171  1  0.24059031  0.02959981  0.92396080  1  0.491686  -0.005778  0.047896  0.112746  -0.006279  3.934153  -0.004
C  C172  1  0.99259345  0.10122896  0.49687091  1  -0.237917  -0.00437  -0.016054  -0.026104  -0.004639  4.01095  -0.002
C  C173  1  0.50740610  0.89876571  0.99687214  1  -0.238139  -0.00437  -0.016069  -0.026123  -0.004639  4.010845  -0.002
C  C174  1  0.00740098  0.89876516  0.50312793  1  -0.238292  -0.004371  -0.016035  -0.02614  -0.00464  4.010773  -0.002
C  C175  1  0.49259421  0.10122739  0.00312895  1  -0.237925  -0.004369  -0.016054  -0.0261  -0.004638  4.010973  -0.002
C  C176  1  0.04597018  0.10367172  0.44229160  1  0.110778  -0.002282  -0.095835  -0.131399  -0.002473  4.014019  -0.001
C  C177  1  0.45402800  0.89632233  0.94229285  1  0.11085  -0.002281  -0.095758  -0.131251  -0.002472  4.013888  -0.001
C  C178  1  0.95402294  0.89632034  0.55770724  1  0.110997  -0.00228  -0.095726  -0.13114  -0.002471  4.013728  -0.001
C  C179  1  0.54596973  0.10366973  0.05770869  1  0.110761  -0.002282  -0.095836  -0.131353  -0.002473  4.013898  -0.001
C  C180  1  0.14162132  0.14941532  0.44269815  1  -0.03993  -0.004562  -0.092946  -0.122904  -0.004781  3.988161  -0.003
C  C181  1  0.35837777  0.85057925  0.94269867  1  -0.039853  -0.004563  -0.09302  -0.122959  -0.004781  3.988187  -0.003
C  C182  1  0.85837285  0.85057777  0.55730114  1  -0.039646  -0.004564  -0.093071  -0.122908  -0.004782  3.987972  -0.003
C  C183  1  0.64162163  0.14941333  0.05730243  1  -0.039794  -0.004562  -0.092955  -0.12292  -0.00478  3.988285  -0.003
C  C184  1  0.16313364  0.18291250  0.49772065  1  -0.188626  -0.001454  -0.012176  -0.023193  -0.001736  4.01136  0.0
C  C185  1  0.33686603  0.81708194  0.99772035  1  -0.188986  -0.001453  -0.012143  -0.023144  -0.001735  4.011174  0.0
C  C186  1  0.83686080  0.81708162  0.50227863  1  -0.188522  -0.001452  -0.012129  -0.023178  -0.001734  4.010936  0.0
C  C187  1  0.66313400  0.18291013  0.00228029  1  -0.188636  -0.001454  -0.012171  -0.02324  -0.001736  4.011514  0.0
C  C188  1  0.25277797  0.23492873  0.51300730  1  -0.061828  -0.013883  0.001045  0.108379  -0.014676  4.049045  -0.009
C  C189  1  0.24721927  0.76506586  0.01300748  1  -0.062012  -0.013883  0.001086  0.108279  -0.014677  4.048953  -0.009
C  C190  1  0.74721647  0.76506539  0.48699109  1  -0.062355  -0.013884  0.001096  0.108282  -0.014678  4.048933  -0.009
C  C191  1  0.75277950  0.23492723  0.98699316  1  -0.061749  -0.013882  0.001019  0.108311  -0.014676  4.049017  -0.009
C  C192  1  0.34149166  0.24556530  0.47558562  1  -0.011697  0.004883  -0.081762  -0.159617  0.002113  3.905985  0.004
C  C193  1  0.15850646  0.75443176  0.97558333  1  -0.011657  0.004886  -0.081613  -0.159356  0.002115  3.905611  0.004
C  C194  1  0.65850282  0.75443190  0.52441457  1  -0.011359  0.004886  -0.081679  -0.159419  0.002115  3.9058  0.004
C  C195  1  0.84149272  0.24556288  0.02441505  1  -0.011685  0.004884  -0.081685  -0.159468  0.002114  3.905865  0.004
C  C196  1  0.42430778  0.29752216  0.48926245  1  0.471237  -0.010075  0.048956  0.104603  -0.01066  3.936797  -0.006
C  C197  1  0.07568659  0.70247538  0.98926122  1  0.471194  -0.010075  0.048702  0.104224  -0.010661  3.936933  -0.006
C  C198  1  0.57568453  0.70247556  0.51073729  1  0.471279  -0.010076  0.048769  0.104486  -0.010662  3.936721  -0.006
C  C199  1  0.92430685  0.29752080  0.01073806  1  0.471282  -0.010074  0.048861  0.104443  -0.01066  3.93699  -0.006
C  C200  1  0.34212897  0.32797181  0.57490500  1  0.459514  -0.00861  0.044004  0.097971  -0.009202  3.95731  -0.005
C  C201  1  0.15786398  0.67202469  0.07490677  1  0.459074  -0.008612  0.044051  0.097972  -0.009204  3.957618  -0.005
C  C202  1  0.65786600  0.67202437  0.42509157  1  0.458668  -0.008612  0.044023  0.097911  -0.009205  3.95751  -0.005
C  C203  1  0.84212702  0.32797097  0.92509567  1  0.459588  -0.008608  0.043996  0.097995  -0.009201  3.957196  -0.005
C  C204  1  0.25554621  0.27746554  0.56431046  1  -0.038023  0.004897  -0.094714  -0.196472  0.002203  3.968219  0.004
C  C205  1  0.24444881  0.72252995  0.06431071  1  -0.03758  0.004898  -0.094687  -0.196381  0.002203  3.96836  0.004
C  C206  1  0.74444863  0.72253013  0.43568792  1  -0.037466  0.004898  -0.09472  -0.196399  0.002203  3.96842  0.004
C  C207  1  0.75554589  0.27746520  0.93568993  1  -0.03802  0.004897  -0.094653  -0.196348  0.002203  3.968132  0.004
C  C208  1  0.75260350  0.51817678  0.52659608  1  0.489267  -0.009522  0.044856  0.104673  -0.010278  3.943753  -0.006
C  C209  1  0.74739808  0.48182933  0.02659988  1  0.489147  -0.009523  0.044899  0.104847  -0.010277  3.943659  -0.006
C  C210  1  0.24739789  0.48182919  0.47340095  1  0.489211  -0.009521  0.044963  0.104995  -0.010276  3.943582  -0.006
C  C211  1  0.25260497  0.51817715  0.97340302  1  0.489596  -0.009522  0.044896  0.104743  -0.010277  3.943756  -0.006
C  C212  1  0.83346530  0.57340996  0.53481045  1  -0.01555  0.004924  -0.092364  -0.18618  0.002202  3.95184  0.004
C  C213  1  0.66654099  0.42659666  0.03481578  1  -0.015023  0.004924  -0.092479  -0.186425  0.002201  3.95198  0.004
C  C214  1  0.16653726  0.42659756  0.46518612  1  -0.015397  0.004924  -0.092557  -0.186592  0.002201  3.951927  0.004
C  C215  1  0.33346703  0.57340829  0.96518938  1  -0.015415  0.004923  -0.092436  -0.1863  0.002201  3.951834  0.004
C  C216  1  0.83242722  0.61714716  0.58497233  1  -0.025161  -0.013892  0.003364  0.114793  -0.014716  4.045274  -0.009
C  C217  1  0.66757863  0.38285831  0.08497773  1  -0.025155  -0.013895  0.003348  0.115029  -0.014719  4.04496  -0.009
C  C218  1  0.16757367  0.38285984  0.41502334  1  -0.025193  -0.013894  0.003344  0.11502  -0.014717  4.045024  -0.009
C  C219  1  0.33242863  0.61714664  0.91502743  1  -0.025079  -0.013894  0.003306  0.114826  -0.014718  4.045215  -0.009
C  C220  1  0.74639111  0.60160681  0.62408470  1  -0.020844  0.004691  -0.086332  -0.167132  0.002067  3.932397  0.004
C  C221  1  0.75361370  0.39839804  0.12408773  1  -0.021901  0.004691  -0.086293  -0.167204  0.002067  3.932114  0.004
C  C222  1  0.25360847  0.39839813  0.37591233  1  -0.021671  0.004691  -0.086288  -0.167166  0.002067  3.932236  0.004
C  C223  1  0.24639139  0.60160742  0.87591607  1  -0.020752  0.004691  -0.086342  -0.167162  0.002067  3.932499  0.004
C  C224  1  0.66915444  0.54544732  0.61266334  1  0.513381  -0.008804  0.044933  0.099  -0.009245  3.949225  -0.006
C  C225  1  0.83084914  0.45455859  0.11266756  1  0.512878  -0.008807  0.044807  0.098856  -0.00925  3.949008  -0.006
C  C226  1  0.33084500  0.45455710  0.38733188  1  0.512809  -0.008805  0.044816  0.098966  -0.009248  3.949013  -0.006
C  C227  1  0.16915446  0.54544996  0.88733669  1  0.513667  -0.008804  0.044925  0.099027  -0.009246  3.949375  -0.006
C  C228  1  0.91556522  0.67446716  0.59824794  1  -0.167625  -0.000592  -0.012237  -0.01525  -0.000945  3.99284  0.0
C  C229  1  0.58443968  0.32553776  0.09825171  1  -0.167496  -0.000592  -0.012212  -0.015365  -0.000946  3.993212  0.0
C  C230  1  0.08443477  0.32553933  0.40174954  1  -0.167507  -0.000591  -0.012212  -0.015317  -0.000945  3.992986  0.0
C  C231  1  0.41556794  0.67446565  0.90175029  1  -0.167701  -0.000592  -0.012185  -0.015257  -0.000945  3.992757  0.0
C  C232  1  0.92678407  0.71609138  0.64936947  1  -0.030403  -0.005363  -0.098039  -0.128784  -0.005565  3.991126  -0.003
C  C233  1  0.57322129  0.28391290  0.14937287  1  -0.031003  -0.005364  -0.098039  -0.128775  -0.005566  3.991234  -0.003
C  C234  1  0.07321859  0.28391356  0.35062846  1  -0.030664  -0.005364  -0.098061  -0.128894  -0.005565  3.99121  -0.003
C  C235  1  0.42678633  0.71609051  0.85062868  1  -0.030416  -0.005364  -0.098025  -0.128788  -0.005565  3.991226  -0.003
C  C236  1  0.01883026  0.76536806  0.64942725  1  0.031929  -0.000922  -0.097726  -0.135791  -0.001083  4.012057  0.0
C  C237  1  0.48117661  0.23463548  0.14942988  1  0.031997  -0.000922  -0.097554  -0.135498  -0.001083  4.011937  0.0
C  C238  1  0.98117442  0.23463585  0.35057294  1  0.031961  -0.000922  -0.09765  -0.135633  -0.001083  4.011859  0.0
C  C239  1  0.51883087  0.76536741  0.85057121  1  0.031951  -0.000923  -0.097702  -0.135727  -0.001083  4.012132  0.0
C  C240  1  0.07989425  0.76230569  0.59837885  1  -0.193765  -0.005403  -0.013591  -0.022388  -0.005672  4.001691  -0.003
C  C241  1  0.42011072  0.23769591  0.09838108  1  -0.193582  -0.005405  -0.013758  -0.022686  -0.005674  4.001918  -0.003
C  C242  1  0.92010822  0.23769564  0.40162179  1  -0.193554  -0.005404  -0.013703  -0.022557  -0.005674  4.001689  -0.003
C  C243  1  0.57989559  0.76230544  0.90162001  1  -0.193858  -0.005404  -0.01362  -0.022438  -0.005673  4.001802  -0.003
C  C244  1  0.18157007  0.80267072  0.58483198  1  -0.067182  -0.006596  -0.000219  0.10619  -0.007009  4.052076  -0.004
C  C245  1  0.31843441  0.19732885  0.08483347  1  -0.067142  -0.006598  -0.000229  0.106224  -0.007011  4.052026  -0.004
C  C246  1  0.81843186  0.19732856  0.41516866  1  -0.067235  -0.006596  -0.0002  0.106203  -0.007009  4.052102  -0.004
C  C247  1  0.68157059  0.80267043  0.91516717  1  -0.067026  -0.006597  -0.000252  0.106181  -0.00701  4.052119  -0.004
C  C248  1  0.22198989  0.86199644  0.61848946  1  -0.024196  0.002322  -0.086159  -0.174156  0.000994  3.943214  0.002
C  C249  1  0.27801190  0.13800201  0.11849199  1  -0.024272  0.002322  -0.086272  -0.174365  0.000994  3.943318  0.002
C  C250  1  0.77801141  0.13800335  0.38151028  1  -0.024226  0.002322  -0.086235  -0.174282  0.000994  3.943282  0.002
C  C251  1  0.72199052  0.86199624  0.88150956  1  -0.024239  0.002322  -0.086196  -0.174238  0.000994  3.943289  0.002
C  C252  1  0.31928363  0.89942232  0.60412165  1  0.440679  -0.004348  0.042645  0.091992  -0.004957  3.96623  -0.003
C  C253  1  0.18071835  0.10057669  0.10412298  1  0.440686  -0.004348  0.042686  0.092141  -0.004957  3.966263  -0.003
C  C254  1  0.68071767  0.10057748  0.39587809  1  0.440678  -0.004348  0.042671  0.092112  -0.004956  3.966216  -0.003
C  C255  1  0.81928421  0.89942207  0.89587812  1  0.440694  -0.004349  0.042679  0.092052  -0.004958  3.966294  -0.003
C  C256  1  0.34181668  0.82460952  0.52740161  1  0.47505  -0.003921  0.045488  0.103474  -0.004399  3.93606  -0.002
C  C257  1  0.15818786  0.17538968  0.02740239  1  0.474505  -0.003919  0.045494  0.103516  -0.0044  3.936124  -0.002
C  C258  1  0.65818588  0.17538925  0.47259812  1  0.475132  -0.003921  0.045533  0.103583  -0.004399  3.936019  -0.002
C  C259  1  0.84181456  0.82460857  0.97259825  1  0.475176  -0.003921  0.045439  0.103406  -0.0044  3.936028  -0.002
C  C260  1  0.24553053  0.78406603  0.53867901  1  0.021351  0.002325  -0.091278  -0.180234  0.000993  3.931695  0.002
C  C261  1  0.25447217  0.21593211  0.03868053  1  0.021322  0.002324  -0.091158  -0.179963  0.000993  3.931604  0.002
C  C262  1  0.75447204  0.21593273  0.46132073  1  0.021281  0.002324  -0.091244  -0.18015  0.000993  3.931717  0.002
C  C263  1  0.74552935  0.78406563  0.96132011  1  0.021311  0.002324  -0.091244  -0.180172  0.000993  3.931656  0.002
C  C264  1  0.11183559  0.87175582  0.83953166  1  1.570687  0.000853  0.194724  0.566414  0.000479  4.25186  0.001
C  C265  1  0.38816512  0.12824673  0.33953230  1  1.570675  0.000851  0.194659  0.566246  0.000478  4.251948  0.001
C  C266  1  0.88816345  0.12824706  0.16046717  1  1.570672  0.000851  0.19471  0.566428  0.000478  4.25181  0.001
C  C267  1  0.61183438  0.87175203  0.66046654  1  1.570609  0.000851  0.194696  0.566402  0.000478  4.251892  0.001
C  C268  1  0.11534152  0.80343235  0.81003313  1  -0.01911  0.007803  -0.032762  -0.068517  0.0041  4.006528  0.006
C  C269  1  0.38465839  0.19656975  0.31003411  1  -0.018813  0.007802  -0.032706  -0.068367  0.004099  4.006354  0.006
C  C270  1  0.88465418  0.19656949  0.18996615  1  -0.019258  0.007802  -0.032823  -0.068627  0.004099  4.006714  0.006
C  C271  1  0.61534088  0.80343106  0.68996427  1  -0.018903  0.007801  -0.032767  -0.068549  0.004099  4.006409  0.006
C  C272  1  0.03496201  0.74700678  0.82034184  1  0.007842  0.000347  -0.084741  -0.071806  -4.7e-05  3.985965  0.0
C  C273  1  0.46503736  0.25299633  0.32034310  1  0.007649  0.000347  -0.08472  -0.07181  -4.7e-05  3.985931  0.0
C  C274  1  0.96503612  0.25299558  0.17965789  1  0.007773  0.000347  -0.084736  -0.071809  -4.7e-05  3.985999  0.0
C  C275  1  0.53496177  0.74700398  0.67965709  1  0.007521  0.000348  -0.084714  -0.071755  -4.7e-05  3.985794  0.0
C  C276  1  0.03765300  0.68344722  0.79413659  1  -0.052514  -0.000191  -0.103496  -0.197375  -0.000261  3.987798  0.0
C  C277  1  0.46234416  0.31655595  0.29413775  1  -0.052441  -0.000191  -0.103495  -0.19741  -0.000261  3.987873  0.0
C  C278  1  0.96234437  0.31655514  0.20586360  1  -0.052448  -0.000191  -0.103501  -0.197387  -0.000261  3.987927  0.0
C  C279  1  0.53765357  0.68344487  0.70586334  1  -0.052435  -0.000191  -0.103497  -0.197402  -0.000261  3.987732  0.0
C  C280  1  0.12340577  0.67483068  0.75862476  1  0.331713  0.000834  0.085312  0.259163  0.000393  4.047414  0.0
C  C281  1  0.37658944  0.32517051  0.25862553  1  0.3317  0.000833  0.085222  0.259121  0.000393  4.047401  0.0
C  C282  1  0.87659096  0.32517219  0.24137407  1  0.331521  0.000834  0.08528  0.259177  0.000393  4.047548  0.0
C  C283  1  0.62340843  0.67483082  0.74137646  1  0.331693  0.000834  0.085326  0.259251  0.000393  4.047414  0.0
C  C284  1  0.20488089  0.73008176  0.74820943  1  -0.011282  0.001191  -0.112059  -0.231518  0.000631  4.030737  0.001
C  C285  1  0.29511769  0.26992049  0.24820946  1  -0.011292  0.001191  -0.112084  -0.231634  0.000631  4.030786  0.001
C  C286  1  0.79511584  0.26992111  0.25179076  1  -0.011251  0.001191  -0.112032  -0.23147  0.000631  4.030692  0.001
C  C287  1  0.70488017  0.73008084  0.75179072  1  -0.011306  0.001191  -0.112112  -0.231667  0.000631  4.030894  0.001
C  C288  1  0.19926135  0.79426601  0.77337460  1  -0.063547  0.002203  -0.08675  -0.082  0.001057  4.015638  0.001
C  C289  1  0.30073918  0.20573515  0.27337564  1  -0.063525  0.002202  -0.086755  -0.081948  0.001057  4.015493  0.001
C  C290  1  0.80073665  0.20573583  0.22662469  1  -0.063185  0.002203  -0.086722  -0.081926  0.001057  4.015762  0.001
C  C291  1  0.69925946  0.79426618  0.72662365  1  -0.063483  0.002203  -0.086776  -0.081948  0.001057  4.015447  0.001
C  C292  1  0.19876269  0.59237596  0.70071876  1  0.376318  -0.000569  0.084965  0.259535  -0.000683  4.037455  0.0
C  C293  1  0.30123773  0.40762693  0.20071812  1  0.376396  -0.000568  0.084977  0.259559  -0.000682  4.037421  0.0
C  C294  1  0.80123766  0.40762898  0.29927962  1  0.375525  -0.00057  0.084917  0.259501  -0.000685  4.037376  0.0
C  C295  1  0.69876479  0.59237750  0.79928252  1  0.376043  -0.000571  0.085022  0.259612  -0.000685  4.037418  0.0
C  C296  1  0.24769243  0.53794460  0.71832422  1  -0.028636  0.000526  -0.098841  -0.197293  0.000203  3.987288  0.0
C  C297  1  0.25231258  0.46206134  0.21832399  1  -0.028698  0.000526  -0.098903  -0.197405  0.000203  3.98713  0.0
C  C298  1  0.75231153  0.46206241  0.28167145  1  -0.027993  0.000526  -0.098917  -0.197454  0.000203  3.987131  0.0
C  C299  1  0.74769522  0.53794567  0.78167665  1  -0.028668  0.000526  -0.098796  -0.197202  0.000203  3.987328  0.0
C  C300  1  0.32013826  0.51674995  0.67974503  1  -0.016412  0.000625  -0.081538  -0.071305  -8.8e-05  3.986514  0.0
C  C301  1  0.17986856  0.48325660  0.17974484  1  -0.016465  0.000627  -0.081559  -0.071249  -8.7e-05  3.986493  0.0
C  C302  1  0.67986597  0.48325808  0.32025109  1  -0.016259  0.000624  -0.081456  -0.071112  -8.8e-05  3.986404  0.0
C  C303  1  0.82014042  0.51675195  0.82025400  1  -0.017058  0.000624  -0.081641  -0.071463  -8.9e-05  3.986532  0.0
C  C304  1  0.34477399  0.54998932  0.62422455  1  -0.091773  0.008468  -0.028571  -0.069465  0.004342  4.011182  0.007
C  C305  1  0.15522968  0.45001633  0.12422352  1  -0.091021  0.008464  -0.028572  -0.069586  0.00434  4.011401  0.007
C  C306  1  0.65522794  0.45001871  0.37577338  1  -0.091499  0.008466  -0.028525  -0.069379  0.004341  4.011374  0.007
C  C307  1  0.84477762  0.54999170  0.87577666  1  -0.091178  0.008468  -0.028466  -0.069383  0.004342  4.011069  0.007
C  C308  1  0.29528045  0.60488875  0.60739621  1  -0.044192  -1.4e-05  -0.084391  -0.080082  -0.000364  3.960672  0.0
C  C309  1  0.20471853  0.39511642  0.10739477  1  -0.044355  -1.3e-05  -0.084496  -0.080282  -0.000364  3.960806  0.0
C  C310  1  0.70471931  0.39511979  0.39260218  1  -0.044294  -1.5e-05  -0.084512  -0.080459  -0.000365  3.961059  0.0
C  C311  1  0.79528389  0.60489058  0.89260361  1  -0.04454  -1.6e-05  -0.084438  -0.080144  -0.000366  3.960669  0.0
C  C312  1  0.22150419  0.62576646  0.64534647  1  0.040301  0.000756  -0.104851  -0.203078  0.000325  4.001793  0.001
C  C313  1  0.27849502  0.37423707  0.14534590  1  0.039841  0.000756  -0.104735  -0.202878  0.000325  4.00168  0.001
C  C314  1  0.77849579  0.37424002  0.35465282  1  0.04  0.000757  -0.104788  -0.20288  0.000325  4.001676  0.001
C  C315  1  0.72150686  0.62576787  0.85465383  1  0.040461  0.000757  -0.104738  -0.20305  0.000326  4.001757  0.001
C  C316  1  0.42106842  0.52530907  0.58307091  1  1.539693  0.00247  0.216295  0.572957  0.000959  4.202242  0.004
C  C317  1  0.07893164  0.47469410  0.08307444  1  1.540165  0.002472  0.216479  0.573299  0.000961  4.201678  0.004
C  C318  1  0.57892899  0.47469638  0.41692250  1  1.5401  0.002468  0.216361  0.573176  0.000957  4.201696  0.004
C  C319  1  0.92106934  0.52531032  0.91692936  1  1.539672  0.002465  0.216252  0.572804  0.000956  4.202449  0.004
C  C320  1  0.98507789  0.07696116  0.91934646  1  1.520829  -0.006879  0.218707  0.576119  -0.008092  4.192821  -0.002
C  C321  1  0.51492260  0.92303627  0.41934525  1  1.520748  -0.00688  0.218627  0.575987  -0.008093  4.192956  -0.002
C  C322  1  0.01492237  0.92303760  0.08065644  1  1.520586  -0.00688  0.21865  0.57604  -0.008092  4.192947  -0.002
C  C323  1  0.48507892  0.07696147  0.58065720  1  1.521161  -0.006884  0.218631  0.576051  -0.008091  4.193107  -0.002
C  C324  1  0.98424039  0.11310695  0.86067547  1  -0.001271  0.011912  -0.030411  -0.071693  0.005919  4.01829  0.01
C  C325  1  0.51576134  0.88689165  0.36067568  1  -0.001425  0.011911  -0.03033  -0.071387  0.005918  4.018051  0.01
C  C326  1  0.01575951  0.88689335  0.13932788  1  -0.0012  0.011911  -0.030326  -0.071497  0.005918  4.01811  0.01
C  C327  1  0.48424032  0.11310660  0.63932677  1  -0.001272  0.01191  -0.030374  -0.071576  0.005918  4.01821  0.01
C  C328  1  0.01047914  0.08125780  0.80749547  1  -0.020205  -0.003624  -0.08034  -0.066943  -0.004055  3.968909  -0.002
C  C329  1  0.48952041  0.91873711  0.30749472  1  -0.019316  -0.003625  -0.080468  -0.067278  -0.004056  3.96906  -0.002
C  C330  1  0.98951994  0.91873942  0.19250743  1  -0.020025  -0.003624  -0.080479  -0.067212  -0.004056  3.969123  -0.002
C  C331  1  0.51048043  0.08125805  0.69250637  1  -0.0199  -0.003625  -0.080367  -0.067057  -0.004056  3.968906  -0.002
C  C332  1  0.00455701  0.11342113  0.75209970  1  -0.00624  0.001847  -0.100201  -0.194947  0.000782  3.9958  0.001
C  C333  1  0.49544030  0.88657339  0.25209900  1  -0.006362  0.001847  -0.100104  -0.194727  0.000783  3.995688  0.001
C  C334  1  0.99544103  0.88657506  0.24790229  1  -0.006246  0.001847  -0.10005  -0.194729  0.000782  3.995738  0.001
C  C335  1  0.50455929  0.11342279  0.74790119  1  -0.00646  0.001847  -0.100189  -0.194903  0.000782  3.99576  0.001
C  C336  1  0.97242044  0.17738012  0.74980306  1  0.359048  -0.004848  0.086458  0.259917  -0.005266  4.042023  -0.003
C  C337  1  0.52757739  0.82261412  0.24980336  1  0.359205  -0.004849  0.086371  0.259809  -0.005267  4.042405  -0.003
C  C338  1  0.02757900  0.82261555  0.25019849  1  0.358847  -0.004849  0.086377  0.259826  -0.005267  4.04233  -0.003
C  C339  1  0.47242283  0.17738155  0.75019773  1  0.359232  -0.004849  0.08649  0.259953  -0.005267  4.042045  -0.003
C  C340  1  0.94927670  0.21086568  0.80255928  1  -0.011564  0.001904  -0.097275  -0.204639  0.000777  4.001964  0.001
C  C341  1  0.55072135  0.78912997  0.30255961  1  -0.011837  0.001905  -0.097295  -0.204672  0.000777  4.002038  0.001
C  C342  1  0.05072342  0.78913257  0.19744091  1  -0.011932  0.001904  -0.097289  -0.204677  0.000777  4.002155  0.001
C  C343  1  0.44927606  0.21086673  0.69744058  1  -0.011813  0.001905  -0.097302  -0.204681  0.000777  4.002013  0.001
C  C344  1  0.95515512  0.17820920  0.85783487  1  -0.069515  -0.00341  -0.081249  -0.066993  -0.003907  3.973238  -0.002
C  C345  1  0.54484468  0.82178786  0.35783606  1  -0.069442  -0.003412  -0.081252  -0.067008  -0.003909  3.973048  -0.002
C  C346  1  0.04484591  0.82178956  0.14216577  1  -0.069184  -0.00341  -0.081223  -0.066969  -0.003907  3.973065  -0.002
C  C347  1  0.45515287  0.17820935  0.64216549  1  -0.069215  -0.00341  -0.081243  -0.067036  -0.003907  3.973099  -0.002
C  C348  1  0.89446815  0.24122993  0.67466703  1  0.409648  -0.000579  0.083507  0.265151  -0.000718  4.042641  0.0
C  C349  1  0.60553188  0.75876604  0.17466419  1  0.409814  -0.000579  0.083551  0.265237  -0.000718  4.042579  0.0
C  C350  1  0.10553242  0.75876420  0.32533497  1  0.409828  -0.000579  0.083591  0.265324  -0.000718  4.04232  0.0
C  C351  1  0.39447181  0.24123118  0.82533419  1  0.409525  -0.000579  0.083549  0.265143  -0.000718  4.042562  0.0
C  C352  1  0.91776867  0.28160934  0.62283154  1  -0.050508  0.000415  -0.111935  -0.214014  0.000142  4.035513  0.0
C  C353  1  0.58223222  0.71838933  0.12282880  1  -0.051089  0.000415  -0.112019  -0.214058  0.000143  4.03537  0.0
C  C354  1  0.08223128  0.71838530  0.37717000  1  -0.051345  0.000415  -0.112014  -0.214161  0.000142  4.035405  0.0
C  C355  1  0.41777124  0.28160995  0.87716778  1  -0.050595  0.000415  -0.111992  -0.214066  0.000142  4.035529  0.0
C  C356  1  0.84220053  0.31474624  0.59801965  1  -0.04816  0.000935  -0.088412  -0.07719  0.000316  4.011853  0.001
C  C357  1  0.65780185  0.68525198  0.09801643  1  -0.047704  0.000935  -0.088429  -0.07734  0.000316  4.011866  0.001
C  C358  1  0.15780109  0.68524892  0.40198235  1  -0.047758  0.000934  -0.088432  -0.077241  0.000316  4.011878  0.001
C  C359  1  0.34220121  0.31474575  0.90197969  1  -0.048266  0.000934  -0.08838  -0.077125  0.000315  4.011894  0.001
C  C360  1  0.74396949  0.30965147  0.62528812  1  -0.054835  0.002918  -0.027442  -0.045715  0.001604  3.988095  0.002
C  C361  1  0.75603126  0.69034668  0.12528480  1  -0.054918  0.002917  -0.027374  -0.045526  0.001604  3.988025  0.002
C  C362  1  0.25603114  0.69034575  0.37471478  1  -0.054728  0.002917  -0.027357  -0.045526  0.001604  3.98797  0.002
C  C363  1  0.24397090  0.30965054  0.87471222  1  -0.054778  0.002917  -0.027402  -0.045764  0.001604  3.988305  0.002
C  C364  1  0.72256891  0.27012049  0.67777693  1  0.021871  0.000552  -0.082946  -0.060495  1.9e-05  3.971208  0.0
C  C365  1  0.77743165  0.72987754  0.17777307  1  0.022024  0.000552  -0.082867  -0.060556  2e-05  3.971057  0.0
C  C366  1  0.27743080  0.72987622  0.32222597  1  0.021611  0.000552  -0.082888  -0.060554  2e-05  3.971039  0.0
C  C367  1  0.22257128  0.27011968  0.82222260  1  0.021905  0.000552  -0.082901  -0.06031  1.9e-05  3.971236  0.0
C  C368  1  0.79641313  0.23464176  0.70213972  1  -0.068534  0.000379  -0.108231  -0.218301  0.000109  4.003558  0.0
C  C369  1  0.70358798  0.76535569  0.20213723  1  -0.068656  0.00038  -0.108263  -0.218263  0.000109  4.003539  0.0
C  C370  1  0.20358722  0.76535443  0.29786182  1  -0.068497  0.00038  -0.108328  -0.218347  0.000109  4.003467  0.0
C  C371  1  0.29641467  0.23464050  0.79785979  1  -0.068566  0.00038  -0.108265  -0.218362  0.000109  4.003507  0.0
C  C372  1  0.66534642  0.34644087  0.59769892  1  1.545864  -0.00489  0.188534  0.548064  -0.00655  4.228025  -0.006
C  C373  1  0.83465112  0.65355941  0.09769649  1  1.5458  -0.004889  0.1885  0.548023  -0.006549  4.228169  -0.006
C  C374  1  0.33465424  0.65355944  0.40230217  1  1.545852  -0.00489  0.188462  0.547966  -0.006549  4.228135  -0.006
C  C375  1  0.16534824  0.34643884  0.90230099  1  1.54581  -0.00489  0.188561  0.548086  -0.00655  4.227989  -0.006
S  S376  1  0.06349685  0.15627181  0.54876142  1  0.201491  -0.004144  0.088786  0.080224  -0.004494  2.907013  -0.003
S  S377  1  0.43649895  0.84372063  0.04876219  1  0.201862  -0.004144  0.088697  0.080091  -0.004494  2.907077  -0.003
S  S378  1  0.93649591  0.84372179  0.45123786  1  0.201444  -0.004144  0.088731  0.080142  -0.004494  2.907042  -0.003
S  S379  1  0.56349747  0.15626938  0.95123845  1  0.201587  -0.004144  0.088792  0.080232  -0.004494  2.907061  -0.003
S  S380  1  0.02008425  0.69821079  0.55001253  1  0.18641  -0.003178  0.096565  0.095438  -0.003506  2.892447  -0.002
S  S381  1  0.47992324  0.30179402  0.05001550  1  0.186412  -0.003179  0.096584  0.095487  -0.003507  2.892474  -0.002
S  S382  1  0.97991930  0.30179467  0.44998585  1  0.186346  -0.003178  0.096601  0.095513  -0.003507  2.892434  -0.002
S  S383  1  0.52008822  0.69820939  0.94998604  1  0.186348  -0.003179  0.096602  0.095487  -0.003507  2.892391  -0.002
N  N384  1  0.69394983  0.98128815  0.53687408  1  -1.215493  0.052926  -0.333745  -0.267143  0.028494  3.586817  0.045
N  N385  1  0.80604928  0.01870867  0.03687407  1  -1.215495  0.052926  -0.333718  -0.267072  0.028494  3.58689  0.045
N  N386  1  0.30604542  0.01870906  0.46312656  1  -1.215313  0.052925  -0.333747  -0.267104  0.028494  3.586906  0.045
N  N387  1  0.19395057  0.98128855  0.96312522  1  -1.215647  0.052926  -0.333724  -0.267073  0.028494  3.586768  0.045
N  N388  1  0.42545842  0.33906427  0.53770698  1  -1.198469  0.051509  -0.328975  -0.246447  0.027299  3.573285  0.048
N  N389  1  0.07453792  0.66093592  0.03770704  1  -1.198399  0.051513  -0.328958  -0.246351  0.027299  3.573439  0.048
N  N390  1  0.57453827  0.66093551  0.46229231  1  -1.198368  0.051516  -0.328971  -0.246416  0.027302  3.573225  0.048
N  N391  1  0.92545710  0.33906335  0.96229450  1  -1.198399  0.051509  -0.328896  -0.246307  0.027298  3.573095  0.048
N  N392  1  0.67066148  0.50373306  0.56449035  1  -1.218007  0.047846  -0.326808  -0.247037  0.025474  3.571875  0.045
N  N393  1  0.82934060  0.49627245  0.06449405  1  -1.217382  0.047844  -0.326762  -0.246996  0.025474  3.571881  0.045
N  N394  1  0.32933923  0.49627033  0.43550668  1  -1.217233  0.047842  -0.32676  -0.2471  0.025473  3.571837  0.045
N  N395  1  0.17066182  0.50373455  0.93550930  1  -1.218163  0.047845  -0.326812  -0.247099  0.025473  3.571803  0.045
N  N396  1  0.37886258  0.88222975  0.55882487  1  -1.196694  0.052145  -0.321236  -0.246712  0.02617  3.542574  0.049
N  N397  1  0.12113879  0.11776937  0.05882713  1  -1.196075  0.052145  -0.321262  -0.246862  0.026171  3.542659  0.049
N  N398  1  0.62113808  0.11777056  0.44117442  1  -1.196666  0.052146  -0.321281  -0.246844  0.02617  3.542633  0.049
N  N399  1  0.87886378  0.88222939  0.94117441  1  -1.196763  0.052146  -0.321231  -0.246717  0.026169  3.542559  0.049
O  O400  1  0.12222003  0.60829255  0.73901512  1  -1.102901  0.000508  -0.15226  -0.212271  0.000266  2.565136  0.0
O  O401  1  0.37777719  0.39171024  0.23901759  1  -1.102958  0.000508  -0.152193  -0.212288  0.000267  2.564999  0.0
O  O402  1  0.87777774  0.39171136  0.26097965  1  -1.102768  0.000507  -0.152194  -0.212302  0.000266  2.565203  0.0
O  O403  1  0.62221955  0.60829263  0.76098667  1  -1.102667  0.000507  -0.152325  -0.212377  0.000266  2.565058  0.0
O  O404  1  0.97254241  0.20662053  0.69304371  1  -1.105296  -0.000971  -0.156829  -0.225721  -0.000827  2.599505  -0.001
O  O405  1  0.52745381  0.79337281  0.19304406  1  -1.105465  -0.000971  -0.15678  -0.225667  -0.000827  2.599609  -0.001
O  O406  1  0.02745573  0.79337308  0.30695738  1  -1.105093  -0.000971  -0.156839  -0.225741  -0.000827  2.599524  -0.001
O  O407  1  0.47254780  0.20662235  0.80695568  1  -1.105432  -0.000971  -0.156853  -0.225682  -0.000827  2.599468  -0.001
O  O408  1  0.15290492  0.92703958  0.81556053  1  -1.172267  0.006912  -0.345422  -0.564788  0.002886  2.060046  0.005
O  O409  1  0.34709561  0.07296200  0.31555948  1  -1.172193  0.006912  -0.345359  -0.564713  0.002887  2.060061  0.005
O  O410  1  0.84709525  0.07296175  0.18443921  1  -1.172177  0.006912  -0.345365  -0.564751  0.002886  2.06002  0.005
O  O411  1  0.65290339  0.92703779  0.68443755  1  -1.172074  0.006913  -0.345344  -0.564705  0.002887  2.060056  0.005
O  O412  1  0.06177672  0.86425765  0.89081818  1  -1.137048  0.116459  -0.331853  -0.574127  0.059829  2.419236  0.095
O  O413  1  0.43822391  0.13574220  0.39081875  1  -1.137069  0.11645  -0.331865  -0.574084  0.059824  2.419218  0.095
O  O414  1  0.93821988  0.13574471  0.10918020  1  -1.137088  0.116449  -0.33187  -0.574118  0.059824  2.419183  0.095
O  O415  1  0.56177581  0.86425450  0.60917963  1  -1.137123  0.11646  -0.331879  -0.574184  0.059829  2.419191  0.095
O  O416  1  0.44869464  0.46824482  0.59683957  1  -1.152236  0.089259  -0.30457  -0.54629  0.047159  2.409306  0.074
O  O417  1  0.05131102  0.53175936  0.09684981  1  -1.152394  0.089272  -0.304623  -0.546403  0.047165  2.409039  0.074
O  O418  1  0.55130377  0.53175857  0.40314390  1  -1.152523  0.089258  -0.304548  -0.546292  0.047158  2.408887  0.074
O  O419  1  0.94869908  0.46824766  0.90315986  1  -1.152139  0.089251  -0.304543  -0.546206  0.047157  2.409329  0.074
O  O420  1  0.45530974  0.56187403  0.53767018  1  -1.171235  0.090395  -0.312235  -0.56973  0.047017  2.504826  0.074
O  O421  1  0.04467733  0.43813181  0.03767290  1  -1.171585  0.090399  -0.312366  -0.569912  0.047015  2.504598  0.074
O  O422  1  0.54468518  0.43813656  0.46232729  1  -1.171409  0.090403  -0.312286  -0.569883  0.047016  2.50476  0.074
O  O423  1  0.95530445  0.56187259  0.96233316  1  -1.17133  0.09041  -0.312252  -0.569668  0.047023  2.504828  0.074
O  O424  1  0.00004300  0.01491446  0.91815509  1  -1.176644  0.098352  -0.312186  -0.57896  0.051982  2.567804  0.079
O  O425  1  0.49995328  0.98508377  0.41815467  1  -1.176556  0.098356  -0.312208  -0.579029  0.051984  2.567663  0.079
O  O426  1  0.99995753  0.98508533  0.08184780  1  -1.176609  0.098355  -0.312187  -0.578992  0.051983  2.56792  0.079
O  O427  1  0.50004558  0.01491550  0.58184868  1  -1.176623  0.098345  -0.312148  -0.578958  0.051979  2.567899  0.079
O  O428  1  0.96721473  0.10898651  0.96736630  1  -1.14913  0.090543  -0.305611  -0.54485  0.047466  2.43817  0.073
O  O429  1  0.53279025  0.89101390  0.46736467  1  -1.149124  0.090541  -0.305552  -0.544749  0.047464  2.438198  0.073
O  O430  1  0.03278928  0.89101483  0.03263615  1  -1.149064  0.090544  -0.305579  -0.544814  0.047465  2.438102  0.073
O  O431  1  0.46721141  0.10898435  0.53263552  1  -1.149631  0.090555  -0.305601  -0.544849  0.047468  2.43817  0.073
O  O432  1  0.67158494  0.35965984  0.54086774  1  -1.165316  0.083279  -0.321595  -0.56778  0.043058  2.237136  0.072
O  O433  1  0.82841158  0.64034469  0.04086398  1  -1.165469  0.083276  -0.321538  -0.567772  0.043056  2.237171  0.072
O  O434  1  0.32841410  0.64034304  0.45913425  1  -1.165376  0.08328  -0.321581  -0.567786  0.043058  2.237154  0.072
O  O435  1  0.17158642  0.35965716  0.95913259  1  -1.165309  0.083277  -0.321602  -0.567789  0.043056  2.236991  0.072
O  O436  1  0.59479988  0.36616677  0.62977829  1  -1.140987  0.086091  -0.321186  -0.542785  0.044551  2.145682  0.074
O  O437  1  0.90519629  0.63383446  0.12977808  1  -1.140932  0.086101  -0.321222  -0.542817  0.044555  2.145632  0.074
O  O438  1  0.40520047  0.63383817  0.37021918  1  -1.14103  0.086095  -0.321138  -0.54272  0.04455  2.14556  0.074
O  O439  1  0.09480270  0.36616533  0.87022256  1  -1.140958  0.086086  -0.321229  -0.542813  0.044548  2.145611  0.074
