# generated using pymatgen
data_ZnH34C32(NO2)4
_symmetry_space_group_name_H-M   'P 1'
_cell_length_a   12.32364283
_cell_length_b   15.71333164
_cell_length_c   26.90303648
_cell_angle_alpha   76.59201797
_cell_angle_beta   80.10886508
_cell_angle_gamma   76.74115278
_symmetry_Int_Tables_number   1
_chemical_formula_structural   ZnH34C32(NO2)4
_chemical_formula_sum   'Zn6 H204 C192 N24 O48'
_cell_volume   4893.72438031
_cell_formula_units_Z   6
loop_
 _symmetry_equiv_pos_site_id
 _symmetry_equiv_pos_as_xyz
  1  'x, y, z'
loop_
 _atom_site_type_symbol
 _atom_site_label
 _atom_site_symmetry_multiplicity
 _atom_site_fract_x
 _atom_site_fract_y
 _atom_site_fract_z
 _atom_site_occupancy
 _atom_site_pbe_bader_charge
 _atom_site_pbe_bader_spin_density
 _atom_site_pbe_cm5_charge
 _atom_site_pbe_ddec_charge
 _atom_site_pbe_ddec_spin_density
 _atom_site_pbe_ddec_sum_bond_order
 _atom_site_pbe_magmom
Zn  Zn0  1  0.72289564  0.61141597  0.14627537  1  1.247402  0  0.69801  0.760425  0  2.395639  0
Zn  Zn1  1  0.27709824  0.38858448  0.85372214  1  1.247395  0  0.697973  0.760382  0  2.395842  0
Zn  Zn2  1  0.87032462  0.10096842  0.16977986  1  1.239496  0  0.687933  0.745806  0  2.436525  0
Zn  Zn3  1  0.12967467  0.89902996  0.83021788  1  1.239394  0  0.687913  0.745759  0  2.436593  0
Zn  Zn4  1  0.24269567  0.77601706  0.50011341  1  1.261597  0  0.674979  0.74326  0  2.33234  0
Zn  Zn5  1  0.75730088  0.22398601  0.49988540  1  1.26158  0  0.674987  0.74329  0  2.332294  0
H  H6  1  0.80965547  0.57202884  0.24756000  1  0.097463  0  0.110004  0.077689  0  1.026441  0
H  H7  1  0.19035246  0.42798204  0.75243841  1  0.097679  0  0.109961  0.077672  0  1.026211  0
H  H8  1  0.92268228  0.44676269  0.30150466  1  0.051015  0  0.103776  0.116172  0  1.033282  0
H  H9  1  0.07732541  0.55324553  0.69849560  1  0.05154  0  0.103807  0.116201  0  1.033284  0
H  H10  1  0.99737030  0.31396893  0.17067276  1  0.068822  0  0.105972  0.116445  0  1.06024  0
H  H11  1  0.00261348  0.68602496  0.82933121  1  0.069029  0  0.105933  0.116431  0  1.060412  0
H  H12  1  0.88494157  0.44682184  0.12269912  1  0.124053  0  0.12159  0.101995  0  0.991888  0
H  H13  1  0.11504273  0.55317338  0.87730464  1  0.124105  0  0.121612  0.102087  0  0.991716  0
H  H14  1  0.12498075  0.22682819  0.21421493  1  0.072646  0  0.113389  0.095566  0  0.97715  0
H  H15  1  0.87501199  0.77317690  0.78578762  1  0.072535  0  0.113358  0.095473  0  0.977139  0
H  H16  1  0.00410745  0.18077622  0.24024629  1  0.065135  0  0.10439  0.084893  0  0.992481  0
H  H17  1  0.99588595  0.81922951  0.75975724  1  0.065133  0  0.104346  0.08475  0  0.992526  0
H  H18  1  0.93828072  0.32487521  0.34116427  1  0.042663  0  0.110539  0.09224  0  1.00309  0
H  H19  1  0.06171521  0.67513051  0.65883572  1  0.042972  0  0.110559  0.09222  0  1.00297  0
H  H20  1  0.08602830  0.28401108  0.34031183  1  0.091982  0  0.107798  0.097706  0  1.005819  0
H  H21  1  0.91397048  0.71599989  0.65969134  1  0.092159  0  0.107811  0.097682  0  1.005817  0
H  H22  1  0.97374473  0.17656738  0.39435728  1  0.133715  0  0.116467  0.111171  0  1.004592  0
H  H23  1  0.02625636  0.82344422  0.60564786  1  0.133927  0  0.116518  0.111282  0  1.004593  0
H  H24  1  0.90377191  0.17787128  0.34213279  1  0.038755  0  0.098122  0.075404  0  1.008582  0
H  H25  1  0.09622790  0.82213500  0.65787464  1  0.038815  0  0.098062  0.075288  0  1.008617  0
H  H26  1  0.17269829  0.07981085  0.26935914  1  0.068052  0  0.114202  0.099754  0  0.97898  0
H  H27  1  0.82729597  0.92019818  0.73064650  1  0.068241  0  0.114264  0.09979  0  0.978841  0
H  H28  1  0.21587763  0.16309817  0.29120613  1  0.122506  0  0.108798  0.094483  0  1.036138  0
H  H29  1  0.78411600  0.83691022  0.70879629  1  0.122672  0  0.108785  0.094385  0  1.036307  0
H  H30  1  0.95940583  0.05035785  0.42699250  1  0.113014  0  0.106903  0.128033  0  1.065034  0
H  H31  1  0.04059273  0.94965046  0.57301216  1  0.113049  0  0.106885  0.12804  0  1.064891  0
H  H32  1  0.03587045  0.91843122  0.49005997  1  0.084899  0  0.115084  0.084188  0  1.024985  0
H  H33  1  0.96413168  0.08157240  0.50994280  1  0.08487  0  0.11508  0.084191  0  1.02508  0
H  H34  1  0.33524410  0.86760244  0.39501134  1  0.113521  0  0.112511  0.079886  0  1.032686  0
H  H35  1  0.66474368  0.13239612  0.60498278  1  0.11344  0  0.112493  0.079848  0  1.03274  0
H  H36  1  0.27651994  0.99871532  0.32791035  1  0.108877  0  0.109637  0.125742  0  1.032959  0
H  H37  1  0.72346945  0.00128320  0.67208664  1  0.108805  0  0.109637  0.125731  0  1.032866  0
H  H38  1  0.87608260  0.71159309  0.16940206  1  0.074011  0  0.113724  0.079692  0  0.992934  0
H  H39  1  0.12390663  0.28840609  0.83059560  1  0.074045  0  0.113747  0.079684  0  0.993036  0
H  H40  1  0.96813178  0.83549445  0.12702237  1  0.151992  0  0.107623  0.13376  0  1.066509  0
H  H41  1  0.03186412  0.16450063  0.87297829  1  0.151905  0  0.107623  0.133791  0  1.066399  0
H  H42  1  0.81976891  0.84199072  0.98980076  1  0.080627  0  0.10025  0.106252  0  1.077776  0
H  H43  1  0.18022032  0.15801908  0.01019884  1  0.080684  0  0.100263  0.106352  0  1.077631  0
H  H44  1  0.73467866  0.71814596  0.03933801  1  0.097668  0  0.113711  0.083046  0  1.028799  0
H  H45  1  0.26531246  0.28186650  0.96065848  1  0.097659  0  0.113722  0.083065  0  1.028763  0
H  H46  1  0.88148398  0.94203950  0.95834723  1  0.054093  0  0.11375  0.09871  0  0.992596  0
H  H47  1  0.11852175  0.05795946  0.04165106  1  0.054102  0  0.113766  0.098755  0  0.992504  0
H  H48  1  0.02993003  0.91220479  0.95230818  1  0.053609  0  0.104949  0.082764  0  1.005094  0
H  H49  1  0.97007729  0.08779081  0.04769080  1  0.053792  0  0.104922  0.082753  0  1.005032  0
H  H50  1  0.02654086  0.93644716  0.08937513  1  0.147006  0  0.118841  0.119496  0  1.01026  0
H  H51  1  0.97346797  0.06354910  0.91062216  1  0.146949  0  0.118879  0.119551  0  1.010223  0
H  H52  1  0.12265769  0.90818424  0.03496421  1  0.037578  0  0.101782  0.080287  0  0.989154  0
H  H53  1  0.87734807  0.09181472  0.96503259  1  0.038033  0  0.101778  0.080284  0  0.989157  0
H  H54  1  0.74141122  0.29255940  0.14181816  1  0.099284  0  0.118565  0.095765  0  0.998414  0
H  H55  1  0.25858303  0.70743242  0.85817712  1  0.099302  0  0.118596  0.095829  0  0.998513  0
H  H56  1  0.63621809  0.40995727  0.18798604  1  0.101446  0  0.104102  0.117692  0  1.068437  0
H  H57  1  0.36377658  0.59003986  0.81200962  1  0.101144  0  0.104091  0.117636  0  1.068343  0
H  H58  1  0.70170339  0.21917860  0.33072209  1  0.072937  0  0.104974  0.113936  0  1.048336  0
H  H59  1  0.29829818  0.78082772  0.66927591  1  0.0729  0  0.10498  0.113902  0  1.048261  0
H  H60  1  0.80356779  0.11114412  0.27728740  1  0.113131  0  0.113588  0.089435  0  1.029722  0
H  H61  1  0.19643266  0.88885621  0.72271334  1  0.113159  0  0.113626  0.08953  0  1.029779  0
H  H62  1  0.69389568  0.33187407  0.35638620  1  0.07518  0  0.114878  0.105042  0  0.983701  0
H  H63  1  0.30611264  0.66813554  0.64360417  1  0.075198  0  0.114845  0.104953  0  0.983696  0
H  H64  1  0.54551462  0.34200328  0.37043127  1  0.055664  0  0.108158  0.089082  0  0.998963  0
H  H65  1  0.45449307  0.65800165  0.62956385  1  0.055863  0  0.108169  0.08913  0  0.998936  0
H  H66  1  0.50945679  0.47292189  0.23583028  1  0.070672  0  0.116522  0.102024  0  0.972969  0
H  H67  1  0.49053694  0.52708986  0.76416759  1  0.070526  0  0.116494  0.102021  0  0.972988  0
H  H68  1  0.61028016  0.52210198  0.25215279  1  0.074497  0  0.104726  0.091033  0  1.015277  0
H  H69  1  0.38971135  0.47790515  0.74784512  1  0.074548  0  0.104765  0.091051  0  1.015287  0
H  H70  1  0.38920443  0.48345271  0.31758703  1  0.082828  0  0.109961  0.096294  0  0.979267  0
H  H71  1  0.61079653  0.51654894  0.68241386  1  0.082802  0  0.109949  0.096297  0  0.979201  0
H  H72  1  0.42465509  0.58867768  0.28578793  1  0.059657  0  0.111229  0.089  0  0.990271  0
H  H73  1  0.57534127  0.41132603  0.71421416  1  0.059788  0  0.111267  0.089044  0  0.990204  0
H  H74  1  0.61558784  0.44731914  0.40389708  1  0.088136  0  0.115551  0.105165  0  1.028783  0
H  H75  1  0.38442724  0.55268238  0.59609681  1  0.127216  0  0.115487  0.104973  0  1.028849  0
H  H76  1  0.68139364  0.49099031  0.34257971  1  0.042488  0  0.101249  0.073471  0  0.99067  0
H  H77  1  0.31861339  0.50902130  0.65741197  1  0.043108  0  0.101205  0.073226  0  0.990695  0
H  H78  1  0.30261383  0.63698913  0.34114242  1  0.099064  0  0.10852  0.119455  0  1.026139  0
H  H79  1  0.69738825  0.36301117  0.65885968  1  0.098933  0  0.10851  0.119437  0  1.026114  0
H  H80  1  0.21040505  0.73793080  0.39948276  1  0.111871  0  0.112892  0.078921  0  1.034735  0
H  H81  1  0.78959479  0.26206488  0.60052013  1  0.111987  0  0.112908  0.078957  0  1.034686  0
H  H82  1  0.45574918  0.64223971  0.49661561  1  0.086423  0  0.116599  0.082597  0  1.029605  0
H  H83  1  0.54424254  0.35775540  0.50338909  1  0.086302  0  0.11662  0.082656  0  1.029734  0
H  H84  1  0.56603403  0.53987135  0.44177177  1  0.039583  0  0.105734  0.11762  0  1.035736  0
H  H85  1  0.43396580  0.46012432  0.55823224  1  0.039614  0  0.105751  0.117613  0  1.035777  0
H  H86  1  0.78692027  0.19180746  0.06752735  1  0.103629  0  0.118138  0.094955  0  1.002025  0
H  H87  1  0.21307827  0.80819427  0.93246889  1  0.103685  0  0.118109  0.094945  0  1.001983  0
H  H88  1  0.67866113  0.15947227  0.00846930  1  0.123564  0  0.105937  0.122361  0  1.05979  0
H  H89  1  0.32134035  0.84052742  0.99152699  1  0.123678  0  0.105941  0.122406  0  1.059741  0
H  H90  1  0.63625498  0.91682659  0.12211028  1  0.112575  0  0.105459  0.129352  0  1.06  0
H  H91  1  0.36374405  0.08317645  0.87788760  1  0.112468  0  0.105485  0.129427  0  1.059966  0
H  H92  1  0.74782044  0.96038279  0.17435847  1  0.088128  0  0.117576  0.08933  0  0.990846  0
H  H93  1  0.25217898  0.03962225  0.82563763  1  0.087925  0  0.117575  0.089342  0  0.990858  0
H  H94  1  0.60158180  0.88146126  0.01448765  1  0.051572  0  0.101454  0.077566  0  1.014778  0
H  H95  1  0.39841264  0.11854382  0.98551106  1  0.051472  0  0.10147  0.077575  0  1.014744  0
H  H96  1  0.54894714  0.89412869  0.07848745  1  0.091757  0  0.118476  0.112079  0  1.007954  0
H  H97  1  0.45104677  0.10587506  0.92151259  1  0.091851  0  0.118463  0.112051  0  1.008101  0
H  H98  1  0.59791690  0.12391673  0.96729100  1  0.106491  0  0.115565  0.104472  0  1.028633  0
H  H99  1  0.40207636  0.87608638  0.03270731  1  0.106507  0  0.115578  0.104533  0  1.028466  0
H  H100  1  0.63202541  0.02048775  0.94699970  1  0.058998  0  0.104547  0.086499  0  0.979929  0
H  H101  1  0.36796602  0.97951604  0.05300015  1  0.058956  0  0.104545  0.086559  0  0.979817  0
H  H102  1  0.52890629  0.91571347  0.22203369  1  0.108752  0  0.104439  0.095465  0  1.056416  0
H  H103  1  0.47109370  0.08428888  0.77796607  1  0.108743  0  0.10444  0.095441  0  1.056379  0
H  H104  1  0.50168404  0.96847716  0.30358199  1  0.118377  0  0.109984  0.12863  0  1.006813  0
H  H105  1  0.49831947  0.03152780  0.69641716  1  0.118061  0  0.109922  0.128517  0  1.006939  0
H  H106  1  0.62623383  0.70113625  0.38287032  1  0.055294  0  0.099064  0.108687  0  1.036721  0
H  H107  1  0.37374929  0.29886433  0.61712947  1  0.055467  0  0.099044  0.108615  0  1.036777  0
H  H108  1  0.65232135  0.64755086  0.29960204  1  0.067323  0  0.098958  0.096864  0  1.032908  0
H  H109  1  0.34766335  0.35244637  0.70039881  1  0.067255  0  0.098923  0.096869  0  1.032964  0
H  H110  1  0.73045990  0.91957455  0.34888018  1  0.081199  0  0.106389  0.122138  0  1.013575  0
H  H111  1  0.26953987  0.08042513  0.65112070  1  0.081223  0  0.106394  0.122133  0  1.013547  0
H  H112  1  0.79685590  0.04059286  0.37391942  1  0.088054  0  0.104355  0.104878  0  1.00924  0
H  H113  1  0.20314689  0.95940813  0.62607920  1  0.087926  0  0.104359  0.104916  0  1.009251  0
H  H114  1  0.48530083  0.09925629  0.47057641  1  0.118612  0  0.107303  0.108803  0  1.0225  0
H  H115  1  0.51469802  0.90074410  0.52941999  1  0.118736  0  0.107304  0.108835  0  1.022512  0
H  H116  1  0.42092903  0.97234309  0.44891550  1  0.119505  0  0.109966  0.126477  0  1.0021  0
H  H117  1  0.57907238  0.02765327  0.55108160  1  0.119666  0  0.109907  0.126421  0  1.002093  0
H  H118  1  0.72473149  0.43625109  0.00804459  1  0.083859  0  0.109081  0.11237  0  0.989614  0
H  H119  1  0.27526117  0.56375394  0.99196504  1  0.08359  0  0.109083  0.112379  0  0.989654  0
H  H120  1  0.63292000  0.32788921  0.98366616  1  0.098553  0  0.108112  0.130581  0  1.015519  0
H  H121  1  0.36708686  0.67211168  0.01633773  1  0.098869  0  0.108168  0.130674  0  1.015444  0
H  H122  1  0.37540471  0.35582148  0.11279785  1  0.065007  0  0.10147  0.114958  0  1.017855  0
H  H123  1  0.62460517  0.64414075  0.88721578  1  0.064746  0  0.101561  0.115112  0  1.017507  0
H  H124  1  0.46651261  0.46502835  0.13566985  1  0.111122  0  0.10152  0.100035  0  1.009839  0
H  H125  1  0.53349158  0.53494059  0.86434555  1  0.111124  0  0.10148  0.100101  0  1.009833  0
H  H126  1  0.26124905  0.39075250  0.02454611  1  0.142871  0  0.110581  0.136162  0  1.011525  0
H  H127  1  0.73877111  0.60924093  0.97545330  1  0.142811  0  0.110594  0.136123  0  1.011615  0
H  H128  1  0.07202008  0.35411502  0.05993703  1  0.129705  0  0.113073  0.12199  0  0.978087  0
H  H129  1  0.92799984  0.64588307  0.94006178  1  0.129482  0  0.113065  0.122066  0  0.978032  0
H  H130  1  0.22767489  0.08572134  0.12348664  1  0.107103  0  0.106528  0.116636  0  1.008772  0
H  H131  1  0.77231956  0.91427642  0.87651415  1  0.107199  0  0.106537  0.116713  0  1.008805  0
H  H132  1  0.41784311  0.12094514  0.08634587  1  0.071688  0  0.103909  0.115931  0  1.022944  0
H  H133  1  0.58215595  0.87904324  0.91365656  1  0.071641  0  0.103921  0.115988  0  1.022923  0
H  H134  1  0.96149295  0.94929677  0.31925995  1  0.10884  0  0.102052  0.106124  0  1.008541  0
H  H135  1  0.03851500  0.05070351  0.68073465  1  0.108794  0  0.102066  0.106154  0  1.008512  0
H  H136  1  0.00756648  0.82736793  0.39590365  1  0.094107  0  0.105713  0.120724  0  1.015765  0
H  H137  1  0.99243664  0.17263173  0.60409289  1  0.093902  0  0.105713  0.12071  0  1.015735  0
H  H138  1  0.05979098  0.63161722  0.30113976  1  0.075839  0  0.108986  0.126511  0  0.984575  0
H  H139  1  0.94021252  0.36838444  0.69885536  1  0.075451  0  0.108973  0.126467  0  0.984717  0
H  H140  1  0.02165646  0.75456182  0.22412996  1  0.076166  0  0.107908  0.111452  0  1.002049  0
H  H141  1  0.97835065  0.24543846  0.77586545  1  0.076229  0  0.107853  0.111347  0  1.002127  0
H  H142  1  0.16035289  0.49993091  0.43426452  1  0.132414  0  0.107713  0.128605  0  1.016047  0
H  H143  1  0.83965541  0.50006477  0.56572137  1  0.132386  0  0.10771  0.12859  0  1.016186  0
H  H144  1  0.07668468  0.36368582  0.46087227  1  0.090294  0  0.10478  0.097744  0  1.042512  0
H  H145  1  0.92332459  0.63630917  0.53911438  1  0.09022  0  0.104695  0.09765  0  1.042663  0
H  H146  1  0.76983953  0.51400592  0.40375130  1  0.075661  0  0.098459  0.093426  0  1.047293  0
H  H147  1  0.23015543  0.48599644  0.59625478  1  0.075699  0  0.09847  0.093456  0  1.047231  0
H  H148  1  0.85215453  0.65140031  0.37779531  1  0.097342  0  0.103328  0.117016  0  1.017068  0
H  H149  1  0.14784129  0.34860207  0.62220848  1  0.097337  0  0.103356  0.117048  0  1.017048  0
H  H150  1  0.95864716  0.77937812  0.53261941  1  0.643655  0  0.290673  0.337033  0  1.009432  0
H  H151  1  0.04135193  0.22062090  0.46738198  1  0.643636  0  0.290643  0.336957  0  1.009504  0
H  H152  1  0.70127620  0.65520581  0.60172440  1  0.627844  0  0.288198  0.322879  0  1.014909  0
H  H153  1  0.29872262  0.34479457  0.39827349  1  0.627502  0  0.288215  0.322955  0  1.014825  0
H  H154  1  0.88829218  0.89117673  0.46522896  1  0.042342  0  0.09453  0.052586  0  1.027227  0
H  H155  1  0.11171021  0.10882224  0.53477293  1  0.042334  0  0.094529  0.052629  0  1.027171  0
H  H156  1  0.75733123  0.90432616  0.50491605  1  0.061891  0  0.106731  0.085558  0  0.956327  0
H  H157  1  0.24266972  0.09567549  0.49508522  1  0.061967  0  0.106753  0.085605  0  0.956331  0
H  H158  1  0.76760427  0.81437837  0.43654660  1  0.049045  0  0.090453  0.058699  0  1.021399  0
H  H159  1  0.23239614  0.18562928  0.56345354  1  0.048954  0  0.090442  0.058651  0  1.02145  0
H  H160  1  0.87358360  0.73135068  0.46758523  1  0.026785  0  0.093345  0.057747  0  1.016779  0
H  H161  1  0.12640753  0.26865445  0.53241446  1  0.026789  0  0.093354  0.057643  0  1.016755  0
H  H162  1  0.77022282  0.62124385  0.49579817  1  0.046417  0  0.091833  0.056054  0  1.019261  0
H  H163  1  0.22976625  0.37876333  0.50419658  1  0.046222  0  0.091846  0.056051  0  1.019272  0
H  H164  1  0.64684178  0.68472450  0.46811423  1  0.023372  0  0.090406  0.055442  0  1.008277  0
H  H165  1  0.35314391  0.31528268  0.53188672  1  0.023177  0  0.090428  0.055456  0  1.008196  0
H  H166  1  0.54006375  0.68499532  0.55430045  1  0.065552  0  0.092049  0.057243  0  1.018493  0
H  H167  1  0.45993505  0.31500504  0.44570004  1  0.065625  0  0.092076  0.057314  0  1.018384  0
H  H168  1  0.59307288  0.57392512  0.54358635  1  0.041024  0  0.094602  0.061009  0  1.007785  0
H  H169  1  0.40692201  0.42607796  0.45641259  1  0.040994  0  0.094612  0.061027  0  1.00774  0
H  H170  1  0.19917711  0.23855974  0.40706081  1  0.637916  0  0.292227  0.325082  0  1.006483  0
H  H171  1  0.80082216  0.76143863  0.59293880  1  0.637975  0  0.292233  0.325114  0  1.006395  0
H  H172  1  0.38323492  0.02958716  0.19305898  1  0.617352  0  0.295409  0.324548  0  0.981867  0
H  H173  1  0.61676432  0.97041852  0.80694002  1  0.617443  0  0.295469  0.324659  0  0.98175  0
H  H174  1  0.39641034  0.19053739  0.40668515  1  0.052549  0  0.093593  0.05263  0  1.039097  0
H  H175  1  0.60358769  0.80946630  0.59331532  1  0.052274  0  0.093602  0.052661  0  1.039067  0
H  H176  1  0.32543621  0.12636151  0.38150674  1  0.018876  0  0.09737  0.065295  0  0.993588  0
H  H177  1  0.67456904  0.87363943  0.61849318  1  0.018768  0  0.097351  0.065288  0  0.993569  0
H  H178  1  0.50940550  0.16389779  0.33149349  1  0.059622  0  0.093047  0.052489  0  1.021971  0
H  H179  1  0.49059238  0.83610658  0.66850617  1  0.05912  0  0.093029  0.052485  0  1.021951  0
H  H180  1  0.43623762  0.27652405  0.31381108  1  0.043327  0  0.096085  0.066684  0  0.979848  0
H  H181  1  0.56376318  0.72347827  0.68619048  1  0.043407  0  0.096071  0.066672  0  0.979765  0
H  H182  1  0.54127447  0.12366873  0.25282283  1  0.043756  0  0.094239  0.061175  0  0.985398  0
H  H183  1  0.45872393  0.87633696  0.74717736  1  0.043799  0  0.094184  0.061111  0  0.985341  0
H  H184  1  0.49170840  0.23743834  0.22366858  1  0.038917  0  0.091795  0.055811  0  1.000032  0
H  H185  1  0.50828875  0.76256205  0.77633129  1  0.03894  0  0.091796  0.055815  0  0.999883  0
H  H186  1  0.34101745  0.19309629  0.19019561  1  0.037931  0  0.089185  0.04911  0  0.996749  0
H  H187  1  0.65898087  0.80690606  0.80980614  1  0.037824  0  0.089198  0.049109  0  0.996748  0
H  H188  1  0.48008168  0.14443016  0.16666885  1  0.046935  0  0.094122  0.057008  0  0.991868  0
H  H189  1  0.51991717  0.85557352  0.83333156  1  0.046591  0  0.094085  0.056943  0  0.991897  0
H  H190  1  0.24303558  0.79504628  0.10538746  1  0.612227  0  0.311733  0.340923  0  0.928349  0
H  H191  1  0.75696829  0.20495332  0.89461647  1  0.612158  0  0.311747  0.340965  0  0.928285  0
H  H192  1  0.44605701  0.67004028  0.09335610  1  0.053551  0  0.102673  0.083484  0  0.987328  0
H  H193  1  0.55394340  0.32995675  0.90664285  1  0.053512  0  0.102663  0.083506  0  0.987356  0
H  H194  1  0.44221081  0.77144159  0.11336306  1  0.055088  0  0.090616  0.059734  0  1.026478  0
H  H195  1  0.55778987  0.22855408  0.88663939  1  0.05538  0  0.090616  0.059734  0  1.026489  0
H  H196  1  0.41781948  0.65535912  0.19015702  1  0.058212  0  0.099157  0.073157  0  1.006932  0
H  H197  1  0.58218838  0.34463049  0.80984309  1  0.058372  0  0.099186  0.073164  0  1.006817  0
H  H198  1  0.30618336  0.62708951  0.16633285  1  0.036445  0  0.098657  0.069707  0  0.967946  0
H  H199  1  0.69382305  0.37290276  0.83366851  1  0.036282  0  0.098653  0.069659  0  0.967897  0
H  H200  1  0.38237144  0.75744246  0.23259198  1  0.039843  0  0.094908  0.05512  0  1.039176  0
H  H201  1  0.61764272  0.24254106  0.76741106  1  0.040179  0  0.09507  0.055321  0  1.039139  0
H  H202  1  0.23977379  0.77546704  0.26120396  1  0.048892  0  0.091659  0.059805  0  1.012765  0
H  H203  1  0.76024798  0.22451901  0.73880189  1  0.048909  0  0.091765  0.059913  0  1.012792  0
H  H204  1  0.28660076  0.91435316  0.24311210  1  0.037881  0  0.090445  0.051648  0  1.000691  0
H  H205  1  0.71343828  0.08562932  0.75689477  1  0.036864  0  0.090473  0.051683  0  1.000419  0
H  H206  1  0.20005451  0.91819195  0.19544982  1  0.10036  0  0.103908  0.087351  0  0.97642  0
H  H207  1  0.79996015  0.08179946  0.80456440  1  0.100013  0  0.103999  0.087451  0  0.976294  0
H  H208  1  0.43812393  0.87772258  0.17013465  1  0.628968  0  0.286653  0.327997  0  1.013139  0
H  H209  1  0.56188811  0.12227029  0.82986545  1  0.628902  0  0.28665  0.328047  0  1.013196  0
C  C210  1  0.85319315  0.51288570  0.23237240  1  0.434632  0  0.028813  0.090722  0  4.023993  0
C  C211  1  0.14680297  0.48712267  0.76762872  1  0.434561  0  0.02887  0.090758  0  4.023896  0
C  C212  1  0.91519167  0.44158611  0.26264684  1  -0.019626  0  -0.110763  -0.256974  0  3.982569  0
C  C213  1  0.08480099  0.55842296  0.73735482  1  -0.019941  0  -0.110875  -0.257137  0  3.982863  0
C  C214  1  0.96710619  0.36367876  0.24257195  1  0.432276  0  0.121154  0.230432  0  4.054981  0
C  C215  1  0.03288289  0.63632438  0.75743077  1  0.4323  0  0.121104  0.230452  0  4.055105  0
C  C216  1  0.95899936  0.36909156  0.18989238  1  0.020522  0  -0.104907  -0.245446  0  3.965666  0
C  C217  1  0.04098002  0.63090704  0.81011316  1  0.019985  0  -0.104857  -0.245446  0  3.965573  0
C  C218  1  0.89552396  0.44356036  0.16258611  1  0.462989  0  0.039736  0.104088  0  3.9735  0
C  C219  1  0.10446523  0.55643880  0.83741527  1  0.463214  0  0.039702  0.104028  0  3.973552  0
C  C220  1  0.07007900  0.20875376  0.25013635  1  0.267278  0  -0.051303  -0.068536  0  3.884774  0
C  C221  1  0.92991457  0.79125132  0.74986577  1  0.267089  0  -0.051282  -0.068296  0  3.884683  0
C  C222  1  0.00914700  0.27557431  0.32788527  1  0.321325  0  -0.056558  -0.080981  0  3.891038  0
C  C223  1  0.99084938  0.72443270  0.67211935  1  0.321082  0  -0.056656  -0.08088  0  3.891036  0
C  C224  1  0.98401015  0.18366621  0.35249814  1  0.277406  0  -0.05881  -0.078461  0  3.891662  0
C  C225  1  0.01598699  0.81633746  0.64750723  1  0.277275  0  -0.058803  -0.078621  0  3.891636  0
C  C226  1  0.14172508  0.13880778  0.28688303  1  0.289194  0  -0.057652  -0.088677  0  3.892044  0
C  C227  1  0.85826487  0.86119867  0.71312067  1  0.288866  0  -0.057723  -0.088626  0  3.891752  0
C  C228  1  0.11213110  0.03938345  0.37127708  1  0.462205  0  0.123296  0.233736  0  4.050793  0
C  C229  1  0.88786791  0.96061956  0.62872341  1  0.461787  0  0.123338  0.233798  0  4.050695  0
C  C230  1  0.04425434  0.01307930  0.41832453  1  -0.02795  0  -0.107493  -0.259465  0  3.968809  0
C  C231  1  0.95574223  0.98692706  0.58167794  1  -0.027841  0  -0.107454  -0.259384  0  3.968893  0
C  C232  1  0.08577355  0.93866558  0.45337704  1  0.451239  0  0.031663  0.096907  0  3.99786  0
C  C233  1  0.91422498  0.06133942  0.54662509  1  0.451249  0  0.031734  0.096909  0  3.997993  0
C  C234  1  0.25238356  0.90986683  0.40032837  1  0.417992  0  0.030185  0.092175  0  4.01146  0
C  C235  1  0.74761101  0.09013429  0.59966788  1  0.417786  0  0.030136  0.092099  0  4.011657  0
C  C236  1  0.21890488  0.98331346  0.36273324  1  -0.019842  0  -0.105604  -0.257274  0  3.966006  0
C  C237  1  0.78108507  0.01668969  0.63726569  1  -0.019152  0  -0.105637  -0.257266  0  3.965661  0
C  C238  1  0.86609545  0.74279358  0.12930382  1  0.44145  0  0.035877  0.101546  0  3.99372  0
C  C239  1  0.13389721  0.25721221  0.87069270  1  0.441252  0  0.035852  0.101464  0  3.993654  0
C  C240  1  0.91910482  0.81226901  0.10476918  1  -0.016052  0  -0.103079  -0.249454  0  3.954156  0
C  C241  1  0.08088804  0.18773210  0.89523129  1  -0.016007  0  -0.103087  -0.24941  0  3.9541  0
C  C242  1  0.90432420  0.85340864  0.05280406  1  0.429053  0  0.124489  0.238153  0  4.02579  0
C  C243  1  0.09567056  0.14659512  0.94719368  1  0.42969  0  0.124379  0.237999  0  4.02607  0
C  C244  1  0.83527766  0.81725652  0.02956985  1  -0.041822  0  -0.105149  -0.244542  0  3.964473  0
C  C245  1  0.16471187  0.18275195  0.97042952  1  -0.04191  0  -0.10513  -0.244583  0  3.96421  0
C  C246  1  0.78625790  0.74717526  0.05719692  1  0.509323  0  0.040558  0.112184  0  3.987523  0
C  C247  1  0.21372969  0.25283458  0.94280093  1  0.509381  0  0.04069  0.112274  0  3.987476  0
C  C248  1  0.95601602  0.95263550  0.97116057  1  0.357266  0  -0.055267  -0.074259  0  3.902416  0
C  C249  1  0.04399054  0.04736344  0.02883729  1  0.357102  0  -0.055255  -0.074258  0  3.902106  0
C  C250  1  0.04069929  0.94875865  0.04723514  1  0.262637  0  -0.058597  -0.08895  0  3.894095  0
C  C251  1  0.95930871  0.05123762  0.95276296  1  0.262182  0  -0.058677  -0.089099  0  3.894489  0
C  C252  1  0.72866063  0.27907251  0.18379117  1  0.508465  0  0.040507  0.106848  0  3.981504  0
C  C253  1  0.27133236  0.72092463  0.81620684  1  0.508265  0  0.040494  0.106823  0  3.981509  0
C  C254  1  0.66961205  0.34457835  0.21004655  1  -0.075084  0  -0.106099  -0.253305  0  3.968814  0
C  C255  1  0.33038763  0.65542203  0.78994941  1  -0.074331  0  -0.10609  -0.253263  0  3.968869  0
C  C256  1  0.65936695  0.32697483  0.26459017  1  0.461467  0  0.119312  0.223464  0  4.072833  0
C  C257  1  0.34063541  0.67302817  0.73540673  1  0.461431  0  0.119157  0.223216  0  4.073424  0
C  C258  1  0.70899201  0.23991581  0.28903866  1  -0.056688  0  -0.107595  -0.261493  0  4.010458  0
C  C259  1  0.29101048  0.76008651  0.71095943  1  -0.056793  0  -0.107568  -0.261316  0  4.010436  0
C  C260  1  0.76559253  0.17873982  0.25953425  1  0.50892  0  0.031136  0.087452  0  4.015305  0
C  C261  1  0.23440681  0.82126188  0.74046416  1  0.508821  0  0.031034  0.087273  0  4.015204  0
C  C262  1  0.61307075  0.37469145  0.34738290  1  0.320036  0  -0.054027  -0.076206  0  3.894567  0
C  C263  1  0.38693635  0.62531616  0.65261042  1  0.319577  0  -0.054017  -0.076118  0  3.894316  0
C  C264  1  0.54944669  0.47807733  0.26817767  1  0.288936  0  -0.053558  -0.080967  0  3.898757  0
C  C265  1  0.45055245  0.52192905  0.73181717  1  0.289143  0  -0.053556  -0.080997  0  3.899172  0
C  C266  1  0.45824825  0.52076440  0.30585100  1  0.30752  0  -0.052989  -0.076727  0  3.898803  0
C  C267  1  0.54174671  0.47924200  0.69414824  1  0.307497  0  -0.053007  -0.076798  0  3.898919  0
C  C268  1  0.60781207  0.46252865  0.36280483  1  0.314574  0  -0.056671  -0.084253  0  3.925848  0
C  C269  1  0.39219698  0.53747759  0.63718927  1  0.275016  0  -0.056547  -0.083734  0  3.925265  0
C  C270  1  0.44681179  0.57867873  0.38429800  1  0.454147  0  0.125524  0.237185  0  4.048861  0
C  C271  1  0.55319127  0.42132089  0.61570375  1  0.454238  0  0.125543  0.237375  0  4.048793  0
C  C272  1  0.34261252  0.63623474  0.37425161  1  -0.044582  0  -0.1039  -0.244144  0  3.960209  0
C  C273  1  0.65738551  0.36376162  0.62575169  1  -0.04481  0  -0.103793  -0.24405  0  3.960082  0
C  C274  1  0.28954758  0.69263765  0.40722362  1  0.488503  0  0.040386  0.10681  0  4.000494  0
C  C275  1  0.71044964  0.30735873  0.59277900  1  0.488013  0  0.040212  0.10661  0  4.000391  0
C  C276  1  0.42663165  0.63923671  0.46121226  1  0.511362  0  0.039861  0.108804  0  4.002309  0
C  C277  1  0.57336223  0.36075970  0.53879247  1  0.511363  0  0.039741  0.108575  0  4.00245  0
C  C278  1  0.48732155  0.58152893  0.43024390  1  -0.044865  0  -0.111145  -0.276628  0  4.003267  0
C  C279  1  0.51267135  0.41846816  0.56976156  1  -0.044638  0  -0.11112  -0.276643  0  4.003275  0
C  C280  1  0.75133893  0.13156027  0.07778470  1  0.449448  0  0.034219  0.091743  0  3.994887  0
C  C281  1  0.24866082  0.86844343  0.92221044  1  0.44918  0  0.034164  0.091669  0  3.995006  0
C  C282  1  0.68994105  0.11255099  0.04480062  1  -0.031694  0  -0.104889  -0.254223  0  3.973359  0
C  C283  1  0.31005695  0.88744940  0.95519696  1  -0.03134  0  -0.104836  -0.254284  0  3.973192  0
C  C284  1  0.64505141  0.03331943  0.05840129  1  0.376609  0  0.120825  0.229324  0  4.034547  0
C  C285  1  0.35494517  0.96668365  0.94159566  1  0.376486  0  0.120774  0.229472  0  4.034435  0
C  C286  1  0.66585332  0.97915268  0.10735230  1  0.051293  0  -0.107114  -0.255669  0  3.962301  0
C  C287  1  0.33414625  0.02085168  0.89264425  1  0.051514  0  -0.107128  -0.255897  0  3.962571  0
C  C288  1  0.72914977  0.00317160  0.13744122  1  0.420864  0  0.037918  0.109134  0  3.987576  0
C  C289  1  0.27084898  0.99683278  0.86255577  1  0.420869  0  0.037966  0.109343  0  3.987526  0
C  C290  1  0.54585476  0.92675464  0.03807378  1  0.293316  0  -0.059057  -0.09073  0  3.89585  0
C  C291  1  0.45413953  0.07325112  0.96192448  1  0.293247  0  -0.059095  -0.090708  0  3.895866  0
C  C292  1  0.57447984  0.05884332  0.97392767  1  0.292307  0  -0.057744  -0.087169  0  3.893759  0
C  C293  1  0.42551588  0.94115975  0.02607158  1  0.292393  0  -0.057742  -0.087213  0  3.893454  0
C  C294  1  0.60236511  0.74566412  0.20642576  1  1.564855  0  0.201644  0.562322  0  4.246897  0
C  C295  1  0.39763752  0.25433753  0.79357315  1  1.565327  0  0.201638  0.562393  0  4.246949  0
C  C296  1  0.59152253  0.77772098  0.25559459  1  -0.057171  0  -0.032462  -0.074093  0  4.011026  0
C  C297  1  0.40847635  0.22228272  0.74440359  1  -0.056913  0  -0.032383  -0.073971  0  4.010731  0
C  C298  1  0.55087103  0.86817663  0.25693818  1  0.01193  0  -0.081242  -0.061203  0  3.978659  0
C  C299  1  0.44913776  0.13182693  0.74305927  1  0.011302  0  -0.081395  -0.061385  0  3.978635  0
C  C300  1  0.53615166  0.89839599  0.30269698  1  -0.087076  0  -0.101285  -0.203318  0  3.979982  0
C  C301  1  0.46385270  0.10160896  0.69730062  1  -0.086236  0  -0.101154  -0.203008  0  3.979844  0
C  C302  1  0.56337710  0.83699223  0.34755206  1  0.416084  0  0.083817  0.255749  0  4.053943  0
C  C303  1  0.43662376  0.16301013  0.65244429  1  0.415982  0  0.083817  0.255615  0  4.053795  0
C  C304  1  0.60644862  0.74691161  0.34702364  1  -0.015743  0  -0.104349  -0.199796  0  4.005986  0
C  C305  1  0.39354412  0.25309018  0.65297452  1  -0.015973  0  -0.104413  -0.199787  0  4.006046  0
C  C306  1  0.62016500  0.71764060  0.30098030  1  -0.012883  0  -0.089355  -0.072329  0  3.994678  0
C  C307  1  0.37982872  0.28236051  0.69901787  1  -0.012833  0  -0.089279  -0.072287  0  3.994525  0
C  C308  1  0.57296369  0.93851200  0.39915273  1  0.390977  0  0.090682  0.266177  0  4.036364  0
C  C309  1  0.42703894  0.06148964  0.60084693  1  0.391  0  0.09072  0.266225  0  4.03631  0
C  C310  1  0.67712414  0.95894700  0.37561504  1  -0.037245  0  -0.104855  -0.21815  0  4.011221  0
C  C311  1  0.32287941  0.04105064  0.62438470  1  -0.03724  0  -0.104824  -0.218087  0  4.011193  0
C  C312  1  0.71324745  0.02713836  0.38911159  1  -0.037691  0  -0.08237  -0.072604  0  3.996851  0
C  C313  1  0.28675671  0.97285661  0.61088884  1  -0.037494  0  -0.082357  -0.072706  0  3.996844  0
C  C314  1  0.64520163  0.07680055  0.42420538  1  -0.010655  0  -0.03161  -0.070454  0  4.012627  0
C  C315  1  0.35479780  0.92319715  0.57579355  1  -0.010795  0  -0.031639  -0.070374  0  4.012394  0
C  C316  1  0.53795682  0.05940134  0.44402961  1  -0.105597  0  -0.077979  -0.072998  0  3.998228  0
C  C317  1  0.46204097  0.94059640  0.55596796  1  -0.10547  0  -0.077991  -0.073123  0  3.998196  0
C  C318  1  0.50166344  0.98997605  0.43194109  1  0.007798  0  -0.097648  -0.197264  0  3.983451  0
C  C319  1  0.49833614  0.01002098  0.56805829  1  0.007347  0  -0.097651  -0.197192  0  3.983189  0
C  C320  1  0.69006699  0.14004793  0.44491699  1  1.521036  0  0.184392  0.541183  0  4.241068  0
C  C321  1  0.30993342  0.85994909  0.55508196  1  1.521071  0  0.184431  0.541138  0  4.240885  0
C  C322  1  0.65906628  0.52005137  0.08835442  1  1.527578  0  0.194117  0.551095  0  4.23134  0
C  C323  1  0.34092964  0.47993968  0.91165235  1  1.526967  0  0.194072  0.551102  0  4.231181  0
C  C324  1  0.60107077  0.45823032  0.07319425  1  0.065374  0  -0.032623  -0.070585  0  4.0107  0
C  C325  1  0.39892862  0.54174536  0.92681764  1  0.064172  0  -0.032348  -0.070435  0  4.010456  0
C  C326  1  0.64731709  0.41916191  0.03030405  1  -0.036982  0  -0.076979  -0.058283  0  3.973801  0
C  C327  1  0.35268991  0.58082364  0.96970745  1  -0.035828  0  -0.077035  -0.058269  0  3.973835  0
C  C328  1  0.59672469  0.35886254  0.01668363  1  -0.024261  0  -0.099451  -0.202588  0  3.967344  0
C  C329  1  0.40328519  0.64112499  0.98332404  1  -0.024561  0  -0.099541  -0.20276  0  3.967545  0
C  C330  1  0.49859521  0.33635094  0.04656022  1  0.398411  0  0.090293  0.2736  0  4.033351  0
C  C331  1  0.50141786  0.66362990  0.95344735  1  0.398204  0  0.090489  0.273749  0  4.033366  0
C  C332  1  0.45126869  0.37410513  0.08960038  1  -0.00881  0  -0.112512  -0.227549  0  4.02161  0
C  C333  1  0.54873702  0.62586447  0.91041333  1  -0.009227  0  -0.112706  -0.227763  0  4.02201  0
C  C334  1  0.50252599  0.43505044  0.10231894  1  -0.133095  0  -0.086122  -0.068789  0  4.009144  0
C  C335  1  0.49747855  0.56492781  0.89769445  1  -0.132199  0  -0.08623  -0.068997  0  4.009701  0
C  C336  1  0.34938768  0.25795159  0.05489157  1  0.367073  0  0.081763  0.245692  0  4.046938  0
C  C337  1  0.65062517  0.74204125  0.94511033  1  0.366757  0  0.081829  0.245497  0  4.047206  0
C  C338  1  0.25354425  0.32498779  0.04758869  1  -0.034469  0  -0.094464  -0.194772  0  3.975582  0
C  C339  1  0.74647820  0.67500296  0.95240868  1  -0.034634  0  -0.094528  -0.194739  0  3.97581  0
C  C340  1  0.14839016  0.30435736  0.06703998  1  -0.070194  0  -0.076453  -0.065684  0  3.960208  0
C  C341  1  0.85162461  0.69563815  0.93295734  1  -0.070175  0  -0.076465  -0.065743  0  3.96037  0
C  C342  1  0.13850365  0.21837548  0.09447684  1  -0.036075  0  -0.028889  -0.066032  0  4.010287  0
C  C343  1  0.86150289  0.78162345  0.90552288  1  -0.036185  0  -0.028829  -0.065905  0  4.010194  0
C  C344  1  0.23582221  0.15245893  0.10215231  1  -0.121536  0  -0.088959  -0.093291  0  3.996099  0
C  C345  1  0.76417636  0.84753877  0.89784892  1  -0.121389  0  -0.089035  -0.09353  0  3.996061  0
C  C346  1  0.34146826  0.17174966  0.08179569  1  0.043161  0  -0.10229  -0.207904  0  4.022741  0
C  C347  1  0.65853347  0.82824134  0.91820805  1  0.043341  0  -0.102315  -0.207838  0  4.022939  0
C  C348  1  0.02428357  0.19606967  0.11273350  1  1.555491  0  0.188802  0.541498  0  4.274506  0
C  C349  1  0.97571536  0.80393735  0.88726461  1  1.555497  0  0.188688  0.541278  0  4.274931  0
C  C350  1  0.95460438  0.93050809  0.22164399  1  1.565172  0  0.199641  0.566391  0  4.24123  0
C  C351  1  0.04539910  0.06949356  0.77835337  1  1.565411  0  0.199791  0.56674  0  4.241352  0
C  C352  1  0.98478685  0.85883375  0.26750826  1  -0.00038  0  -0.023107  -0.050667  0  3.98234  0
C  C353  1  0.01522852  0.14116642  0.73248691  1  0.000586  0  -0.023044  -0.050607  0  3.982156  0
C  C354  1  0.98284915  0.87956225  0.31564209  1  -0.049317  0  -0.084795  -0.074596  0  3.98593  0
C  C355  1  0.01715293  0.12043477  0.68435488  1  -0.049317  0  -0.084907  -0.074784  0  3.9859  0
C  C356  1  0.00789994  0.81219680  0.35833438  1  -0.025937  0  -0.1055  -0.209099  0  4.002944  0
C  C357  1  0.99210603  0.18780482  0.64166242  1  -0.026492  0  -0.105533  -0.209122  0  4.002968  0
C  C358  1  0.03223582  0.72337561  0.35273762  1  0.337471  0  0.080421  0.24843  0  4.061064  0
C  C359  1  0.96776988  0.27662004  0.64725851  1  0.337549  0  0.080468  0.248498  0  4.061048  0
C  C360  1  0.03770265  0.70139933  0.30471657  1  -0.021516  0  -0.104087  -0.213358  0  4.011077  0
C  C361  1  0.96230626  0.29860026  0.69527954  1  -0.020867  0  -0.104062  -0.213204  0  4.011373  0
C  C362  1  0.01488525  0.76947869  0.26224841  1  -0.002243  0  -0.079739  -0.065683  0  3.991022  0
C  C363  1  0.98511396  0.23052368  0.73774806  1  -0.002963  0  -0.079678  -0.065559  0  3.991064  0
C  C364  1  0.01022164  0.58308929  0.40582725  1  0.365101  0  0.089282  0.26869  0  4.04076  0
C  C365  1  0.98977882  0.41690777  0.59416724  1  0.365415  0  0.089235  0.268792  0  4.040662  0
C  C366  1  0.07399432  0.50263044  0.42887966  1  -0.024375  0  -0.09728  -0.190945  0  3.963867  0
C  C367  1  0.92601202  0.49736988  0.57111171  1  -0.024502  0  -0.097308  -0.191029  0  3.964058  0
C  C368  1  0.02713507  0.42662908  0.44304419  1  -0.020683  0  -0.078554  -0.056133  0  3.961489  0
C  C369  1  0.97287135  0.57336724  0.55694845  1  -0.020825  0  -0.07841  -0.055868  0  3.961584  0
C  C370  1  0.91718210  0.42994247  0.43420565  1  0.029739  0  -0.031509  -0.069794  0  4.009672  0
C  C371  1  0.08281658  0.57005858  0.56579178  1  0.029936  0  -0.03158  -0.069871  0  4.009604  0
C  C372  1  0.85542546  0.51144453  0.41018868  1  -0.051036  0  -0.090054  -0.081556  0  4.016568  0
C  C373  1  0.14456972  0.48855720  0.58981264  1  -0.051086  0  -0.090074  -0.081641  0  4.016532  0
C  C374  1  0.90073687  0.58807932  0.39593611  1  -0.056608  0  -0.108783  -0.22241  0  4.032107  0
C  C375  1  0.09926080  0.41192239  0.60406392  1  -0.056698  0  -0.108792  -0.222449  0  4.032099  0
C  C376  1  0.86215181  0.35114626  0.45138246  1  1.515734  0  0.195904  0.557857  0  4.202112  0
C  C377  1  0.13784700  0.64885410  0.54861691  1  1.515853  0  0.195883  0.557842  0  4.202306  0
C  C378  1  0.83262516  0.85516009  0.49509731  1  0.432593  0  -0.080076  0.048842  0  3.939377  0
C  C379  1  0.16737677  0.14484088  0.50490435  1  0.432637  0  -0.080148  0.048634  0  3.93943  0
C  C380  1  0.79955303  0.78465239  0.47399746  1  0.438932  0  -0.081681  -0.027657  0  3.973611  0
C  C381  1  0.20044697  0.21534996  0.52600231  1  0.438891  0  -0.081688  -0.027517  0  3.973574  0
C  C382  1  0.69153406  0.66999580  0.50244694  1  0.428587  0  -0.079864  -0.018435  0  3.956114  0
C  C383  1  0.30845693  0.33001000  0.49755119  1  0.429096  0  -0.079863  -0.018466  0  3.956171  0
C  C384  1  0.61725556  0.63349551  0.54992099  1  0.426649  0  -0.086639  0.040449  0  3.975156  0
C  C385  1  0.38273949  0.36650690  0.45007840  1  0.426285  0  -0.08666  0.040435  0  3.974977  0
C  C386  1  0.34900520  0.19201431  0.37520661  1  0.454835  0  -0.084203  0.039106  0  3.936044  0
C  C387  1  0.65099592  0.80798668  0.62479325  1  0.455162  0  -0.084199  0.039047  0  3.93598  0
C  C388  1  0.42593109  0.20614478  0.32512772  1  0.4227  0  -0.076982  -0.001748  0  3.932146  0
C  C389  1  0.57407010  0.79385954  0.67487169  1  0.423222  0  -0.076939  -0.001691  0  3.932061  0
C  C390  1  0.46556873  0.17302510  0.24120038  1  0.432306  0  -0.074956  -0.00309  0  3.941878  0
C  C391  1  0.53443373  0.82697721  0.75879995  1  0.432207  0  -0.074949  -0.003114  0  3.94159  0
C  C392  1  0.41717075  0.14389711  0.20127629  1  0.442752  0  -0.07956  0.052523  0  3.972141  0
C  C393  1  0.58282878  0.85610722  0.79872399  1  0.443362  0  -0.079509  0.052675  0  3.972039  0
C  C394  1  0.39190417  0.72246018  0.11219999  1  0.430427  0  -0.090069  0.026619  0  3.945356  0
C  C395  1  0.60809702  0.27753681  0.88780300  1  0.430095  0  -0.090088  0.026516  0  3.94573  0
C  C396  1  0.34773182  0.68199592  0.16676662  1  0.41774  0  -0.079005  -0.023473  0  3.949449  0
C  C397  1  0.65227473  0.31799568  0.83323556  1  0.417948  0  -0.079105  -0.023372  0  3.9492  0
C  C398  1  0.29570742  0.78848190  0.22468935  1  0.413658  0  -0.07787  -0.015112  0  3.941881  0
C  C399  1  0.70430865  0.21150756  0.77531499  1  0.41332  0  -0.078202  -0.01557  0  3.942145  0
C  C400  1  0.28319709  0.88931653  0.20826362  1  0.405811  0  -0.084036  0.037796  0  3.938697  0
C  C401  1  0.71682584  0.11067148  0.79174448  1  0.407272  0  -0.084136  0.037835  0  3.93839  0
N  N402  1  0.83990983  0.51470314  0.18320990  1  -1.260903  0  -0.360004  -0.282684  0  3.592467  0
N  N403  1  0.16008370  0.48529862  0.81679117  1  -1.26115  0  -0.359962  -0.282616  0  3.592761  0
N  N404  1  0.02004088  0.28841468  0.27180449  1  -1.166002  0  -0.277434  -0.067049  0  3.599874  0
N  N405  1  0.97995350  0.71159038  0.72819868  1  -1.165945  0  -0.277241  -0.066974  0  3.600072  0
N  N406  1  0.07615124  0.11435312  0.33692089  1  -1.183265  0  -0.279013  -0.06707  0  3.603774  0
N  N407  1  0.92384682  0.88565388  0.66308174  1  -1.183315  0  -0.278997  -0.067076  0  3.603451  0
N  N408  1  0.18846957  0.88653004  0.44554740  1  -1.281783  0  -0.359695  -0.283781  0  3.594953  0
N  N409  1  0.81152496  0.11347105  0.55445146  1  -1.281952  0  -0.359726  -0.283802  0  3.595109  0
N  N410  1  0.80018847  0.70917845  0.10655054  1  -1.279403  0  -0.362018  -0.274383  0  3.651105  0
N  N411  1  0.19979688  0.29082675  0.89344884  1  -1.279476  0  -0.362041  -0.274309  0  3.651288  0
N  N412  1  0.95179434  0.92445580  0.02705115  1  -1.202624  0  -0.281011  -0.075884  0  3.584867  0
N  N413  1  0.04821057  0.07554316  0.97294720  1  -1.202974  0  -0.280993  -0.075904  0  3.584932  0
N  N414  1  0.77731809  0.19688692  0.20748772  1  -1.291361  0  -0.359948  -0.2806  0  3.611135  0
N  N415  1  0.22267839  0.80311282  0.79251154  1  -1.291261  0  -0.35988  -0.280515  0  3.611034  0
N  N416  1  0.60497182  0.38935106  0.29245548  1  -1.191636  0  -0.285476  -0.079586  0  3.635423  0
N  N417  1  0.39503293  0.61065590  0.70753997  1  -1.191697  0  -0.285445  -0.079564  0  3.63559  0
N  N418  1  0.50394567  0.52504749  0.35168368  1  -1.18886  0  -0.280538  -0.068648  0  3.631373  0
N  N419  1  0.49605749  0.47495548  0.64831539  1  -1.188954  0  -0.280521  -0.068678  0  3.631215  0
N  N420  1  0.32959366  0.69555194  0.45026674  1  -1.267738  0  -0.355985  -0.265994  0  3.591259  0
N  N421  1  0.67040395  0.30444644  0.54973410  1  -1.267286  0  -0.355894  -0.265877  0  3.591137  0
N  N422  1  0.77332320  0.07779622  0.12364417  1  -1.268119  0  -0.361996  -0.283979  0  3.629577  0
N  N423  1  0.22667471  0.92220816  0.87635325  1  -1.268222  0  -0.361899  -0.283935  0  3.62973  0
N  N424  1  0.58492892  0.01100020  0.02686366  1  -1.168305  0  -0.27871  -0.067906  0  3.607844  0
N  N425  1  0.41506304  0.98900492  0.97313523  1  -1.168229  0  -0.278878  -0.068264  0  3.607722  0
O  O426  1  0.64882429  0.66272542  0.20843110  1  -1.199703  0  -0.333406  -0.567035  0  2.391248  0
O  O427  1  0.35117317  0.33727364  0.79156855  1  -1.199751  0  -0.333366  -0.566983  0  2.391415  0
O  O428  1  0.56585701  0.79836148  0.16711578  1  -1.202346  0  -0.316167  -0.563807  0  2.23869  0
O  O429  1  0.43415833  0.20163868  0.83288200  1  -1.202718  0  -0.316143  -0.563865  0  2.238495  0
O  O430  1  0.54094233  0.86208848  0.39485728  1  -1.091872  0  -0.150664  -0.212844  0  2.571286  0
O  O431  1  0.45905927  0.13791053  0.60514131  1  -1.091883  0  -0.150644  -0.212869  0  2.571304  0
O  O432  1  0.62362948  0.18793968  0.47476890  1  -1.165949  0  -0.32902  -0.539309  0  2.20953  0
O  O433  1  0.37637523  0.81206397  0.52522550  1  -1.165962  0  -0.328969  -0.539243  0  2.209452  0
O  O434  1  0.79452311  0.14156763  0.43538118  1  -1.182149  0  -0.322875  -0.560127  0  2.229409  0
O  O435  1  0.20547575  0.85842873  0.56462169  1  -1.182085  0  -0.322958  -0.560182  0  2.229414  0
O  O436  1  0.61337592  0.55047252  0.13013253  1  -1.1689  0  -0.341994  -0.565653  0  2.302311  0
O  O437  1  0.38662316  0.44951183  0.86987600  1  -1.16849  0  -0.341936  -0.565672  0  2.302663  0
O  O438  1  0.74850157  0.53953830  0.06296018  1  -1.177698  0  -0.322743  -0.551243  0  2.123858  0
O  O439  1  0.25147751  0.46046164  0.93704484  1  -1.177368  0  -0.322874  -0.551369  0  2.123215  0
O  O440  1  0.45544191  0.27317588  0.03222484  1  -1.096224  0  -0.155375  -0.218078  0  2.553062  0
O  O441  1  0.54457223  0.72680762  0.96778044  1  -1.095532  0  -0.155377  -0.217881  0  2.552847  0
O  O442  1  0.02403029  0.12007980  0.14465778  1  -1.166841  0  -0.340628  -0.551163  0  2.325641  0
O  O443  1  0.97596826  0.87992522  0.85534285  1  -1.167039  0  -0.340458  -0.550944  0  2.326034  0
O  O444  1  0.93814382  0.24836424  0.09714446  1  -1.173328  0  -0.331359  -0.558932  0  2.105095  0
O  O445  1  0.06186153  0.75164005  0.90285203  1  -1.173122  0  -0.331407  -0.558949  0  2.105031  0
O  O446  1  0.89280299  0.00440975  0.23237368  1  -1.183368  0  -0.343517  -0.56728  0  2.316172  0
O  O447  1  0.10720292  0.99558855  0.76762283  1  -1.183219  0  -0.343542  -0.567429  0  2.316112  0
O  O448  1  0.98727448  0.91639771  0.17706407  1  -1.180412  0  -0.322344  -0.557616  0  2.174346  0
O  O449  1  0.01273856  0.08360916  0.82292853  1  -1.180887  0  -0.322427  -0.557814  0  2.174677  0
O  O450  1  0.05755007  0.65782187  0.39581878  1  -1.100173  0  -0.152443  -0.22209  0  2.593335  0
O  O451  1  0.94245321  0.34217713  0.60417746  1  -1.100024  0  -0.152388  -0.222208  0  2.593357  0
O  O452  1  0.76476472  0.35666734  0.44010248  1  -1.181005  0  -0.316472  -0.54327  0  2.214625  0
O  O453  1  0.23523309  0.64333370  0.55989837  1  -1.181024  0  -0.316461  -0.543251  0  2.214663  0
O  O454  1  0.91167664  0.27889852  0.47956551  1  -1.191391  0  -0.323722  -0.557483  0  2.25682  0
O  O455  1  0.08832550  0.72110182  0.52043101  1  -1.191452  0  -0.323708  -0.557507  0  2.256982  0
O  O456  1  0.88434557  0.81835921  0.54127343  1  -1.165648  0  -0.405312  -0.492481  0  2.321887  0
O  O457  1  0.11565436  0.18163980  0.45872715  1  -1.165533  0  -0.405232  -0.492305  0  2.321889  0
O  O458  1  0.71570765  0.74930468  0.51093362  1  -1.064305  0  -0.232795  -0.217952  0  2.54854  0
O  O459  1  0.28428748  0.25070108  0.48906346  1  -1.064364  0  -0.232844  -0.217944  0  2.548496  0
O  O460  1  0.67070481  0.60575451  0.59550570  1  -1.154223  0  -0.422389  -0.498022  0  2.289798  0
O  O461  1  0.32929500  0.39424520  0.40449145  1  -1.153717  0  -0.422412  -0.498089  0  2.289586  0
O  O462  1  0.25012986  0.26125809  0.37623485  1  -1.165179  0  -0.408449  -0.48354  0  2.293258  0
O  O463  1  0.74986708  0.73873964  0.62376538  1  -1.1652  0  -0.40846  -0.483539  0  2.293121  0
O  O464  1  0.38396632  0.18170689  0.28526016  1  -1.060498  0  -0.233319  -0.221799  0  2.50363  0
O  O465  1  0.61603321  0.81829746  0.71473937  1  -1.06058  0  -0.233296  -0.221768  0  2.503594  0
O  O466  1  0.39197673  0.05711105  0.22107368  1  -1.144163  0  -0.412091  -0.485456  0  2.296952  0
O  O467  1  0.60802047  0.94289265  0.77892649  1  -1.144387  0  -0.412167  -0.485613  0  2.296984  0
O  O468  1  0.30031126  0.76354440  0.08234584  1  -1.137924  0  -0.41797  -0.497566  0  2.240843  0
O  O469  1  0.69968698  0.23645461  0.91765785  1  -1.137864  0  -0.417952  -0.497548  0  2.241005  0
O  O470  1  0.26337937  0.74735891  0.18867985  1  -1.056872  0  -0.240292  -0.239268  0  2.479231  0
O  O471  1  0.73662788  0.25262931  0.81132830  1  -1.0571  0  -0.240166  -0.23924  0  2.478991  0
O  O472  1  0.36496122  0.92045490  0.16718530  1  -1.160617  0  -0.421833  -0.502329  0  2.245163  0
O  O473  1  0.63504664  0.07953470  0.83281518  1  -1.160542  0  -0.421844  -0.502458  0  2.245282  0
