# generated using pymatgen
data_Mn2H32C37S4N6O11
_symmetry_space_group_name_H-M   'P 1'
_cell_length_a   12.55676427
_cell_length_b   15.89300496
_cell_length_c   22.13248265
_cell_angle_alpha   108.30899084
_cell_angle_beta   90.00054859
_cell_angle_gamma   89.99936539
_symmetry_Int_Tables_number   1
_chemical_formula_structural   Mn2H32C37S4N6O11
_chemical_formula_sum   'Mn8 H128 C148 S16 N24 O44'
_cell_volume   4193.26423547
_cell_formula_units_Z   4
loop_
 _symmetry_equiv_pos_site_id
 _symmetry_equiv_pos_as_xyz
  1  'x, y, z'
loop_
 _atom_site_type_symbol
 _atom_site_label
 _atom_site_symmetry_multiplicity
 _atom_site_fract_x
 _atom_site_fract_y
 _atom_site_fract_z
 _atom_site_occupancy
 _atom_site_pbe_bader_charge
 _atom_site_pbe_bader_spin_density
 _atom_site_pbe_cm5_charge
 _atom_site_pbe_ddec_charge
 _atom_site_pbe_ddec_spin_density
 _atom_site_pbe_ddec_sum_bond_order
 _atom_site_pbe_magmom
Mn  Mn0  1  0.13672630  0.20913939  0.64425997  1  1.53286  4.473714  0.615157  0.99883  4.605854  2.398619  4.409
Mn  Mn1  1  0.63673259  0.79084419  0.85572788  1  1.533  4.473732  0.615168  0.999007  4.605834  2.398419  4.409
Mn  Mn2  1  0.86327797  0.79086166  0.35574226  1  1.532974  4.473725  0.615108  0.998782  4.605903  2.398659  4.409
Mn  Mn3  1  0.36326690  0.20915469  0.14426620  1  1.533059  4.473666  0.615114  0.998842  4.605774  2.398708  4.409
Mn  Mn4  1  0.06935852  0.43741920  0.72779113  1  1.514133  4.604448  0.594625  1.047724  4.726767  2.126701  4.516
Mn  Mn5  1  0.56933953  0.56256783  0.77220975  1  1.514008  4.604554  0.594679  1.047669  4.72711  2.126771  4.516
Mn  Mn6  1  0.93064973  0.56257735  0.27221511  1  1.514207  4.604504  0.594691  1.047724  4.726931  2.126587  4.516
Mn  Mn7  1  0.43065438  0.43743434  0.22778413  1  1.513963  4.604542  0.59469  1.047678  4.726996  2.126755  4.516
H  H8  1  0.21223371  0.28103177  0.40925782  1  0.085514  0.000151  0.10852  0.106081  6.7e-05  1.000993  0.0
H  H9  1  0.71224449  0.71899147  0.09074589  1  0.085934  0.00015  0.108552  0.106158  6.7e-05  1.001083  0.0
H  H10  1  0.78774348  0.71897342  0.59075162  1  0.085508  0.000151  0.108549  0.106113  6.7e-05  1.00106  0.0
H  H11  1  0.28777013  0.28101148  0.90925313  1  0.085834  0.000151  0.108549  0.106141  6.7e-05  1.00112  0.0
H  H12  1  0.21565074  0.17976424  0.29551141  1  0.143271  0.000205  0.104725  0.130999  -0.000344  1.022338  0.0
H  H13  1  0.71565486  0.82026142  0.20448470  1  0.143225  0.000205  0.104778  0.131083  -0.000344  1.022371  0.0
H  H14  1  0.78431450  0.82024677  0.70449340  1  0.143108  0.000205  0.104768  0.131082  -0.000345  1.02234  0.0
H  H15  1  0.28433746  0.17974138  0.79550842  1  0.142932  0.000205  0.10476  0.131134  -0.000344  1.022331  0.0
H  H16  1  0.58387197  0.90972432  0.31080208  1  0.107636  0.000194  0.099819  0.096192  -8.8e-05  1.047036  0.0
H  H17  1  0.08385855  0.09028341  0.18915062  1  0.108273  0.000194  0.099785  0.096308  -8.8e-05  1.046906  0.0
H  H18  1  0.41612911  0.09027023  0.68917706  1  0.108235  0.000194  0.099854  0.096322  -8.8e-05  1.046959  0.0
H  H19  1  0.91612899  0.90971681  0.81081799  1  0.108826  0.000194  0.099789  0.096248  -8.8e-05  1.046929  0.0
H  H20  1  0.40619986  0.97052249  0.29737944  1  0.150222  1.3e-05  0.097798  0.109533  -1.5e-05  1.07837  0.0
H  H21  1  0.90618719  0.02948351  0.20257010  1  0.150599  1.3e-05  0.097743  0.109378  -1.5e-05  1.078492  0.0
H  H22  1  0.59380440  0.02947861  0.70259840  1  0.15041  1.3e-05  0.097709  0.109381  -1.5e-05  1.078465  0.0
H  H23  1  0.09379876  0.97051423  0.79740476  1  0.15059  1.3e-05  0.097705  0.109372  -1.5e-05  1.078438  0.0
H  H24  1  0.44736117  0.64798932  0.24406712  1  0.082347  9.6e-05  0.110584  0.065565  -0.000222  1.076897  0.0
H  H25  1  0.94737910  0.35202398  0.25594882  1  0.081863  9.6e-05  0.110581  0.065588  -0.000222  1.076861  0.0
H  H26  1  0.55262000  0.35201253  0.75594070  1  0.082108  9.6e-05  0.110568  0.065581  -0.000222  1.076992  0.0
H  H27  1  0.05263313  0.64797723  0.74405931  1  0.081904  9.6e-05  0.110602  0.065615  -0.000223  1.07688  0.0
H  H28  1  0.84085931  0.12778144  0.59733644  1  0.11966  4.2e-05  0.114037  0.115192  -0.000195  1.001136  0.0
H  H29  1  0.34088231  0.87222111  0.90267780  1  0.119739  4.2e-05  0.11402  0.115282  -0.000196  1.001024  0.0
H  H30  1  0.15911948  0.87223942  0.40266732  1  0.119672  4.2e-05  0.114053  0.115295  -0.000195  1.001285  0.0
H  H31  1  0.65912674  0.12776758  0.09733083  1  0.119827  4.2e-05  0.114035  0.115343  -0.000196  1.001237  0.0
H  H32  1  0.65172228  0.08188248  0.56859174  1  0.101213  0.000218  0.101537  0.113425  0.000121  1.026744  0.0
H  H33  1  0.15173477  0.91812798  0.93142092  1  0.101189  0.000218  0.101551  0.113474  0.000121  1.026576  0.0
H  H34  1  0.34826924  0.91814807  0.43140370  1  0.100617  0.000218  0.101486  0.113445  0.000121  1.026638  0.0
H  H35  1  0.84826631  0.08185587  0.06857853  1  0.100793  0.000218  0.101482  0.113392  0.000121  1.02667  0.0
H  H36  1  0.46226964  0.36900527  0.40956309  1  0.082672  0.000387  0.114036  0.117474  1e-06  0.971861  0.0
H  H37  1  0.96226015  0.63099906  0.09044107  1  0.08283  0.000387  0.114004  0.117512  1e-06  0.971572  0.0
H  H38  1  0.53772826  0.63099615  0.59042747  1  0.08269  0.000387  0.113962  0.117462  1e-06  0.971565  0.0
H  H39  1  0.03774650  0.36899206  0.90955903  1  0.083014  0.000387  0.113954  0.117418  1e-06  0.97182  0.0
H  H40  1  0.47702946  0.29643631  0.49604289  1  0.097074  8.1e-05  0.099689  0.11306  1.4e-05  1.037036  0.0
H  H41  1  0.97702944  0.70357111  0.00395750  1  0.097192  8.1e-05  0.099657  0.113026  1.4e-05  1.036937  0.0
H  H42  1  0.52298357  0.70357963  0.50394852  1  0.097013  8.1e-05  0.099658  0.112911  1.4e-05  1.036883  0.0
H  H43  1  0.02298279  0.29641594  0.99603812  1  0.097358  8.1e-05  0.099678  0.112975  1.4e-05  1.036947  0.0
H  H44  1  0.28932506  0.05868115  0.58192557  1  0.114682  0.001413  0.11158  0.078942  0.000769  1.033204  0.001
H  H45  1  0.78935019  0.94129730  0.91805883  1  0.114197  0.001413  0.111637  0.078945  0.000768  1.0332  0.001
H  H46  1  0.71065213  0.94130894  0.41805985  1  0.114381  0.001414  0.111625  0.078912  0.000769  1.033145  0.001
H  H47  1  0.21064292  0.05869303  0.08193613  1  0.114161  0.001412  0.11163  0.078883  0.000768  1.033258  0.001
H  H48  1  0.30828564  0.89535367  0.55681300  1  0.086701  0.000541  0.092089  0.098227  0.000286  1.058874  0.0
H  H49  1  0.80830862  0.10463200  0.94317531  1  0.086324  0.000541  0.09202  0.098108  0.000286  1.058908  0.0
H  H50  1  0.69170031  0.10463828  0.44319406  1  0.086537  0.000541  0.092059  0.098185  0.000285  1.058901  0.0
H  H51  1  0.19169246  0.89536488  0.05681789  1  0.086576  0.000541  0.092051  0.098164  0.000286  1.058938  0.0
H  H52  1  0.00008834  0.89441627  0.64329423  1  0.075243  0.000574  0.101286  0.113036  0.000302  1.026031  0.0
H  H53  1  0.50010269  0.10557189  0.85670561  1  0.075549  0.000574  0.10131  0.113092  0.000302  1.026187  0.0
H  H54  1  0.99989283  0.10559029  0.35671731  1  0.075815  0.000574  0.101276  0.1131  0.000302  1.026066  0.0
H  H55  1  0.49988884  0.89442314  0.14329261  1  0.075533  0.000574  0.101311  0.113048  0.000302  1.026247  0.0
H  H56  1  0.99260885  0.05728870  0.66344349  1  0.100773  0.001282  0.112779  0.080915  0.000791  1.02915  0.001
H  H57  1  0.49262178  0.94269917  0.83655396  1  0.100642  0.001283  0.112806  0.080989  0.000791  1.029042  0.001
H  H58  1  0.00737312  0.94270813  0.33654789  1  0.100518  0.001283  0.112784  0.080961  0.000791  1.029046  0.001
H  H59  1  0.50736417  0.05729993  0.16344921  1  0.100372  0.001282  0.112816  0.081003  0.00079  1.029044  0.001
H  H60  1  0.16065993  0.75989709  0.62166855  1  0.053568  0.00045  0.090664  0.096629  0.000272  1.016802  0.0
H  H61  1  0.66066399  0.24008528  0.87833047  1  0.053198  0.00045  0.09067  0.096712  0.000272  1.01669  0.0
H  H62  1  0.83932442  0.24010584  0.37835577  1  0.052773  0.00045  0.090718  0.096752  0.000272  1.016726  0.0
H  H63  1  0.33932116  0.75990821  0.12165930  1  0.053323  0.00045  0.09069  0.096688  0.000272  1.016676  0.0
H  H64  1  0.23304107  0.75691318  0.55252651  1  0.046844  8.9e-05  0.090896  0.095039  4.5e-05  0.978914  0.0
H  H65  1  0.73304546  0.24308125  0.94747456  1  0.046857  8.9e-05  0.090877  0.095025  4.5e-05  0.978878  0.0
H  H66  1  0.76695603  0.24309322  0.44750488  1  0.047038  8.9e-05  0.090843  0.094972  4.5e-05  0.979007  0.0
H  H67  1  0.26695482  0.75691676  0.05251120  1  0.046561  8.9e-05  0.090891  0.094973  4.5e-05  0.979001  0.0
H  H68  1  0.05373638  0.76846086  0.49837256  1  0.052434  0.000222  0.091787  0.099171  -0.000298  1.00786  0.0
H  H69  1  0.55373499  0.23151385  0.00162172  1  0.052347  0.000222  0.091775  0.099079  -0.000298  1.007778  0.0
H  H70  1  0.94627266  0.23153120  0.50163904  1  0.052137  0.000222  0.091843  0.099019  -0.000298  1.007932  0.0
H  H71  1  0.44627166  0.76848384  0.99837753  1  0.05224  0.000222  0.091781  0.099041  -0.000298  1.007994  0.0
H  H72  1  0.98911255  0.75847728  0.56623773  1  0.015625  7.8e-05  0.08543  0.079192  6.3e-05  1.030666  0.0
H  H73  1  0.48911707  0.24150531  0.93375857  1  0.015989  7.8e-05  0.085483  0.079238  6.3e-05  1.03072  0.0
H  H74  1  0.01088295  0.24151079  0.43377257  1  0.015818  7.8e-05  0.085476  0.079053  6.3e-05  1.030742  0.0
H  H75  1  0.51087844  0.75849841  0.06624468  1  0.016147  7.8e-05  0.08549  0.079233  6.3e-05  1.030681  0.0
H  H76  1  0.99527202  0.61854707  0.47812247  1  0.0678  0.000221  0.099171  0.11296  -4.1e-05  0.998194  0.0
H  H77  1  0.49526841  0.38142873  0.02188344  1  0.067524  0.000221  0.09923  0.113016  -4.1e-05  0.998206  0.0
H  H78  1  0.00473464  0.38143934  0.52190012  1  0.067207  0.000221  0.099215  0.11298  -4.1e-05  0.998162  0.0
H  H79  1  0.50474462  0.61857555  0.97811586  1  0.068085  0.000221  0.099246  0.113003  -4.1e-05  0.99822  0.0
H  H80  1  0.13706605  0.61945737  0.47889966  1  0.021239  0.000148  0.090148  0.086333  5.8e-05  0.999363  0.0
H  H81  1  0.63706370  0.38051827  0.02110296  1  0.021126  0.000148  0.090126  0.086457  5.8e-05  0.999065  0.0
H  H82  1  0.86293741  0.38054259  0.52111138  1  0.021246  0.000148  0.090138  0.086358  5.8e-05  0.998985  0.0
H  H83  1  0.36294774  0.61947408  0.97889380  1  0.021235  0.000148  0.090113  0.086377  5.8e-05  0.999039  0.0
H  H84  1  0.23701635  0.58461789  0.56591447  1  0.049977  0.000595  0.111126  0.1195  0.000325  0.982275  0.0
H  H85  1  0.73699818  0.41537452  0.93408574  1  0.050279  0.000595  0.111113  0.119506  0.000325  0.982197  0.0
H  H86  1  0.76302933  0.41540132  0.43410204  1  0.050451  0.000594  0.111179  0.119696  0.000325  0.982012  0.0
H  H87  1  0.26301564  0.58461706  0.06590633  1  0.050392  0.000595  0.111217  0.119704  0.000325  0.982183  0.0
H  H88  1  0.22898683  0.51672485  0.65265878  1  0.084995  0.00168  0.120688  0.086127  0.000683  0.990691  0.001
H  H89  1  0.72895748  0.48326109  0.84734407  1  0.085308  0.00168  0.12064  0.085936  0.000684  0.991037  0.001
H  H90  1  0.77107239  0.48328243  0.34735517  1  0.085542  0.001681  0.12079  0.086111  0.000685  0.990805  0.001
H  H91  1  0.27105316  0.51672654  0.15264806  1  0.08545  0.001681  0.120678  0.086004  0.000685  0.990908  0.001
H  H92  1  0.89889347  0.51864048  0.65244630  1  0.136303  0.001312  0.114571  0.077579  0.000587  1.026313  0.0
H  H93  1  0.39886529  0.48135440  0.84756751  1  0.136191  0.001312  0.114529  0.077648  0.000587  1.026156  0.0
H  H94  1  0.10116654  0.48135324  0.34757876  1  0.135878  0.001311  0.114451  0.077475  0.000586  1.026121  0.0
H  H95  1  0.60114694  0.51864461  0.15243202  1  0.136038  0.001312  0.114474  0.077502  0.000587  1.026163  0.0
H  H96  1  0.89353737  0.58967564  0.56686531  1  0.085103  0.000547  0.110856  0.12247  0.000289  0.993065  0.0
H  H97  1  0.39351880  0.41032072  0.93315331  1  0.085193  0.000547  0.110766  0.122328  0.000289  0.993329  0.0
H  H98  1  0.10650512  0.41030815  0.43315808  1  0.084842  0.000547  0.110705  0.122303  0.000289  0.993297  0.0
H  H99  1  0.60649503  0.58968561  0.06684869  1  0.085085  0.000547  0.110727  0.12237  0.000289  0.993278  0.0
H  H100  1  0.19693254  0.04932771  0.46939922  1  0.089996  0.000224  0.111983  0.085604  -0.000189  1.005594  0.0
H  H101  1  0.69694383  0.95068142  0.03058918  1  0.090029  0.000224  0.112032  0.085745  -0.000189  1.005265  0.0
H  H102  1  0.80304784  0.95066868  0.53060065  1  0.089935  0.000224  0.111882  0.085485  -0.00019  1.005653  0.0
H  H103  1  0.30306601  0.04931736  0.96940126  1  0.090322  0.000224  0.111954  0.085657  -0.000189  1.005349  0.0
H  H104  1  0.74067743  0.39856588  0.63275061  1  0.084341  0.000305  0.114676  0.084223  -0.000368  1.030111  0.0
H  H105  1  0.24069250  0.60143728  0.86725916  1  0.084314  0.000305  0.114571  0.084135  -0.000367  1.030037  0.0
H  H106  1  0.25932444  0.60146271  0.36724576  1  0.084892  0.000305  0.114672  0.084167  -0.000368  1.029945  0.0
H  H107  1  0.75932451  0.39854425  0.13275290  1  0.084725  0.000305  0.114615  0.084154  -0.000368  1.030049  0.0
H  H108  1  0.46120634  0.10867369  0.27219723  1  0.111582  0.000191  0.10911  0.074942  -0.000242  1.032465  0.0
H  H109  1  0.96120507  0.89133913  0.22780378  1  0.111504  0.000191  0.1091  0.074895  -0.000242  1.032416  0.0
H  H110  1  0.53877085  0.89132795  0.72780196  1  0.111622  0.000191  0.109025  0.074679  -0.000242  1.032589  0.0
H  H111  1  0.03876893  0.10866231  0.77218769  1  0.111436  0.000191  0.109051  0.074818  -0.000242  1.03242  0.0
H  H112  1  0.18535220  0.34430847  0.60595721  1  0.651084  0.001744  0.29228  0.383418  0.001153  0.962427  0.003
H  H113  1  0.68534511  0.65568421  0.89403917  1  0.65117  0.001742  0.292301  0.38339  0.001152  0.962469  0.003
H  H114  1  0.81465605  0.65569117  0.39404110  1  0.651026  0.001744  0.292289  0.38336  0.001153  0.962526  0.003
H  H115  1  0.31464641  0.34431394  0.10595204  1  0.6509  0.001744  0.292204  0.383194  0.001153  0.962714  0.003
H  H116  1  0.25509199  0.35369849  0.67123982  1  0.644594  0.001334  0.297488  0.369528  0.001311  0.981877  0.002
H  H117  1  0.75509269  0.64628663  0.82876436  1  0.644629  0.001334  0.297586  0.369669  0.00131  0.981666  0.002
H  H118  1  0.74491466  0.64629657  0.32875977  1  0.644687  0.001334  0.297587  0.369668  0.001311  0.981676  0.002
H  H119  1  0.24490839  0.35371169  0.17123413  1  0.644744  0.001334  0.297549  0.369614  0.001311  0.981794  0.002
H  H120  1  0.95194290  0.58870590  0.79711234  1  0.64783  0.00127  0.286531  0.373808  0.001045  0.980033  0.002
H  H121  1  0.45193078  0.41128689  0.70288548  1  0.647833  0.00127  0.286533  0.373773  0.001045  0.98012  0.002
H  H122  1  0.04806853  0.41129712  0.20288940  1  0.647764  0.00127  0.286538  0.373821  0.001044  0.980056  0.002
H  H123  1  0.54806473  0.58870941  0.29711075  1  0.647761  0.00127  0.28654  0.373777  0.001045  0.980104  0.002
H  H124  1  0.04536661  0.58310040  0.84224271  1  0.640853  0.002434  0.296639  0.372809  0.001377  0.958104  0.003
H  H125  1  0.54534853  0.41689924  0.65775486  1  0.640789  0.002433  0.296702  0.372862  0.001376  0.958029  0.003
H  H126  1  0.95464960  0.41691322  0.15776085  1  0.641226  0.002431  0.29668  0.372896  0.001376  0.957988  0.003
H  H127  1  0.45464458  0.58310299  0.34224175  1  0.640636  0.002435  0.296685  0.37284  0.001377  0.95804  0.003
H  H128  1  0.28509428  0.43926258  0.75800495  1  0.653121  0.00063  0.298754  0.384747  0.000405  0.954581  0.001
H  H129  1  0.78508834  0.56073152  0.74199769  1  0.653197  0.00063  0.298792  0.384856  0.000404  0.95445  0.001
H  H130  1  0.71491238  0.56072527  0.24199627  1  0.653316  0.000629  0.29881  0.384897  0.000404  0.954385  0.001
H  H131  1  0.21491354  0.43927222  0.25800647  1  0.653321  0.00063  0.298806  0.3849  0.000404  0.954378  0.001
H  H132  1  0.28540108  0.54275125  0.77288239  1  0.6483  0.00279  0.310417  0.393883  0.001256  0.913216  0.002
H  H133  1  0.78539396  0.45724555  0.72712308  1  0.648269  0.002789  0.310479  0.393967  0.001255  0.913113  0.002
H  H134  1  0.71459841  0.45723806  0.22712455  1  0.648135  0.002791  0.310549  0.394107  0.001255  0.912889  0.002
H  H135  1  0.21459836  0.54275884  0.27288076  1  0.648164  0.002789  0.310562  0.394124  0.001255  0.912962  0.002
C  C136  1  0.20258521  0.22769273  0.51649338  1  1.583893  0.016838  0.211945  0.582471  0.015991  4.197608  0.014
C  C137  1  0.70258834  0.77230162  0.98349576  1  1.584044  0.016846  0.212085  0.582725  0.015993  4.196784  0.014
C  C138  1  0.79741587  0.77229566  0.48350297  1  1.584625  0.016848  0.21198  0.582482  0.015997  4.196982  0.014
C  C139  1  0.29741194  0.22769655  0.01649636  1  1.583931  0.016847  0.21198  0.582533  0.015994  4.197067  0.014
C  C140  1  0.20418654  0.17236843  0.44795037  1  -0.014078  0.000539  -0.023582  -0.106323  -0.000451  3.992726  -0.001
C  C141  1  0.70419117  0.82763893  0.05204854  1  -0.013987  0.00054  -0.023538  -0.106308  -0.00045  3.992143  -0.001
C  C142  1  0.79580339  0.82762158  0.55205808  1  -0.013895  0.000539  -0.023456  -0.105962  -0.000451  3.992273  -0.001
C  C143  1  0.29581389  0.17236192  0.94794551  1  -0.014046  0.00054  -0.023626  -0.106433  -0.00045  3.992278  -0.001
C  C144  1  0.20882560  0.20925391  0.39819627  1  -0.033342  0.005716  -0.06617  -0.039231  0.004409  3.968856  0.004
C  C145  1  0.70883237  0.79075957  0.10181120  1  -0.033431  0.005708  -0.066153  -0.039246  0.004403  3.969113  0.004
C  C146  1  0.79115080  0.79074284  0.60181814  1  -0.033442  0.005711  -0.066316  -0.039577  0.004405  3.969635  0.004
C  C147  1  0.29117189  0.20924268  0.89818586  1  -0.033421  0.005712  -0.066134  -0.039131  0.004406  3.96904  0.004
C  C148  1  0.21032982  0.15385318  0.33559780  1  -0.068427  -0.001208  -0.09622  -0.179831  -0.001312  3.946189  -0.001
C  C149  1  0.71033449  0.84615672  0.16439898  1  -0.068368  -0.001207  -0.096441  -0.180114  -0.001312  3.946658  -0.001
C  C150  1  0.78963940  0.84614201  0.66440724  1  -0.068822  -0.001207  -0.096239  -0.179713  -0.001312  3.946781  -0.001
C  C151  1  0.28966340  0.15384873  0.83559425  1  -0.06826  -0.001207  -0.09637  -0.180162  -0.001312  3.946553  -0.001
C  C152  1  0.20784487  0.06186725  0.32517155  1  0.395673  0.005462  0.115346  0.189196  0.004415  4.06036  0.004
C  C153  1  0.70785001  0.93814504  0.17481443  1  0.396319  0.005459  0.115395  0.189399  0.004414  4.060089  0.004
C  C154  1  0.79212356  0.93812504  0.67482248  1  0.395466  0.005461  0.115281  0.189113  0.004414  4.060148  0.004
C  C155  1  0.29213912  0.06186499  0.82517752  1  0.395506  0.005461  0.115379  0.189224  0.004414  4.060086  0.004
C  C156  1  0.63560925  0.73556497  0.28652941  1  1.543971  0.012244  0.218959  0.587975  0.011376  4.182632  0.011
C  C157  1  0.13560415  0.26443869  0.21345975  1  1.543485  0.012253  0.218875  0.587689  0.011383  4.183062  0.011
C  C158  1  0.36438467  0.26443322  0.71346362  1  1.54415  0.01225  0.218804  0.587679  0.011384  4.182922  0.011
C  C159  1  0.86439375  0.73555539  0.78652697  1  1.54367  0.01225  0.219  0.587944  0.011381  4.182956  0.011
C  C160  1  0.53099277  0.77335321  0.27652891  1  -0.055054  0.000388  -0.034426  -0.128634  -0.000119  4.01298  0.0
C  C161  1  0.03098917  0.22665904  0.22345792  1  -0.046078  0.000386  -0.034513  -0.128704  -0.00012  4.013532  0.0
C  C162  1  0.46900114  0.22664501  0.72346548  1  -0.054701  0.000389  -0.034504  -0.128689  -0.000118  4.013259  0.0
C  C163  1  0.96901111  0.77334237  0.77653219  1  -0.054638  0.000388  -0.034453  -0.128726  -0.000119  4.013351  0.0
C  C164  1  0.51748718  0.86530504  0.29147622  1  0.008918  0.002996  -0.069316  -0.03879  0.002169  3.969593  0.002
C  C165  1  0.01747665  0.13470227  0.20849367  1  -6.3e-05  0.002998  -0.069231  -0.038818  0.002169  3.969819  0.002
C  C166  1  0.48250992  0.13469239  0.70851258  1  0.007682  0.002995  -0.069237  -0.038884  0.002168  3.96961  0.002
C  C167  1  0.98251407  0.86529496  0.79148741  1  0.007338  0.002996  -0.069187  -0.038751  0.002169  3.96946  0.002
C  C168  1  0.41867957  0.89926067  0.28343907  1  -0.046723  -0.001025  -0.094679  -0.175595  -0.001078  3.965548  -0.001
C  C169  1  0.91867250  0.10074974  0.21653227  1  -0.047218  -0.001026  -0.094744  -0.175628  -0.001079  3.965712  -0.001
C  C170  1  0.58131513  0.10074205  0.71655086  1  -0.046566  -0.001025  -0.094635  -0.175367  -0.001078  3.965539  -0.001
C  C171  1  0.08131902  0.89925089  0.78345270  1  -0.047189  -0.001025  -0.094739  -0.175535  -0.001078  3.965816  -0.001
C  C172  1  0.33615615  0.83863185  0.25934242  1  0.431001  0.003426  0.117897  0.197166  0.002884  4.047136  0.002
C  C173  1  0.83615819  0.16138579  0.24065714  1  0.431879  0.003428  0.117989  0.197538  0.002886  4.047106  0.002
C  C174  1  0.66383378  0.16137316  0.74065975  1  0.43177  0.003426  0.11785  0.197159  0.002884  4.047109  0.002
C  C175  1  0.16383732  0.83862245  0.75934211  1  0.431982  0.003426  0.117955  0.197442  0.002884  4.04714  0.002
C  C176  1  0.44176377  0.71943535  0.25466632  1  0.505723  0.003985  0.04401  0.09359  0.003158  3.959389  0.003
C  C177  1  0.94177537  0.28057843  0.24534066  1  0.505071  0.003993  0.044097  0.093794  0.003164  3.959321  0.003
C  C178  1  0.55821740  0.28056773  0.74533770  1  0.506089  0.003988  0.044108  0.09376  0.00316  3.959415  0.003
C  C179  1  0.05823447  0.71942329  0.75466171  1  0.505718  0.003988  0.043976  0.093668  0.00316  3.959456  0.003
C  C180  1  0.91599564  0.29824180  0.63810977  1  1.609789  0.023118  0.228215  0.60419  0.02185  4.166631  0.019
C  C181  1  0.41600204  0.70176663  0.86189708  1  1.60976  0.023104  0.22808  0.604151  0.021838  4.167255  0.019
C  C182  1  0.08399986  0.70177978  0.36189594  1  1.57829  0.023218  0.227886  0.60389  0.021849  4.16752  0.019
C  C183  1  0.58400462  0.29822192  0.13810563  1  1.577645  0.02322  0.227911  0.603949  0.021842  4.167422  0.019
C  C184  1  0.80519963  0.26733037  0.61779025  1  0.055801  0.003155  -0.009803  -0.073015  0.00165  3.951527  0.001
C  C185  1  0.30521389  0.73266901  0.88221860  1  0.055228  0.003155  -0.009949  -0.073276  0.00165  3.952123  0.001
C  C186  1  0.19479189  0.73269317  0.38221498  1  0.08731  0.003049  -0.009804  -0.073385  0.00165  3.952166  0.001
C  C187  1  0.69479196  0.26731430  0.11778526  1  0.087189  0.003049  -0.009777  -0.073212  0.001649  3.952242  0.001
C  C188  1  0.77994359  0.17689701  0.59799713  1  -0.072527  0.005508  -0.057026  -0.028678  0.004087  3.912913  0.003
C  C189  1  0.27995692  0.82309792  0.90201063  1  -0.071471  0.00551  -0.056962  -0.028864  0.004089  3.91305  0.003
C  C190  1  0.22004475  0.82312450  0.40200586  1  -0.072079  0.005513  -0.057163  -0.028852  0.004091  3.913141  0.003
C  C191  1  0.72005372  0.17688007  0.09799164  1  -0.072311  0.00551  -0.057175  -0.028966  0.004089  3.913347  0.003
C  C192  1  0.67517302  0.15135835  0.58217863  1  -0.045088  -0.000599  -0.084869  -0.157917  -0.00071  3.967095  -0.001
C  C193  1  0.17517749  0.84864525  0.91782998  1  -0.04632  -0.000597  -0.084904  -0.157981  -0.000709  3.967066  -0.001
C  C194  1  0.32482169  0.84867103  0.41782288  1  -0.045839  -0.000598  -0.084832  -0.1581  -0.00071  3.967212  -0.001
C  C195  1  0.82482359  0.15133336  0.08217061  1  -0.045461  -0.000598  -0.084788  -0.157971  -0.000709  3.967136  -0.001
C  C196  1  0.59927564  0.21725323  0.58531927  1  0.426065  0.006567  0.110111  0.177894  0.005484  4.041004  0.005
C  C197  1  0.09928178  0.78275481  0.91468717  1  0.42643  0.006565  0.110148  0.178025  0.005482  4.041276  0.005
C  C198  1  0.40071907  0.78278466  0.41468000  1  0.425812  0.006568  0.109983  0.178052  0.005484  4.041101  0.005
C  C199  1  0.90071930  0.21722509  0.08531234  1  0.425981  0.006569  0.110034  0.178051  0.005485  4.041106  0.005
C  C200  1  0.44365849  0.28054290  0.28066596  1  1.564189  0.027117  0.222409  0.596005  0.026319  4.195678  0.023
C  C201  1  0.94365551  0.71946941  0.21933574  1  1.563309  0.027113  0.222376  0.595981  0.026313  4.196074  0.023
C  C202  1  0.55632030  0.71945923  0.71932655  1  1.563904  0.027109  0.222384  0.596196  0.026311  4.195998  0.022
C  C203  1  0.05633840  0.28053091  0.78066317  1  1.563538  0.02713  0.222377  0.595924  0.026329  4.19581  0.023
C  C204  1  0.45922053  0.24401289  0.33449855  1  0.022912  0.001344  -0.021731  -0.102309  7.2e-05  3.982008  0.0
C  C205  1  0.95920339  0.75600475  0.16550980  1  0.023004  0.001343  -0.021712  -0.102428  7.2e-05  3.98199  0.0
C  C206  1  0.54076701  0.75599881  0.66550776  1  0.022336  0.001342  -0.021904  -0.102784  7e-05  3.982114  0.0
C  C207  1  0.04078813  0.24399629  0.83449152  1  0.0228  0.001342  -0.021828  -0.10259  7.1e-05  3.981918  0.0
C  C208  1  0.46543408  0.29711623  0.39819399  1  -0.066053  0.007795  -0.061517  -0.028598  0.005853  3.937163  0.005
C  C209  1  0.96541979  0.70289876  0.10181563  1  -0.065278  0.007796  -0.061514  -0.028627  0.005853  3.936659  0.005
C  C210  1  0.53456302  0.70289994  0.60180605  1  -0.064887  0.007793  -0.061469  -0.028551  0.005851  3.936454  0.005
C  C211  1  0.03458288  0.29710103  0.89818859  1  -0.065566  0.007796  -0.06147  -0.028462  0.005853  3.936786  0.005
C  C212  1  0.47350690  0.25742442  0.44587192  1  0.041416  -0.001783  -0.095107  -0.179478  -0.001867  3.977171  -0.002
C  C213  1  0.97350479  0.74258845  0.05413412  1  0.041019  -0.001785  -0.095166  -0.179633  -0.001868  3.976825  -0.002
C  C214  1  0.52649975  0.74259569  0.55412760  1  0.041137  -0.001784  -0.095054  -0.179323  -0.001868  3.976746  -0.002
C  C215  1  0.02650425  0.25740854  0.94586362  1  0.041097  -0.001785  -0.095089  -0.17945  -0.001869  3.976751  -0.002
C  C216  1  0.47315619  0.16461201  0.42710232  1  0.395451  0.007172  0.112862  0.192299  0.005864  4.055295  0.005
C  C217  1  0.97315310  0.83540333  0.07289703  1  0.395664  0.007172  0.112968  0.192341  0.005865  4.055289  0.005
C  C218  1  0.52684250  0.83541338  0.57289789  1  0.39519  0.007171  0.112915  0.192182  0.005864  4.055882  0.005
C  C219  1  0.02684719  0.16459088  0.92709470  1  0.395442  0.007175  0.112985  0.19231  0.005867  4.055277  0.005
C  C220  1  0.22697578  0.01954238  0.59464993  1  0.460185  0.008624  0.045115  0.098581  0.006677  3.96525  0.006
C  C221  1  0.72699537  0.98043737  0.90534210  1  0.464928  0.008606  0.044985  0.098496  0.006675  3.965117  0.006
C  C222  1  0.77300619  0.98044921  0.40534259  1  0.464593  0.00861  0.045052  0.098485  0.006678  3.964736  0.006
C  C223  1  0.27299695  0.01955564  0.09465479  1  0.464901  0.008611  0.045004  0.098591  0.006678  3.964744  0.006
C  C224  1  0.23681496  0.92840496  0.58079188  1  -0.063649  -0.000171  -0.09264  -0.192414  -0.000687  3.957805  0.0
C  C225  1  0.73683562  0.07158063  0.91919919  1  -0.062984  -0.000169  -0.092499  -0.192167  -0.000685  3.957231  0.0
C  C226  1  0.76316700  0.07159090  0.41921330  1  -0.063784  -0.000169  -0.092628  -0.192248  -0.000686  3.957513  0.0
C  C227  1  0.26316068  0.92841294  0.08079331  1  -0.063911  -0.000169  -0.09254  -0.192229  -0.000685  3.957643  0.0
C  C228  1  0.15484130  0.87995706  0.59714633  1  0.100813  0.007185  0.012992  0.173637  0.005512  3.939843  0.005
C  C229  1  0.65485383  0.12003257  0.90285149  1  0.101198  0.007182  0.012836  0.173324  0.00551  3.939898  0.005
C  C230  1  0.84514465  0.12004297  0.40286788  1  0.028713  0.007189  0.012964  0.173382  0.005511  3.939779  0.005
C  C231  1  0.34514088  0.87996825  0.09714120  1  0.101201  0.007184  0.012927  0.173354  0.005512  3.940133  0.005
C  C232  1  0.06628657  0.92780625  0.62856693  1  -0.090965  -0.000462  -0.089161  -0.1825  -0.001031  3.933457  0.0
C  C233  1  0.56629605  0.07218069  0.87142984  1  -0.090943  -0.000461  -0.089244  -0.182544  -0.00103  3.933745  0.0
C  C234  1  0.93370336  0.07219820  0.37143918  1  -0.091248  -0.000461  -0.089192  -0.182366  -0.001031  3.9335  0.0
C  C235  1  0.43370025  0.92781368  0.12856870  1  -0.09084  -0.000462  -0.08925  -0.182458  -0.001031  3.933895  0.0
C  C236  1  0.06173296  0.01889005  0.64032985  1  0.478812  0.00872  0.047017  0.09271  0.007023  3.962134  0.006
C  C237  1  0.56174779  0.98110298  0.85967182  1  0.478524  0.008715  0.047007  0.092602  0.007019  3.962222  0.006
C  C238  1  0.93824821  0.98111487  0.35966868  1  0.479407  0.008716  0.046989  0.092425  0.007022  3.962396  0.006
C  C239  1  0.43824612  0.01889150  0.14033081  1  0.479038  0.008717  0.046954  0.092504  0.007021  3.962131  0.006
C  C240  1  0.15867324  0.78073982  0.57866281  1  -0.076788  0.000104  -0.163324  -0.20603  0.000142  3.943617  0.0
C  C241  1  0.65867354  0.21924786  0.92133687  1  -0.07688  0.000104  -0.163072  -0.205823  0.000142  3.943984  0.0
C  C242  1  0.84132784  0.21926233  0.42135682  1  -0.003986  9.8e-05  -0.16334  -0.206173  0.000142  3.943993  0.0
C  C243  1  0.34131559  0.78074641  0.07865758  1  -0.076495  0.000103  -0.163242  -0.205806  0.000142  3.943452  0.0
C  C244  1  0.06183693  0.74020030  0.53754742  1  -0.001387  0.001064  -0.16365  -0.131351  0.000852  3.90069  0.001
C  C245  1  0.56183496  0.25977930  0.96244414  1  -0.000627  0.001064  -0.163764  -0.131363  0.000851  3.901029  0.001
C  C246  1  0.93816575  0.25979183  0.46246690  1  -0.001059  0.001064  -0.163618  -0.130791  0.000851  3.900912  0.001
C  C247  1  0.43816851  0.74021956  0.03754903  1  -0.000886  0.001064  -0.163685  -0.131214  0.000851  3.900571  0.001
C  C248  1  0.06551908  0.63893593  0.50879375  1  0.00933  0.000256  -0.161933  -0.213055  0.00017  3.956647  0.0
C  C249  1  0.56550901  0.36103996  0.99120879  1  0.008296  0.000256  -0.161974  -0.213286  0.00017  3.956567  0.0
C  C250  1  0.93450510  0.36105224  0.49122018  1  0.008906  0.000256  -0.16191  -0.213117  0.00017  3.956476  0.0
C  C251  1  0.43450322  0.63895505  0.00878898  1  0.007856  0.000256  -0.161961  -0.213206  0.00017  3.956444  0.0
C  C252  1  0.06531753  0.59398422  0.55905560  1  -0.048225  0.005027  0.017076  0.176129  0.003808  3.939377  0.003
C  C253  1  0.56530917  0.40600236  0.94095239  1  -0.047658  0.005023  0.016858  0.175831  0.003805  3.939511  0.003
C  C254  1  0.93471142  0.40601592  0.44096270  1  -0.045795  0.005022  0.016792  0.175936  0.003804  3.939591  0.003
C  C255  1  0.43470545  0.59399129  0.05904328  1  -0.046901  0.005026  0.016835  0.175956  0.003807  3.93958  0.003
C  C256  1  0.15990437  0.57194213  0.58401769  1  0.035286  7.4e-05  -0.079908  -0.181139  -0.000397  3.93376  0.0
C  C257  1  0.65988811  0.42804695  0.91598546  1  0.034752  7.5e-05  -0.079713  -0.180809  -0.000395  3.933331  0.0
C  C258  1  0.84013812  0.42807058  0.41600239  1  0.033755  7.5e-05  -0.079826  -0.181193  -0.000395  3.933493  0.0
C  C259  1  0.34012572  0.57194456  0.08400388  1  0.033953  7.5e-05  -0.07983  -0.181143  -0.000396  3.93347  0.0
C  C260  1  0.15602666  0.53374942  0.63246998  1  0.506139  0.006854  0.055725  0.116491  0.005305  3.957032  0.004
C  C261  1  0.65599550  0.46624032  0.86753240  1  0.506377  0.006849  0.055793  0.116598  0.005303  3.957419  0.004
C  C262  1  0.84403495  0.46625852  0.36754367  1  0.506244  0.00685  0.05576  0.116519  0.005305  3.957153  0.004
C  C263  1  0.34401832  0.53375059  0.13245953  1  0.50612  0.006855  0.055769  0.116611  0.005308  3.957001  0.004
C  C264  1  0.97243283  0.53563024  0.63278548  1  0.416603  0.00638  0.046011  0.095444  0.004848  3.980053  0.004
C  C265  1  0.47240602  0.46436343  0.86722711  1  0.418513  0.006368  0.045977  0.095218  0.004841  3.9802  0.004
C  C266  1  0.02762320  0.46436278  0.36723808  1  0.420335  0.006368  0.046132  0.095473  0.004839  3.979709  0.004
C  C267  1  0.52760462  0.53563483  0.13276865  1  0.420229  0.006372  0.046102  0.095504  0.004844  3.980127  0.004
C  C268  1  0.96980010  0.57519759  0.58506015  1  -0.064726  0.000289  -0.083635  -0.186616  -0.000162  3.931275  0.0
C  C269  1  0.46977863  0.42479671  0.91495075  1  -0.067042  0.000296  -0.083553  -0.186537  -0.00016  3.931219  0.0
C  C270  1  0.03024637  0.42479597  0.41495855  1  -0.070097  0.000297  -0.083717  -0.186804  -0.00016  3.931232  0.0
C  C271  1  0.53023439  0.57520157  0.08504591  1  -0.069082  0.000295  -0.083619  -0.186818  -0.000161  3.931213  0.0
C  C272  1  0.20119982  0.07982449  0.43161829  1  0.503026  0.003561  0.04991  0.088172  0.002752  3.96075  0.002
C  C273  1  0.70120661  0.92018011  0.06837459  1  0.50265  0.003564  0.049757  0.087835  0.002754  3.960528  0.002
C  C274  1  0.79877976  0.92016736  0.56838468  1  0.503126  0.003563  0.049969  0.08813  0.002753  3.960989  0.002
C  C275  1  0.29879447  0.07981602  0.93161529  1  0.502393  0.003562  0.050018  0.088068  0.002753  3.960429  0.002
C  C276  1  0.72391553  0.32771177  0.61866239  1  0.513829  0.006105  0.043074  0.071746  0.00466  3.954433  0.004
C  C277  1  0.22392824  0.67229016  0.88134612  1  0.514513  0.006101  0.043305  0.072109  0.004657  3.953965  0.004
C  C278  1  0.27608475  0.67231226  0.38133617  1  0.514428  0.006101  0.043188  0.072281  0.004657  3.954101  0.004
C  C279  1  0.77607921  0.32769389  0.11866151  1  0.514383  0.006106  0.04331  0.072178  0.004662  3.954123  0.004
C  C280  1  0.46467470  0.15185840  0.32143925  1  0.510736  0.005982  0.049048  0.086823  0.004698  3.982512  0.004
C  C281  1  0.96466445  0.84815383  0.17856526  1  0.51005  0.005984  0.049142  0.087069  0.004698  3.982068  0.004
C  C282  1  0.53530727  0.84814659  0.67856201  1  0.510345  0.005988  0.049274  0.087464  0.004702  3.981839  0.004
C  C283  1  0.03532070  0.15184776  0.82143212  1  0.509473  0.00599  0.049219  0.087206  0.004702  3.98175  0.004
S  S284  1  0.21481794  0.99396349  0.24423005  1  0.06034  0.002156  0.059659  0.006711  0.001324  2.860232  0.001
S  S285  1  0.71483197  0.00605368  0.25576876  1  0.060541  0.002154  0.059664  0.006728  0.001323  2.859986  0.001
S  S286  1  0.78515686  0.00604230  0.75577681  1  0.060591  0.002154  0.059517  0.006507  0.001323  2.859793  0.001
S  S287  1  0.28515318  0.99394917  0.74422617  1  0.060591  0.002155  0.05956  0.006629  0.001323  2.859926  0.001
S  S288  1  0.20417597  0.86756488  0.24598841  1  0.114957  0.002034  0.069676  0.028048  0.001269  2.851875  0.001
S  S289  1  0.70418581  0.13245320  0.25401731  1  0.114855  0.002035  0.069665  0.027898  0.001269  2.852199  0.001
S  S290  1  0.79580998  0.13243618  0.75401382  1  0.114805  0.002034  0.069764  0.028116  0.001269  2.852015  0.001
S  S291  1  0.29581527  0.86755242  0.74598273  1  0.114765  0.002035  0.069699  0.027975  0.001269  2.852091  0.001
S  S292  1  0.46233675  0.18949609  0.56802200  1  0.068181  0.00195  0.050746  0.00949  0.000789  2.850247  0.0
S  S293  1  0.96235201  0.81050589  0.93197740  1  0.068386  0.00195  0.050779  0.009478  0.000789  2.850469  0.0
S  S294  1  0.53765398  0.81053523  0.43197812  1  0.068197  0.00195  0.050859  0.00952  0.000789  2.850151  0.0
S  S295  1  0.03765783  0.18947454  0.06801680  1  0.067997  0.001951  0.050822  0.009485  0.000789  2.850035  0.0
S  S296  1  0.47218630  0.09951598  0.47936561  1  0.060858  0.003502  0.050781  -0.014043  0.002614  2.839093  0.002
S  S297  1  0.97218857  0.90048490  0.02063516  1  0.060681  0.003504  0.050837  -0.013877  0.002616  2.839311  0.002
S  S298  1  0.52780921  0.90049965  0.52063974  1  0.061005  0.003504  0.050785  -0.013893  0.002615  2.839281  0.002
S  S299  1  0.02780773  0.09950008  0.97935640  1  0.061185  0.003505  0.050805  -0.013928  0.002616  2.838836  0.002
N  N300  1  0.20327189  0.02506122  0.37161176  1  -1.186746  -0.000315  -0.323021  -0.311297  -0.000865  3.396218  -0.001
N  N301  1  0.70327812  0.97495532  0.12838505  1  -1.187379  -0.000314  -0.322811  -0.311039  -0.000865  3.396163  -0.001
N  N302  1  0.79670132  0.97494054  0.62839243  1  -1.186427  -0.000315  -0.322847  -0.311051  -0.000865  3.396358  -0.001
N  N303  1  0.29671738  0.02504481  0.87160659  1  -1.186656  -0.000315  -0.322984  -0.311102  -0.000865  3.396156  -0.001
N  N304  1  0.62246746  0.30420099  0.60280772  1  -1.232505  0.00059  -0.319189  -0.308602  -0.000583  3.373564  -0.001
N  N305  1  0.12248647  0.69580366  0.89720127  1  -1.232777  0.000591  -0.319289  -0.308763  -0.000582  3.373224  -0.001
N  N306  1  0.37753203  0.69582431  0.39718885  1  -1.232161  0.00059  -0.319136  -0.308752  -0.000583  3.373319  -0.001
N  N307  1  0.87753213  0.30418030  0.10280227  1  -1.232497  0.00059  -0.319253  -0.308781  -0.000584  3.373105  -0.001
N  N308  1  0.47115792  0.11240637  0.36639070  1  -1.227725  -0.000275  -0.320821  -0.288921  -0.00104  3.350957  -0.001
N  N309  1  0.97115512  0.88759782  0.13361031  1  -1.227486  -0.000276  -0.32096  -0.289046  -0.001041  3.350805  -0.001
N  N310  1  0.52883121  0.88759858  0.63360875  1  -1.227879  -0.000276  -0.320943  -0.289114  -0.001042  3.351244  -0.001
N  N311  1  0.02883641  0.11239448  0.86638462  1  -1.227326  -0.000276  -0.320992  -0.289089  -0.001041  3.350944  -0.001
N  N312  1  0.14032520  0.06459063  0.62339041  1  -1.261859  0.051509  -0.326521  -0.259408  0.034507  3.518632  0.014
N  N313  1  0.64034574  0.93539844  0.87660722  1  -1.266588  0.05156  -0.326502  -0.259335  0.034511  3.518656  0.014
N  N314  1  0.85965040  0.93540821  0.37660231  1  -1.266199  0.051527  -0.32649  -0.259181  0.034506  3.518502  0.014
N  N315  1  0.35964499  0.06460388  0.12339302  1  -1.266436  0.051568  -0.326488  -0.259376  0.034515  3.518071  0.014
N  N316  1  0.06398179  0.51503488  0.65683607  1  -1.260973  0.045694  -0.324245  -0.288014  0.031081  3.509299  0.014
N  N317  1  0.56395314  0.48495106  0.84317268  1  -1.260884  0.045698  -0.324202  -0.287803  0.031083  3.509792  0.014
N  N318  1  0.93607424  0.48496462  0.34318299  1  -1.260056  0.045684  -0.324135  -0.287614  0.031076  3.509048  0.014
N  N319  1  0.43605909  0.51504058  0.15682212  1  -1.260118  0.045673  -0.324159  -0.287736  0.031081  3.509546  0.014
N  N320  1  0.34630895  0.75055322  0.24535243  1  -1.204697  -4.6e-05  -0.330478  -0.305861  -0.000608  3.323813  -0.001
N  N321  1  0.84631875  0.24946016  0.25466389  1  -1.204799  -4.6e-05  -0.330609  -0.306287  -0.000608  3.323852  -0.001
N  N322  1  0.65367621  0.24944933  0.75465644  1  -1.205438  -4.6e-05  -0.330553  -0.306076  -0.000608  3.323801  -0.001
N  N323  1  0.15368711  0.75054432  0.74534314  1  -1.204856  -4.6e-05  -0.330543  -0.306152  -0.000608  3.323708  -0.001
O  O324  1  0.19138043  0.31114438  0.53130475  1  -1.153005  0.016355  -0.320141  -0.542951  0.0111  2.131293  0.013
O  O325  1  0.69137015  0.68885172  0.96869872  1  -1.153161  0.016354  -0.320139  -0.54307  0.011099  2.130915  0.013
O  O326  1  0.80862703  0.68884415  0.46869751  1  -1.153326  0.016356  -0.320137  -0.542955  0.0111  2.130988  0.013
O  O327  1  0.30861978  0.31114852  0.03129746  1  -1.153027  0.016353  -0.32012  -0.54289  0.011098  2.130893  0.013
O  O328  1  0.21285760  0.18470507  0.55650265  1  -1.209758  0.058282  -0.32677  -0.592767  0.0406  2.39135  0.022
O  O329  1  0.71288016  0.81528118  0.94348166  1  -1.209784  0.058259  -0.326967  -0.5929  0.040596  2.391045  0.022
O  O330  1  0.78713711  0.81528925  0.44349362  1  -1.210059  0.058284  -0.326799  -0.592809  0.040603  2.391228  0.022
O  O331  1  0.28713127  0.18471231  0.05650765  1  -1.209594  0.058262  -0.3268  -0.592705  0.040586  2.391217  0.022
O  O332  1  0.99080165  0.24779716  0.60962658  1  -1.191391  0.058905  -0.298545  -0.538626  0.041673  2.300916  0.026
O  O333  1  0.49080224  0.75221654  0.89037547  1  -1.191599  0.058903  -0.298545  -0.538684  0.041683  2.300935  0.026
O  O334  1  0.00919783  0.75222248  0.39038098  1  -1.191861  0.058924  -0.298496  -0.538585  0.041682  2.301143  0.026
O  O335  1  0.50920362  0.24777519  0.10962295  1  -1.1915  0.058899  -0.298562  -0.538622  0.041677  2.300902  0.026
O  O336  1  0.92547166  0.37290628  0.68228068  1  -1.206153  0.074974  -0.307067  -0.58724  0.054178  2.271578  0.038
O  O337  1  0.42548154  0.62710553  0.81773238  1  -1.206043  0.07499  -0.306898  -0.587045  0.054175  2.271971  0.038
O  O338  1  0.07452544  0.62711475  0.31772944  1  -1.206158  0.074993  -0.306766  -0.586861  0.054171  2.271789  0.038
O  O339  1  0.57452273  0.37288566  0.18227045  1  -1.205778  0.074986  -0.306795  -0.586962  0.054172  2.271917  0.038
O  O340  1  0.71612416  0.78585799  0.29805050  1  -1.198915  0.048726  -0.295615  -0.540768  0.035418  2.303778  0.02
O  O341  1  0.21611878  0.21414239  0.20193614  1  -1.198655  0.048744  -0.295463  -0.540576  0.035432  2.303882  0.02
O  O342  1  0.28386816  0.21414079  0.70193995  1  -1.199055  0.048738  -0.295511  -0.540585  0.035431  2.303831  0.02
O  O343  1  0.78387514  0.78584488  0.79804190  1  -1.198843  0.048758  -0.295644  -0.540839  0.035432  2.304135  0.02
O  O344  1  0.63897054  0.65299387  0.28391855  1  -1.209403  0.007253  -0.314112  -0.582384  0.003538  2.292171  0.005
O  O345  1  0.13897070  0.34700925  0.21607685  1  -1.209395  0.007257  -0.314168  -0.58229  0.003541  2.292331  0.005
O  O346  1  0.36102815  0.34700099  0.71607332  1  -1.209379  0.007257  -0.314061  -0.582227  0.003541  2.292337  0.005
O  O347  1  0.86103835  0.65298689  0.78391348  1  -1.209313  0.007257  -0.314134  -0.582342  0.003541  2.292228  0.005
O  O348  1  0.45299919  0.22481026  0.22515852  1  -1.194502  0.066526  -0.316468  -0.577983  0.046388  2.405687  0.027
O  O349  1  0.95300991  0.77519009  0.27484203  1  -1.194413  0.066533  -0.3165  -0.577904  0.046379  2.405835  0.027
O  O350  1  0.54698198  0.77518334  0.77483533  1  -1.194405  0.066528  -0.316541  -0.578063  0.046385  2.405592  0.027
O  O351  1  0.04698002  0.22481145  0.72515308  1  -1.194266  0.066528  -0.316489  -0.577837  0.046382  2.405666  0.027
O  O352  1  0.42080021  0.36233581  0.29281873  1  -1.184522  0.069065  -0.314237  -0.558569  0.047296  2.241825  0.034
O  O353  1  0.92079500  0.63767669  0.20718379  1  -1.184112  0.069072  -0.314182  -0.558555  0.047306  2.24196  0.034
O  O354  1  0.57917857  0.63766969  0.70717631  1  -1.184051  0.069066  -0.314032  -0.558447  0.047292  2.241879  0.034
O  O355  1  0.07920768  0.36232309  0.79281997  1  -1.184065  0.069073  -0.314122  -0.558523  0.047301  2.241916  0.034
O  O356  1  0.18116038  0.35311178  0.65432140  1  -1.328662  0.103243  -0.553339  -0.795468  0.08052  2.326008  0.051
O  O357  1  0.68116455  0.64687645  0.84568078  1  -1.32871  0.103209  -0.553403  -0.795474  0.080506  2.32596  0.051
O  O358  1  0.81884786  0.64688600  0.34568194  1  -1.328745  0.103228  -0.5534  -0.795488  0.080513  2.325943  0.051
O  O359  1  0.31883574  0.35312908  0.15431608  1  -1.328684  0.103242  -0.553311  -0.795337  0.080513  2.326107  0.051
O  O360  1  0.00291137  0.54560363  0.80634788  1  -1.300132  0.060716  -0.575495  -0.763509  0.043963  2.108138  0.026
O  O361  1  0.50289257  0.45439239  0.69365095  1  -1.299838  0.060684  -0.575556  -0.763558  0.043966  2.10827  0.026
O  O362  1  0.99710564  0.45440336  0.19365426  1  -1.300375  0.060717  -0.575529  -0.76362  0.04396  2.108253  0.026
O  O363  1  0.49710134  0.54560720  0.30634555  1  -1.299683  0.060698  -0.575562  -0.763535  0.043964  2.108295  0.026
O  O364  1  0.23894280  0.49246877  0.77124470  1  -1.305666  0.041121  -0.565279  -0.760104  0.030614  2.062731  0.018
O  O365  1  0.73893738  0.50752771  0.72876091  1  -1.305624  0.041102  -0.56539  -0.760242  0.030609  2.062713  0.018
O  O366  1  0.76105988  0.50751791  0.22876259  1  -1.305682  0.041109  -0.565447  -0.760454  0.030613  2.062451  0.018
O  O367  1  0.26106131  0.49247995  0.27124183  1  -1.305696  0.041106  -0.565445  -0.760457  0.03061  2.062505  0.018
