# generated using pymatgen
data_CdH18C26S(N2O3)2
_symmetry_space_group_name_H-M   'P 1'
_cell_length_a   13.12649652
_cell_length_b   19.08574540
_cell_length_c   25.90534932
_cell_angle_alpha   89.99995954
_cell_angle_beta   89.99994985
_cell_angle_gamma   105.31457019
_symmetry_Int_Tables_number   1
_chemical_formula_structural   CdH18C26S(N2O3)2
_chemical_formula_sum   'Cd8 H144 C208 S8 N32 O48'
_cell_volume   6259.58100801
_cell_formula_units_Z   8
loop_
 _symmetry_equiv_pos_site_id
 _symmetry_equiv_pos_as_xyz
  1  'x, y, z'
loop_
 _atom_site_type_symbol
 _atom_site_label
 _atom_site_symmetry_multiplicity
 _atom_site_fract_x
 _atom_site_fract_y
 _atom_site_fract_z
 _atom_site_occupancy
 _atom_site_pbe_bader_charge
 _atom_site_pbe_bader_spin_density
 _atom_site_pbe_cm5_charge
 _atom_site_pbe_ddec_charge
 _atom_site_pbe_ddec_spin_density
 _atom_site_pbe_ddec_sum_bond_order
 _atom_site_pbe_magmom
Cd  Cd0  1  0.38741692  0.20271254  0.94988823  1  1.280706  0  0.773523  0.885028  0  2.19271  0
Cd  Cd1  1  0.11258093  0.29728559  0.44988613  1  1.280739  0  0.773493  0.884968  0  2.1928  0
Cd  Cd2  1  0.61258101  0.79728548  0.05011401  1  1.280693  0  0.773509  0.884978  0  2.192781  0
Cd  Cd3  1  0.88741991  0.70271406  0.55011341  1  1.280724  0  0.773535  0.885015  0  2.192757  0
Cd  Cd4  1  0.44591859  0.36977772  0.05411256  1  1.284146  0  0.77803  0.898214  0  2.173128  0
Cd  Cd5  1  0.05408097  0.13022311  0.55411099  1  1.284217  0  0.777989  0.89818  0  2.173156  0
Cd  Cd6  1  0.55408017  0.63022247  0.94588775  1  1.284154  0  0.778008  0.898191  0  2.173096  0
Cd  Cd7  1  0.94592104  0.86977762  0.44588700  1  1.284209  0  0.778012  0.898184  0  2.173111  0
H  H8  1  0.75137234  0.47567252  0.96237276  1  0.110581  0  0.100849  0.100788  0  1.05066  0
H  H9  1  0.74862634  0.02432521  0.46237151  1  0.110572  0  0.100849  0.100735  0  1.050681  0
H  H10  1  0.24862303  0.52432875  0.03762678  1  0.110762  0  0.100821  0.100722  0  1.050683  0
H  H11  1  0.25137582  0.97567390  0.53762803  1  0.110576  0  0.100854  0.100776  0  1.050666  0
H  H12  1  0.90678068  0.50397538  0.90214230  1  0.10454  0  0.102049  0.104832  0  1.03657  0
H  H13  1  0.59321960  0.99602205  0.40214049  1  0.10443  0  0.102042  0.104838  0  1.03659  0
H  H14  1  0.09321530  0.49602752  0.09785686  1  0.104421  0  0.102053  0.104878  0  1.036565  0
H  H15  1  0.40678215  0.00397597  0.59785828  1  0.104499  0  0.102055  0.104886  0  1.036593  0
H  H16  1  0.92127801  0.09033154  0.10228251  1  0.108699  0  0.114532  0.122537  0  0.982158  0
H  H17  1  0.57871996  0.40966666  0.60228039  1  0.108721  0  0.114539  0.122543  0  0.982136  0
H  H18  1  0.07871985  0.90967027  0.89771858  1  0.108691  0  0.114515  0.122543  0  0.98218  0
H  H19  1  0.42127895  0.59033190  0.39771876  1  0.108675  0  0.11453  0.122535  0  0.982171  0
H  H20  1  0.59681621  0.29253102  0.86885007  1  0.164068  0  0.107997  0.125973  0  1.035202  0
H  H21  1  0.90318441  0.20746737  0.36885059  1  0.164106  0  0.107981  0.125898  0  1.035233  0
H  H22  1  0.40318616  0.70746863  0.13114986  1  0.164066  0  0.107967  0.125893  0  1.035274  0
H  H23  1  0.09681567  0.79253227  0.63114895  1  0.163776  0  0.107979  0.125901  0  1.035241  0
H  H24  1  0.07248794  0.10485214  0.03982223  1  0.130259  0  0.113223  0.121276  0  0.984837  0
H  H25  1  0.42751327  0.39514492  0.53981881  1  0.130104  0  0.113235  0.121348  0  0.984731  0
H  H26  1  0.92750951  0.89514859  0.96017808  1  0.130207  0  0.113236  0.121339  0  0.984752  0
H  H27  1  0.57248855  0.60485527  0.46017803  1  0.130206  0  0.113227  0.12129  0  0.984836  0
H  H28  1  0.86116422  0.47841257  0.63683031  1  0.119206  0  0.106507  0.114666  0  1.014117  0
H  H29  1  0.63883006  0.02158613  0.13682835  1  0.119163  0  0.106527  0.114662  0  1.014235  0
H  H30  1  0.13883343  0.52158870  0.36317154  1  0.119137  0  0.106597  0.114811  0  1.0142  0
H  H31  1  0.36116621  0.97841351  0.86317080  1  0.119168  0  0.106551  0.114691  0  1.014268  0
H  H32  1  0.87456285  0.39546645  0.71052863  1  0.116472  0  0.105041  0.111914  0  1.025135  0
H  H33  1  0.62543438  0.10453432  0.21052662  1  0.116487  0  0.105034  0.111877  0  1.025154  0
H  H34  1  0.12543806  0.60453537  0.28947246  1  0.116502  0  0.105022  0.111854  0  1.025178  0
H  H35  1  0.37456383  0.89546641  0.78947253  1  0.116505  0  0.105045  0.111904  0  1.02513  0
H  H36  1  0.25815343  0.28144394  0.13088403  1  0.141481  0  0.106758  0.123055  0  1.052462  0
H  H37  1  0.24184459  0.21855516  0.63088194  1  0.141496  0  0.10677  0.123107  0  1.052405  0
H  H38  1  0.74184791  0.71855300  0.86911782  1  0.141491  0  0.106753  0.123083  0  1.052433  0
H  H39  1  0.75815209  0.78144556  0.36911374  1  0.141478  0  0.10675  0.123069  0  1.052408  0
H  H40  1  0.02685977  0.18160303  0.28375215  1  0.085745  0  0.108825  0.110055  0  1.019112  0
H  H41  1  0.47314289  0.31839696  0.78375299  1  0.085672  0  0.108831  0.110076  0  1.019093  0
H  H42  1  0.97314287  0.81839934  0.71624623  1  0.085679  0  0.108855  0.110113  0  1.019077  0
H  H43  1  0.52685296  0.68160159  0.21624732  1  0.085547  0  0.108863  0.110128  0  1.019075  0
H  H44  1  0.13900505  0.21519579  0.95088653  1  0.129342  0  0.117997  0.089709  0  1.027137  0
H  H45  1  0.36099481  0.28480560  0.45088664  1  0.12941  0  0.117988  0.089703  0  1.027129  0
H  H46  1  0.86099503  0.78480386  0.04911262  1  0.129596  0  0.117974  0.089676  0  1.027102  0
H  H47  1  0.63900589  0.71519568  0.54911290  1  0.129626  0  0.117992  0.089702  0  1.027148  0
H  H48  1  0.81000787  0.92525788  0.27113663  1  0.081689  0  0.106969  0.112154  0  0.995802  0
H  H49  1  0.68999013  0.57474298  0.77113425  1  0.081657  0  0.106973  0.112151  0  0.995712  0
H  H50  1  0.18998922  0.07474393  0.72886446  1  0.081616  0  0.106979  0.112172  0  0.995764  0
H  H51  1  0.31000878  0.42525558  0.22886568  1  0.081594  0  0.106953  0.11212  0  0.995761  0
H  H52  1  0.99409589  0.66421881  0.73189439  1  0.120996  0  0.103137  0.119397  0  1.03542  0
H  H53  1  0.50590504  0.83578157  0.23189540  1  0.121032  0  0.103152  0.119422  0  1.035416  0
H  H54  1  0.00590501  0.33578301  0.26810708  1  0.121076  0  0.10313  0.119347  0  1.035453  0
H  H55  1  0.49409733  0.16421809  0.76810607  1  0.121025  0  0.103156  0.119422  0  1.035408  0
H  H56  1  0.03863068  0.09066211  0.35248354  1  0.112554  0  0.107278  0.111511  0  1.024403  0
H  H57  1  0.46137335  0.40933779  0.85248395  1  0.112571  0  0.107266  0.1115  0  1.024454  0
H  H58  1  0.96137002  0.90933917  0.64751562  1  0.112448  0  0.107257  0.111469  0  1.024467  0
H  H59  1  0.53862576  0.59066131  0.14751675  1  0.112598  0  0.107278  0.111505  0  1.024443  0
H  H60  1  0.75259457  0.31724430  0.81004673  1  0.114128  0  0.10865  0.117391  0  0.991714  0
H  H61  1  0.74740639  0.18275472  0.31004617  1  0.114149  0  0.108652  0.117354  0  0.99169  0
H  H62  1  0.24740592  0.68275643  0.18995397  1  0.114159  0  0.10863  0.117348  0  0.991718  0
H  H63  1  0.25259384  0.81724330  0.68995336  1  0.114162  0  0.108652  0.117359  0  0.991726  0
H  H64  1  0.80170921  0.01446131  0.20078769  1  0.125689  0  0.107752  0.115417  0  1.022162  0
H  H65  1  0.69828838  0.48553839  0.70078625  1  0.125729  0  0.107727  0.11535  0  1.022136  0
H  H66  1  0.19828788  0.98554050  0.79921223  1  0.125768  0  0.107749  0.115408  0  1.022112  0
H  H67  1  0.30170706  0.51445907  0.29921329  1  0.125618  0  0.107773  0.115526  0  1.022075  0
H  H68  1  0.00202960  0.58250872  0.80677569  1  0.111515  0  0.105477  0.108192  0  1.018717  0
H  H69  1  0.49797225  0.91749303  0.30677567  1  0.111547  0  0.105482  0.108189  0  1.018723  0
H  H70  1  0.99797339  0.41749256  0.19322578  1  0.111586  0  0.105464  0.108131  0  1.01877  0
H  H71  1  0.50202998  0.08250825  0.69322464  1  0.111545  0  0.105482  0.108185  0  1.018698  0
H  H72  1  0.10817876  0.26850798  0.19257635  1  0.087825  0  0.111042  0.117323  0  0.992688  0
H  H73  1  0.39181683  0.23149104  0.69257496  1  0.088506  0  0.111019  0.117302  0  0.992574  0
H  H74  1  0.89182431  0.73148951  0.80742705  1  0.088258  0  0.11101  0.117269  0  0.992642  0
H  H75  1  0.60817410  0.76850859  0.30742343  1  0.087844  0  0.111036  0.117317  0  0.99262  0
H  H76  1  0.38398560  0.27842755  0.84689327  1  0.1129  0  0.116524  0.09054  0  1.042688  0
H  H77  1  0.11601401  0.22157072  0.34689352  1  0.112905  0  0.116508  0.090521  0  1.042676  0
H  H78  1  0.61601207  0.72156775  0.15310434  1  0.113021  0  0.11653  0.090537  0  1.042744  0
H  H79  1  0.88398724  0.77843002  0.65310525  1  0.112837  0  0.116512  0.090502  0  1.042747  0
H  H80  1  0.92893573  0.26313962  0.86598341  1  0.106889  0  0.116164  0.087927  0  0.998238  0
H  H81  1  0.57106731  0.23686313  0.36598368  1  0.106897  0  0.116145  0.0879  0  0.998239  0
H  H82  1  0.07106635  0.73686329  0.13401844  1  0.106925  0  0.11615  0.087918  0  0.998196  0
H  H83  1  0.42893430  0.76313652  0.63401740  1  0.106948  0  0.116158  0.087885  0  0.998224  0
H  H84  1  0.07806433  0.30767056  0.80570261  1  0.126583  0  0.108939  0.120841  0  1.028836  0
H  H85  1  0.42193841  0.19233375  0.30570197  1  0.126865  0  0.108946  0.120821  0  1.028873  0
H  H86  1  0.92193747  0.69233561  0.19429886  1  0.12681  0  0.10893  0.120824  0  1.028891  0
H  H87  1  0.57806278  0.80766482  0.69429834  1  0.126597  0  0.108926  0.120853  0  1.028893  0
H  H88  1  0.26852510  0.32036988  0.78212017  1  0.089013  0  0.109365  0.114732  0  0.989904  0
H  H89  1  0.23147915  0.17963228  0.28212001  1  0.088918  0  0.109363  0.114757  0  0.98987  0
H  H90  1  0.73147539  0.67963085  0.21787937  1  0.089037  0  0.109358  0.114734  0  0.989868  0
H  H91  1  0.76852377  0.82036683  0.71787914  1  0.088951  0  0.109358  0.114741  0  0.989859  0
H  H92  1  0.64046683  0.21933813  0.94336982  1  0.15181  0  0.121817  0.094787  0  1.01455  0
H  H93  1  0.85953078  0.28066071  0.44337032  1  0.151799  0  0.121829  0.094771  0  1.014565  0
H  H94  1  0.35953159  0.78066315  0.05663049  1  0.151694  0  0.121796  0.094773  0  1.014576  0
H  H95  1  0.14046480  0.71933513  0.55662999  1  0.151777  0  0.12179  0.094752  0  1.014507  0
H  H96  1  0.19038797  0.35515142  0.06322850  1  0.11665  0  0.117969  0.090995  0  1.019316  0
H  H97  1  0.30961234  0.14484941  0.56322719  1  0.116684  0  0.117935  0.090956  0  1.019378  0
H  H98  1  0.80961135  0.64484823  0.93677297  1  0.116705  0  0.117961  0.090986  0  1.019349  0
H  H99  1  0.69039017  0.85514862  0.43677234  1  0.116649  0  0.117962  0.090949  0  1.019417  0
H  H100  1  0.56410622  0.24509797  0.22498577  1  0.120378  0  0.109996  0.127961  0  1.003473  0
H  H101  1  0.93589063  0.25490388  0.72498783  1  0.120207  0  0.110006  0.12801  0  1.00342  0
H  H102  1  0.43589102  0.75490222  0.77501376  1  0.120333  0  0.109995  0.127975  0  1.003457  0
H  H103  1  0.06411013  0.74509957  0.27501171  1  0.120255  0  0.109997  0.127986  0  1.003399  0
H  H104  1  0.68901421  0.36438758  0.05964959  1  0.151724  0  0.117374  0.091673  0  1.034009  0
H  H105  1  0.81098426  0.13561177  0.55965176  1  0.151976  0  0.117301  0.09159  0  1.033984  0
H  H106  1  0.31098587  0.63561206  0.94035110  1  0.151683  0  0.117341  0.091639  0  1.034037  0
H  H107  1  0.18901873  0.86438951  0.44034816  1  0.151806  0  0.117277  0.091592  0  1.033972  0
H  H108  1  0.42011411  0.14070131  0.05826660  1  0.12693  0  0.120182  0.09446  0  0.995382  0
H  H109  1  0.07988919  0.35929736  0.55826374  1  0.126888  0  0.12021  0.09445  0  0.995355  0
H  H110  1  0.57988520  0.85929834  0.94173448  1  0.126944  0  0.120192  0.094456  0  0.99537  0
H  H111  1  0.92011678  0.64070176  0.44173079  1  0.126963  0  0.120191  0.094502  0  0.995364  0
H  H112  1  0.27749145  0.47418499  0.89426029  1  0.077432  0  0.115972  0.127548  0  0.972241  0
H  H113  1  0.22250938  0.02581268  0.39426099  1  0.077417  0  0.115949  0.127506  0  0.972262  0
H  H114  1  0.72250670  0.52581357  0.10574041  1  0.077395  0  0.115932  0.127471  0  0.972266  0
H  H115  1  0.77749466  0.97418535  0.60573933  1  0.077448  0  0.115922  0.127492  0  0.972241  0
H  H116  1  0.41246926  0.44242106  0.95010935  1  0.156409  0  0.118409  0.100718  0  1.030053  0
H  H117  1  0.08752991  0.05757653  0.45010932  1  0.156408  0  0.118402  0.100691  0  1.030054  0
H  H118  1  0.58752792  0.55757695  0.04989135  1  0.156349  0  0.118418  0.100725  0  1.030068  0
H  H119  1  0.91247280  0.94242204  0.54989022  1  0.156317  0  0.118412  0.100729  0  1.030078  0
H  H120  1  0.08934868  0.44342194  0.92421593  1  0.141409  0  0.10783  0.118628  0  1.026033  0
H  H121  1  0.41065234  0.05657840  0.42421575  1  0.14131  0  0.107812  0.118615  0  1.02602  0
H  H122  1  0.91065008  0.55657825  0.07578593  1  0.141912  0  0.107819  0.118619  0  1.025975  0
H  H123  1  0.58934982  0.94342071  0.57578494  1  0.142141  0  0.107833  0.118637  0  1.026016  0
H  H124  1  0.55825387  0.11918036  0.11827580  1  0.103947  0  0.111414  0.117184  0  1.00246  0
H  H125  1  0.94175306  0.38081948  0.61827431  1  0.104394  0  0.111431  0.117218  0  1.002469  0
H  H126  1  0.44174580  0.88081821  0.88172451  1  0.104019  0  0.111407  0.117141  0  1.002515  0
H  H127  1  0.05825755  0.61918182  0.38172214  1  0.103917  0  0.111381  0.117158  0  1.002513  0
H  H128  1  0.44297070  0.28203998  0.16100094  1  0.106243  0  0.117884  0.092057  0  0.99641  0
H  H129  1  0.05702724  0.21796505  0.66100086  1  0.106288  0  0.117932  0.092053  0  0.996379  0
H  H130  1  0.55702904  0.71796075  0.83899860  1  0.106261  0  0.117884  0.092035  0  0.996395  0
H  H131  1  0.94297512  0.78204057  0.33899868  1  0.106333  0  0.117913  0.092054  0  0.996354  0
H  H132  1  0.90414938  0.32011960  0.14369938  1  0.106831  0  0.113212  0.078413  0  1.0179  0
H  H133  1  0.59584711  0.17987692  0.64370201  1  0.106771  0  0.113227  0.078478  0  1.017808  0
H  H134  1  0.09584994  0.67988004  0.85630093  1  0.106886  0  0.113221  0.078429  0  1.017895  0
H  H135  1  0.40415581  0.82012219  0.35629830  1  0.106723  0  0.11322  0.078429  0  1.017767  0
H  H136  1  0.75742893  0.27208054  0.20376385  1  0.136278  0  0.110392  0.118257  0  1.009806  0
H  H137  1  0.74256528  0.22791426  0.70376639  1  0.136144  0  0.110359  0.118211  0  1.009889  0
H  H138  1  0.24256845  0.72791801  0.79623723  1  0.136291  0  0.110412  0.118274  0  1.009814  0
H  H139  1  0.25743515  0.77208430  0.29623354  1  0.136107  0  0.110356  0.118206  0  1.009949  0
H  H140  1  0.95642006  0.39031392  0.98715217  1  0.09775  0  0.115669  0.080983  0  0.99034  0
H  H141  1  0.54358077  0.10968758  0.48715252  1  0.097731  0  0.115674  0.080977  0  0.990363  0
H  H142  1  0.04357988  0.60968736  0.01284930  1  0.097657  0  0.115651  0.080924  0  0.99035  0
H  H143  1  0.45642215  0.89031153  0.51284779  1  0.097715  0  0.115689  0.08099  0  0.990261  0
H  H144  1  0.87655927  0.19324419  0.02270626  1  0.100721  0  0.113066  0.07512  0  0.999325  0
H  H145  1  0.62344143  0.30675684  0.52270804  1  0.100643  0  0.113066  0.075085  0  0.999321  0
H  H146  1  0.12343852  0.80675545  0.97729444  1  0.100618  0  0.113089  0.075143  0  0.999319  0
H  H147  1  0.37656156  0.69324444  0.47729343  1  0.100702  0  0.113089  0.075108  0  0.999307  0
H  H148  1  0.74627231  0.15050011  0.08827114  1  0.149476  0  0.108887  0.11726  0  1.03608  0
H  H149  1  0.75373420  0.34950248  0.58827206  1  0.149469  0  0.108896  0.117296  0  1.036123  0
H  H150  1  0.25372736  0.84949845  0.91172801  1  0.149472  0  0.108903  0.117282  0  1.036064  0
H  H151  1  0.24627551  0.65050045  0.41172786  1  0.149399  0  0.108887  0.117287  0  1.036011  0
C  C152  1  0.66490779  0.38344431  0.91898562  1  -0.058136  0  -0.007758  -0.016625  0  3.922954  0
C  C153  1  0.83509037  0.11655185  0.41898622  1  -0.057722  0  -0.007659  -0.016501  0  3.922776  0
C  C154  1  0.33509091  0.61655371  0.08101315  1  -0.057777  0  -0.007677  -0.016567  0  3.922908  0
C  C155  1  0.16490895  0.88344780  0.58101409  1  -0.057702  0  -0.007644  -0.016426  0  3.922713  0
C  C156  1  0.00790584  0.17833883  0.15068929  1  -0.227918  0  -0.02191  -0.084637  0  4.015077  0
C  C157  1  0.49209081  0.32166079  0.65068665  1  -0.228071  0  -0.021941  -0.084753  0  4.015116  0
C  C158  1  0.99209465  0.82166191  0.84931295  1  -0.227973  0  -0.021948  -0.084703  0  4.015197  0
C  C159  1  0.50790352  0.67833776  0.34931250  1  -0.227983  0  -0.021944  -0.084677  0  4.015091  0
C  C160  1  0.92491886  0.00318259  0.31552536  1  -0.041618  0  -0.005431  -0.004579  0  3.926113  0
C  C161  1  0.57508076  0.49681696  0.81552435  1  -0.041584  0  -0.005426  -0.004495  0  3.926081  0
C  C162  1  0.07508245  0.99682032  0.68447457  1  -0.041649  0  -0.005452  -0.004628  0  3.926201  0
C  C163  1  0.42491565  0.50318105  0.18447596  1  -0.041655  0  -0.005482  -0.004613  0  3.926143  0
C  C164  1  0.57125824  0.36851415  0.95494810  1  1.573134  0  0.208071  0.577445  0  4.211009  0
C  C165  1  0.92873990  0.13148413  0.45494749  1  1.5731  0  0.20798  0.577263  0  4.210951  0
C  C166  1  0.42873990  0.63148441  0.04505182  1  1.573098  0  0.207995  0.577328  0  4.210981  0
C  C167  1  0.07126039  0.86851606  0.54505166  1  1.573128  0  0.208026  0.577304  0  4.210892  0
C  C168  1  0.92699349  0.57545058  0.68013137  1  0.071118  0  -0.006949  -0.002468  0  3.936623  0
C  C169  1  0.57300679  0.92454987  0.18013038  1  0.071102  0  -0.006939  -0.002385  0  3.936525  0
C  C170  1  0.07300589  0.42455124  0.31987126  1  0.071039  0  -0.007033  -0.002543  0  3.936665  0
C  C171  1  0.42699350  0.07545032  0.81986955  1  0.071231  0  -0.006949  -0.002449  0  3.936508  0
C  C172  1  0.91929698  0.62336622  0.63508043  1  1.56725  0  0.185255  0.549858  0  4.250356  0
C  C173  1  0.58070126  0.87663265  0.13508023  1  1.568116  0  0.18524  0.549779  0  4.250574  0
C  C174  1  0.08070282  0.37663668  0.36492142  1  1.566914  0  0.185107  0.549672  0  4.250699  0
C  C175  1  0.41929764  0.12336591  0.86492046  1  1.56703  0  0.1853  0.549893  0  4.250367  0
C  C176  1  0.75246624  0.44242550  0.92840526  1  0.02856  0  -0.079581  -0.076987  0  3.934583  0
C  C177  1  0.74753438  0.05757119  0.42840516  1  0.028575  0  -0.079635  -0.07696  0  3.934466  0
C  C178  1  0.24752988  0.55757577  0.07159350  1  0.027905  0  -0.079584  -0.076909  0  3.934506  0
C  C179  1  0.25246833  0.94242738  0.57159515  1  0.028538  0  -0.079639  -0.077052  0  3.93453  0
C  C180  1  0.26249930  0.20121065  0.04404793  1  1.554159  0  0.201776  0.565668  0  4.231072  0
C  C181  1  0.23749891  0.29878857  0.54404580  1  1.554171  0  0.201814  0.565607  0  4.231235  0
C  C182  1  0.73750022  0.79878954  0.95595276  1  1.554163  0  0.201851  0.565673  0  4.231106  0
C  C183  1  0.76250041  0.70121108  0.45594988  1  1.554642  0  0.201794  0.565584  0  4.231252  0
C  C184  1  0.17395006  0.19289516  0.08219066  1  -0.052027  0  -0.009215  -0.01886  0  3.944766  0
C  C185  1  0.32604841  0.30710293  0.58218771  1  -0.052013  0  -0.009247  -0.018858  0  3.944786  0
C  C186  1  0.82604946  0.80710503  0.91781081  1  -0.052104  0  -0.009222  -0.018885  0  3.944937  0
C  C187  1  0.67394932  0.69289455  0.41780835  1  -0.052045  0  -0.009213  -0.018818  0  3.944669  0
C  C188  1  0.83895756  0.45775202  0.89517040  1  -0.045951  0  -0.085856  -0.094893  0  3.97496  0
C  C189  1  0.66104120  0.04224363  0.39516958  1  -0.046005  0  -0.085841  -0.094953  0  3.974863  0
C  C190  1  0.16103663  0.54224816  0.10482836  1  -0.04527  0  -0.085802  -0.094901  0  3.974862  0
C  C191  1  0.33896055  0.95775439  0.60483073  1  -0.046003  0  -0.085853  -0.094966  0  3.975038  0
C  C192  1  0.99554065  0.13158484  0.10820558  1  -0.04272  0  -0.080822  -0.095484  0  3.985986  0
C  C193  1  0.50445882  0.36841336  0.60820313  1  -0.042954  0  -0.080845  -0.095501  0  3.986088  0
C  C194  1  0.00445852  0.86841643  0.89179589  1  -0.043019  0  -0.080749  -0.095461  0  3.986013  0
C  C195  1  0.49553988  0.63158466  0.39179602  1  -0.042987  0  -0.080789  -0.095482  0  3.98604  0
C  C196  1  0.93886672  0.48482090  0.76226153  1  -0.314452  0  -0.023225  -0.081513  0  3.997394  0
C  C197  1  0.56113385  0.01518090  0.26225960  1  -0.31434  0  -0.023171  -0.081504  0  3.997373  0
C  C198  1  0.06113765  0.51518202  0.23773994  1  -0.314231  0  -0.023191  -0.08153  0  3.997187  0
C  C199  1  0.43886588  0.98481983  0.73773955  1  -0.314243  0  -0.023214  -0.081587  0  3.997369  0
C  C200  1  0.66458487  0.33874939  0.87600648  1  -0.032019  0  -0.076767  -0.084928  0  3.928012  0
C  C201  1  0.83541456  0.16124791  0.37600628  1  -0.032416  0  -0.076789  -0.084889  0  3.92793  0
C  C202  1  0.33541445  0.66125025  0.12399306  1  -0.032403  0  -0.076792  -0.084919  0  3.927919  0
C  C203  1  0.16458607  0.83875120  0.62399326  1  -0.03209  0  -0.076795  -0.084947  0  3.927926  0
C  C204  1  0.07910284  0.13944963  0.07378818  1  -0.019084  0  -0.073794  -0.077513  0  3.942693  0
C  C205  1  0.42089753  0.36054738  0.57378516  1  -0.018646  0  -0.073773  -0.077545  0  3.942554  0
C  C206  1  0.92089634  0.86055165  0.92621329  1  -0.018639  0  -0.073808  -0.077522  0  3.942633  0
C  C207  1  0.57910131  0.63944901  0.42621206  1  -0.018741  0  -0.07377  -0.077475  0  3.942609  0
C  C208  1  0.91456462  0.10225850  0.23896200  1  -0.252707  0  -0.023575  -0.083561  0  4.00746  0
C  C209  1  0.58543289  0.39774116  0.73896104  1  -0.25268  0  -0.023573  -0.083585  0  4.007415  0
C  C210  1  0.08543421  0.89774386  0.76103793  1  -0.252645  0  -0.02359  -0.08369  0  4.007522  0
C  C211  1  0.41456102  0.60225631  0.26103888  1  -0.252644  0  -0.023626  -0.083731  0  4.007596  0
C  C212  1  0.83771953  0.41191644  0.85283669  1  -0.209892  0  -0.022194  -0.083849  0  3.988587  0
C  C213  1  0.66228086  0.08807927  0.35283506  1  -0.209896  0  -0.022255  -0.08385  0  3.988509  0
C  C214  1  0.16227674  0.58808320  0.14716324  1  -0.210014  0  -0.022255  -0.083933  0  3.988557  0
C  C215  1  0.33772068  0.91191821  0.64716409  1  -0.209892  0  -0.022269  -0.083881  0  3.988669  0
C  C216  1  0.89346809  0.50001172  0.67402571  1  -0.101092  0  -0.08242  -0.095439  0  3.964221  0
C  C217  1  0.60652895  0.99998818  0.17402389  1  -0.100849  0  -0.082467  -0.095508  0  3.964169  0
C  C218  1  0.10652998  0.49999063  0.32597653  1  -0.100783  0  -0.082442  -0.095576  0  3.964175  0
C  C219  1  0.39346960  0.00001147  0.82597565  1  -0.10086  0  -0.082474  -0.095499  0  3.964164  0
C  C220  1  0.90008232  0.45417682  0.71491341  1  0.017621  0  -0.085896  -0.096526  0  4.004969  0
C  C221  1  0.59991525  0.04582287  0.21491184  1  0.01741  0  -0.0859  -0.096466  0  4.00489  0
C  C222  1  0.09991838  0.54582446  0.28508806  1  0.017481  0  -0.085857  -0.096362  0  4.004744  0
C  C223  1  0.40008331  0.95417678  0.78508770  1  0.01735  0  -0.085878  -0.096438  0  4.004787  0
C  C224  1  0.18515552  0.23895654  0.12515513  1  0.007849  0  -0.079197  -0.089678  0  3.933216  0
C  C225  1  0.31484271  0.26104311  0.62515260  1  0.007756  0  -0.07928  -0.089838  0  3.933436  0
C  C226  1  0.81484588  0.76104257  0.87484750  1  0.007803  0  -0.079226  -0.089731  0  3.933322  0
C  C227  1  0.68515563  0.73895599  0.37484385  1  0.007693  0  -0.079233  -0.089757  0  3.933271  0
C  C228  1  0.98299287  0.12473834  0.28057578  1  -0.026221  0  -0.083458  -0.100531  0  4.001353  0
C  C229  1  0.51700705  0.37526181  0.78057563  1  -0.02615  0  -0.083476  -0.100556  0  4.001409  0
C  C230  1  0.01700748  0.87526403  0.71942376  1  -0.02635  0  -0.083538  -0.10062  0  4.001551  0
C  C231  1  0.48298881  0.62473675  0.21942468  1  -0.025927  0  -0.083475  -0.100526  0  4.001424  0
C  C232  1  0.16493441  0.23961936  0.91349964  1  0.510238  0  0.06337  0.07305  0  3.873613  0
C  C233  1  0.33506588  0.26038099  0.41349978  1  0.510163  0  0.063388  0.073027  0  3.873638  0
C  C234  1  0.83506449  0.76037920  0.08650028  1  0.510021  0  0.063418  0.073084  0  3.873582  0
C  C235  1  0.66493538  0.73961974  0.58650014  1  0.509959  0  0.06337  0.073055  0  3.873632  0
C  C236  1  0.09384253  0.26120055  0.88035476  1  -0.014379  0  -0.004317  0.024339  0  4.010789  0
C  C237  1  0.40615963  0.23880256  0.38035449  1  -0.014498  0  -0.00433  0.024204  0  4.010886  0
C  C238  1  0.90616011  0.73880181  0.11964632  1  -0.014561  0  -0.004344  0.024199  0  4.010918  0
C  C239  1  0.59384045  0.76119708  0.61964543  1  -0.014483  0  -0.004274  0.024297  0  4.010804  0
C  C240  1  0.85881838  0.98111840  0.27278298  1  0.01374  0  -0.074704  -0.076825  0  3.931707  0
C  C241  1  0.64118037  0.51888246  0.77278142  1  0.013737  0  -0.074691  -0.076803  0  3.931761  0
C  C242  1  0.14117989  0.01888450  0.72721811  1  0.013799  0  -0.074785  -0.076912  0  3.931785  0
C  C243  1  0.35881604  0.48111555  0.22721850  1  0.013803  0  -0.074665  -0.076731  0  3.931592  0
C  C244  1  0.92498833  0.95172863  0.35944152  1  1.574903  0  0.190507  0.553173  0  4.248873  0
C  C245  1  0.57501217  0.54827321  0.85943998  1  1.575125  0  0.19056  0.553079  0  4.24882  0
C  C246  1  0.07501208  0.04827591  0.64055840  1  1.575123  0  0.190597  0.5532  0  4.248904  0
C  C247  1  0.42498618  0.45172589  0.14055994  1  1.57513  0  0.190623  0.553199  0  4.248735  0
C  C248  1  0.96638518  0.60542164  0.72788249  1  -0.063434  0  -0.081246  -0.09208  0  3.928489  0
C  C249  1  0.53361520  0.89457928  0.22788231  1  -0.063423  0  -0.081288  -0.092195  0  3.92846  0
C  C250  1  0.03361669  0.39458073  0.27211975  1  -0.063421  0  -0.081203  -0.091917  0  3.928446  0
C  C251  1  0.46638585  0.10542091  0.77211839  1  -0.063421  0  -0.081281  -0.092155  0  3.928499  0
C  C252  1  0.98859173  0.07466353  0.31867062  1  0.013382  0  -0.076787  -0.082706  0  3.946384  0
C  C253  1  0.51140809  0.42533656  0.81867046  1  0.013354  0  -0.076773  -0.082734  0  3.94647  0
C  C254  1  0.01140765  0.92533829  0.68132969  1  0.013768  0  -0.076737  -0.082613  0  3.946511  0
C  C255  1  0.48858929  0.57466199  0.18133024  1  0.013458  0  -0.076797  -0.082743  0  3.946459  0
C  C256  1  0.75134951  0.35260862  0.84293028  1  -0.054634  0  -0.080588  -0.085055  0  3.971313  0
C  C257  1  0.74865207  0.14738819  0.34293051  1  -0.054544  0  -0.080558  -0.084997  0  3.971183  0
C  C258  1  0.24865036  0.64739049  0.15706849  1  -0.054551  0  -0.080541  -0.084923  0  3.971202  0
C  C259  1  0.25134912  0.85261038  0.65706903  1  -0.054606  0  -0.08055  -0.084955  0  3.971274  0
C  C260  1  0.85398539  0.03043457  0.23378935  1  -0.008496  0  -0.081419  -0.088455  0  3.970527  0
C  C261  1  0.64601234  0.46956563  0.73378872  1  -0.00858  0  -0.081386  -0.088382  0  3.970583  0
C  C262  1  0.14601192  0.96956778  0.76621057  1  -0.008612  0  -0.081356  -0.088315  0  3.970463  0
C  C263  1  0.35398254  0.53043238  0.26621159  1  -0.008594  0  -0.081398  -0.088508  0  3.970603  0
C  C264  1  0.97141228  0.56014112  0.76945654  1  0.014274  0  -0.081173  -0.083182  0  3.969066  0
C  C265  1  0.52858919  0.93986084  0.26945634  1  0.014312  0  -0.081161  -0.083102  0  3.968977  0
C  C266  1  0.02859168  0.43986071  0.23054454  1  0.014364  0  -0.081195  -0.083168  0  3.96907  0
C  C267  1  0.47140922  0.06014043  0.73054359  1  0.014295  0  -0.081141  -0.083063  0  3.969031  0
C  C268  1  0.10167775  0.23199776  0.15966115  1  -0.009491  0  -0.080205  -0.088921  0  3.977598  0
C  C269  1  0.39831965  0.26800185  0.65965896  1  -0.009841  0  -0.080125  -0.088783  0  3.977453  0
C  C270  1  0.89832538  0.76800190  0.84034186  1  -0.009829  0  -0.080174  -0.088878  0  3.977609  0
C  C271  1  0.60167413  0.73199724  0.34033903  1  -0.009312  0  -0.080203  -0.088932  0  3.977652  0
C  C272  1  0.30138717  0.27533278  0.85454537  1  0.472106  0  0.047274  0.089335  0  3.933143  0
C  C273  1  0.19861263  0.22466602  0.35454559  1  0.471806  0  0.047287  0.089278  0  3.933207  0
C  C274  1  0.69861014  0.72466360  0.14545339  1  0.471637  0  0.047149  0.089083  0  3.933232  0
C  C275  1  0.80138842  0.77533417  0.64545356  1  0.472175  0  0.047239  0.089281  0  3.933188  0
C  C276  1  0.98408127  0.25281055  0.89514032  1  0.625613  0  0.075066  0.058351  0  3.914865  0
C  C277  1  0.51592191  0.24719270  0.39514099  1  0.625754  0  0.075032  0.05835  0  3.91495  0
C  C278  1  0.01592061  0.74719181  0.10486077  1  0.625725  0  0.075036  0.058381  0  3.914794  0
C  C279  1  0.48407858  0.75280803  0.60486009  1  0.625645  0  0.075037  0.058431  0  3.914875  0
C  C280  1  0.13127200  0.29012397  0.83200103  1  -0.049039  0  -0.060741  -0.067605  0  3.902043  0
C  C281  1  0.36873027  0.20987922  0.33200040  1  -0.049297  0  -0.060725  -0.067432  0  3.902037  0
C  C282  1  0.86872801  0.70987948  0.16800044  1  -0.049234  0  -0.06073  -0.067533  0  3.902076  0
C  C283  1  0.63127189  0.79011989  0.66800029  1  -0.048997  0  -0.06075  -0.067635  0  3.902204  0
C  C284  1  0.23658122  0.29750549  0.81913802  1  -0.009625  0  -0.084029  -0.126963  0  3.992907  0
C  C285  1  0.26342143  0.20249662  0.31913822  1  -0.009238  0  -0.084028  -0.127031  0  3.992988  0
C  C286  1  0.76341852  0.70249524  0.18086152  1  -0.009748  0  -0.084003  -0.126887  0  3.992867  0
C  C287  1  0.73657962  0.79750357  0.68086209  1  -0.009591  0  -0.084019  -0.126925  0  3.992931  0
C  C288  1  0.62549524  0.19741678  0.98233128  1  0.448139  0  0.067907  0.081391  0  3.854688  0
C  C289  1  0.87450380  0.30258201  0.48233138  1  0.448118  0  0.067926  0.081368  0  3.854665  0
C  C290  1  0.37450311  0.80258233  0.01766903  1  0.448215  0  0.067908  0.081378  0  3.85468  0
C  C291  1  0.12549663  0.69741655  0.51766739  1  0.448053  0  0.067844  0.081318  0  3.854573  0
C  C292  1  0.20631932  0.38091792  0.02546564  1  0.511166  0  0.061337  0.070961  0  3.874587  0
C  C293  1  0.29368011  0.11908241  0.52546512  1  0.51119  0  0.061312  0.070954  0  3.874657  0
C  C294  1  0.79367882  0.61908064  0.97453545  1  0.511539  0  0.06129  0.07088  0  3.87469  0
C  C295  1  0.70632358  0.88091670  0.47453480  1  0.511232  0  0.061296  0.070893  0  3.874917  0
C  C296  1  0.59483457  0.27193298  0.18891715  1  -0.071664  0  -0.083937  -0.133535  0  3.981181  0
C  C297  1  0.90516153  0.22806673  0.68891846  1  -0.071567  0  -0.084021  -0.13373  0  3.981111  0
C  C298  1  0.40516246  0.72806666  0.81108316  1  -0.071636  0  -0.08393  -0.133528  0  3.9811  0
C  C299  1  0.09484000  0.77193672  0.31108108  1  -0.071609  0  -0.083999  -0.133651  0  3.981035  0
C  C300  1  0.66452692  0.33782970  0.09657750  1  0.507064  0  0.060889  0.067216  0  3.877155  0
C  C301  1  0.83547064  0.16216743  0.59657964  1  0.506858  0  0.060996  0.067382  0  3.877035  0
C  C302  1  0.33547219  0.66216941  0.90342320  1  0.507032  0  0.060877  0.067178  0  3.877206  0
C  C303  1  0.16453290  0.83783331  0.40341989  1  0.507024  0  0.061019  0.067336  0  3.877049  0
C  C304  1  0.50271353  0.15302265  0.04680562  1  0.426129  0  0.053076  0.102854  0  3.931667  0
C  C305  1  0.99728989  0.34697564  0.54680297  1  0.425683  0  0.052977  0.102785  0  3.9317  0
C  C306  1  0.49728711  0.84697645  0.95319546  1  0.425676  0  0.053022  0.102826  0  3.931581  0
C  C307  1  0.00271608  0.65302348  0.45319310  1  0.426099  0  0.053039  0.10269  0  3.931664  0
C  C308  1  0.12472056  0.39738986  0.99669208  1  -0.064229  0  -0.006882  0.012559  0  4.020047  0
C  C309  1  0.37527934  0.10260984  0.49669151  1  -0.064208  0  -0.006875  0.012543  0  4.020052  0
C  C310  1  0.87527938  0.60261142  0.00330939  1  -0.064482  0  -0.006917  0.012589  0  4.019813  0
C  C311  1  0.62472276  0.89738709  0.50330841  1  -0.064201  0  -0.006923  0.012532  0  4.019949  0
C  C312  1  0.25428792  0.44731478  0.93115036  1  0.035728  0  -0.074389  -0.103607  0  3.943544  0
C  C313  1  0.24571247  0.05268393  0.43115027  1  0.035718  0  -0.074381  -0.103575  0  3.943494  0
C  C314  1  0.74571181  0.55268596  0.06885033  1  0.035718  0  -0.074376  -0.103546  0  3.943582  0
C  C315  1  0.75428887  0.94731301  0.56884927  1  0.035768  0  -0.074392  -0.103635  0  3.94348  0
C  C316  1  0.33029788  0.42959247  0.96228330  1  0.433772  0  0.055372  0.109382  0  3.902894  0
C  C317  1  0.16970223  0.07040565  0.46228284  1  0.433735  0  0.055431  0.109444  0  3.90276  0
C  C318  1  0.66970026  0.57040609  0.03771778  1  0.433743  0  0.0554  0.109401  0  3.902928  0
C  C319  1  0.83030125  0.92959292  0.53771708  1  0.433736  0  0.055431  0.109417  0  3.902843  0
C  C320  1  0.15026521  0.43053441  0.94820247  1  -0.006395  0  -0.058231  -0.069253  0  3.903315  0
C  C321  1  0.34973632  0.06946536  0.44820231  1  -0.006347  0  -0.058213  -0.069263  0  3.903285  0
C  C322  1  0.84973528  0.56946633  0.05179900  1  -0.006944  0  -0.058194  -0.069267  0  3.903116  0
C  C323  1  0.65026467  0.93053266  0.55179761  1  -0.007091  0  -0.058198  -0.069203  0  3.903122  0
C  C324  1  0.70851977  0.18673317  0.01302413  1  0.039203  0  -0.002664  0.024172  0  4.011692  0
C  C325  1  0.79148151  0.31326734  0.51302390  1  0.039328  0  -0.002653  0.024279  0  4.011608  0
C  C326  1  0.29147838  0.81326539  0.98697618  1  0.039083  0  -0.002639  0.024193  0  4.011796  0
C  C327  1  0.20852086  0.68673231  0.48697564  1  0.039233  0  -0.00263  0.024243  0  4.011734  0
C  C328  1  0.57987008  0.14116792  0.07982813  1  -0.058433  0  -0.080234  -0.118943  0  3.981251  0
C  C329  1  0.92013471  0.35883413  0.57982666  1  -0.05878  0  -0.080197  -0.118903  0  3.981111  0
C  C330  1  0.42012861  0.85883010  0.92017295  1  -0.058401  0  -0.080166  -0.118783  0  3.981285  0
C  C331  1  0.07987368  0.64116933  0.42017056  1  -0.058415  0  -0.080155  -0.118819  0  3.981365  0
C  C332  1  0.52726037  0.29147512  0.15353682  1  0.448583  0  0.049554  0.095452  0  3.939492  0
C  C333  1  0.97273588  0.20852681  0.65353811  1  0.448602  0  0.04953  0.095595  0  3.939489  0
C  C334  1  0.47273860  0.70852561  0.84646349  1  0.448643  0  0.049575  0.095544  0  3.939395  0
C  C335  1  0.02726586  0.79147718  0.34646143  1  0.448665  0  0.049559  0.095593  0  3.93937  0
C  C336  1  0.73850726  0.31937764  0.12966370  1  0.026795  0  -0.004174  0.023859  0  4.007893  0
C  C337  1  0.76149037  0.18061782  0.62966626  1  0.027024  0  -0.004242  0.023856  0  4.00797  0
C  C338  1  0.26149241  0.68062092  0.87033699  1  0.026794  0  -0.004162  0.02397  0  4.007825  0
C  C339  1  0.23851297  0.81938238  0.37033328  1  0.026677  0  -0.004262  0.023819  0  4.007979  0
C  C340  1  0.84926183  0.33236972  0.11516397  1  0.597698  0  0.074548  0.058254  0  3.92248  0
C  C341  1  0.65073618  0.16762467  0.61516542  1  0.597764  0  0.074455  0.058043  0  3.922564  0
C  C342  1  0.15073783  0.66762884  0.88483711  1  0.597722  0  0.074514  0.058192  0  3.922579  0
C  C343  1  0.34926557  0.83237335  0.38483450  1  0.59771  0  0.074509  0.058184  0  3.922382  0
C  C344  1  0.70201275  0.28661930  0.17710798  1  -0.047339  0  -0.059224  -0.061408  0  3.89889  0
C  C345  1  0.79797978  0.21337500  0.67711011  1  -0.047653  0  -0.059128  -0.061327  0  3.898893  0
C  C346  1  0.29798636  0.71337980  0.82289233  1  -0.047355  0  -0.059233  -0.061478  0  3.898882  0
C  C347  1  0.20202050  0.78662520  0.32288904  1  -0.047306  0  -0.059064  -0.061272  0  3.898941  0
C  C348  1  0.01627641  0.38315662  0.01498213  1  0.626158  0  0.078434  0.069547  0  3.928551  0
C  C349  1  0.48372360  0.11684318  0.51498230  1  0.626131  0  0.078449  0.069583  0  3.928605  0
C  C350  1  0.98372235  0.61684357  0.98501934  1  0.626211  0  0.078469  0.069617  0  3.928541  0
C  C351  1  0.51628044  0.88315484  0.48501801  1  0.62619  0  0.078432  0.069572  0  3.928456  0
C  C352  1  0.81738198  0.20263318  0.99532508  1  0.623489  0  0.077038  0.066889  0  3.938242  0
C  C353  1  0.68262188  0.29736831  0.49532642  1  0.623348  0  0.076972  0.066789  0  3.938168  0
C  C354  1  0.18261769  0.79736538  0.00467446  1  0.623543  0  0.077017  0.066894  0  3.938201  0
C  C355  1  0.31737993  0.70263188  0.50467466  1  0.623447  0  0.077028  0.066908  0  3.938135  0
C  C356  1  0.68403432  0.15843277  0.06287022  1  -0.006994  0  -0.059047  -0.067307  0  3.903312  0
C  C357  1  0.81596705  0.34156821  0.56287035  1  -0.006975  0  -0.059112  -0.067436  0  3.903246  0
C  C358  1  0.31596320  0.84156416  0.93713048  1  -0.006918  0  -0.059067  -0.067392  0  3.903441  0
C  C359  1  0.18403864  0.65843416  0.43712881  1  -0.006903  0  -0.059097  -0.067445  0  3.903373  0
S  S360  1  0.90070194  0.16877641  0.19391183  1  2.449842  0  0.474775  0.954061  0  5.768251  0
S  S361  1  0.59929664  0.33122385  0.69391051  1  2.44978  0  0.474821  0.954285  0  5.767842  0
S  S362  1  0.09929821  0.83122541  0.80608810  1  2.449867  0  0.474811  0.954255  0  5.767874  0
S  S363  1  0.40069727  0.66877362  0.30608980  1  2.449845  0  0.474887  0.954281  0  5.767749  0
S  S364  1  0.95188168  0.42560570  0.81309275  1  2.452023  0  0.472196  0.962145  0  5.743864  0
S  S365  1  0.54811692  0.07439114  0.31309388  1  2.452151  0  0.47222  0.9622  0  5.743968  0
S  S366  1  0.04811370  0.57438960  0.18690525  1  2.452101  0  0.472145  0.961919  0  5.744111  0
S  S367  1  0.45188351  0.92560742  0.68690682  1  2.451651  0  0.472143  0.962026  0  5.744102  0
N  N368  1  0.52551052  0.18122244  0.99913633  1  -1.22402  0  -0.322541  -0.233694  0  3.514311  0
N  N369  1  0.97448981  0.31877578  0.49913445  1  -1.223667  0  -0.3225  -0.233591  0  3.51431  0
N  N370  1  0.47448748  0.81877775  0.00086552  1  -1.223566  0  -0.322541  -0.233704  0  3.514164  0
N  N371  1  0.02551173  0.68122170  0.50086278  1  -1.223968  0  -0.322476  -0.2335  0  3.514029  0
N  N372  1  0.26571072  0.24654580  0.90073585  1  -1.231208  0  -0.322083  -0.221059  0  3.494491  0
N  N373  1  0.23428898  0.25345294  0.40073565  1  -1.231173  0  -0.322079  -0.220929  0  3.494459  0
N  N374  1  0.73428701  0.75345167  0.09926331  1  -1.230858  0  -0.321992  -0.220825  0  3.494342  0
N  N375  1  0.76571284  0.74654725  0.59926312  1  -1.231236  0  -0.322053  -0.220987  0  3.494424  0
N  N376  1  0.30625571  0.39634188  0.00835254  1  -1.229488  0  -0.323559  -0.243766  0  3.510691  0
N  N377  1  0.19374431  0.10365794  0.50835208  1  -1.22943  0  -0.323525  -0.243673  0  3.510569  0
N  N378  1  0.69374264  0.60365723  0.99164854  1  -1.229468  0  -0.323516  -0.243697  0  3.510716  0
N  N379  1  0.80625841  0.89634063  0.49164785  1  -1.229589  0  -0.323505  -0.243635  0  3.510866  0
N  N380  1  0.56194721  0.32440417  0.10833572  1  -1.223846  0  -0.321362  -0.234221  0  3.495534  0
N  N381  1  0.93804892  0.17559729  0.60833781  1  -1.223687  0  -0.321333  -0.234328  0  3.495554  0
N  N382  1  0.43805252  0.67559657  0.89166344  1  -1.223828  0  -0.321367  -0.234281  0  3.495614  0
N  N383  1  0.06195336  0.82440617  0.39166212  1  -1.223666  0  -0.321411  -0.23438  0  3.495529  0
N  N384  1  0.84583065  0.22539139  0.94908520  1  -0.763665  0  -0.216544  -0.178399  0  3.297532  0
N  N385  1  0.65417124  0.27461070  0.44908579  1  -0.763554  0  -0.216496  -0.178321  0  3.297461  0
N  N386  1  0.15417081  0.77460989  0.05091511  1  -0.763686  0  -0.216563  -0.178408  0  3.297421  0
N  N387  1  0.34582981  0.72538949  0.55091529  1  -0.763615  0  -0.216547  -0.178404  0  3.297409  0
N  N388  1  0.95302506  0.23343941  0.94167821  1  -0.75995  0  -0.216377  -0.182511  0  3.347254  0
N  N389  1  0.54697725  0.26656378  0.44167885  1  -0.760004  0  -0.216349  -0.182481  0  3.347291  0
N  N390  1  0.04697716  0.76656187  0.05832249  1  -0.75988  0  -0.216343  -0.182513  0  3.347188  0
N  N391  1  0.45302442  0.73343804  0.55832184  1  -0.75995  0  -0.216356  -0.182519  0  3.34725  0
N  N392  1  0.88128808  0.35576734  0.06950620  1  -0.759652  0  -0.214749  -0.175708  0  3.327413  0
N  N393  1  0.61870899  0.14423036  0.56950730  1  -0.759634  0  -0.214649  -0.175526  0  3.327351  0
N  N394  1  0.11871145  0.64423285  0.93049488  1  -0.759737  0  -0.214699  -0.175694  0  3.327511  0
N  N395  1  0.38129352  0.85576766  0.43049263  1  -0.759582  0  -0.214682  -0.175629  0  3.327388  0
N  N396  1  0.98881063  0.36452820  0.06214862  1  -0.759923  0  -0.219565  -0.188386  0  3.303475  0
N  N397  1  0.51118763  0.13547060  0.56214900  1  -0.759919  0  -0.219596  -0.188465  0  3.30347  0
N  N398  1  0.01118834  0.63547253  0.93785285  1  -0.759903  0  -0.219567  -0.188357  0  3.303537  0
N  N399  1  0.48881509  0.86452797  0.43785131  1  -0.759943  0  -0.219602  -0.188421  0  3.303424  0
O  O400  1  0.48591549  0.32430458  0.94065109  1  -1.201747  0  -0.335468  -0.59254  0  2.342552  0
O  O401  1  0.01408163  0.17569356  0.44064987  1  -1.201666  0  -0.335451  -0.592504  0  2.342487  0
O  O402  1  0.51408148  0.67569289  0.05934922  1  -1.201666  0  -0.335404  -0.592456  0  2.342463  0
O  O403  1  0.98591845  0.82430609  0.55934929  1  -1.201651  0  -0.335419  -0.592469  0  2.342489  0
O  O404  1  0.86013146  0.59443719  0.59748165  1  -1.152381  0  -0.347116  -0.557361  0  2.141779  0
O  O405  1  0.63986838  0.90556173  0.09748219  1  -1.153191  0  -0.347155  -0.557359  0  2.141827  0
O  O406  1  0.13986646  0.40556679  0.40251981  1  -1.152412  0  -0.347062  -0.557296  0  2.141816  0
O  O407  1  0.36013052  0.09443683  0.90251812  1  -1.152325  0  -0.347174  -0.557414  0  2.141725  0
O  O408  1  0.58383186  0.40281444  0.99791180  1  -1.157065  0  -0.322618  -0.541666  0  2.26206  0
O  O409  1  0.91616833  0.09718542  0.49791161  1  -1.157088  0  -0.322541  -0.541535  0  2.262041  0
O  O410  1  0.41616705  0.59718412  0.00208851  1  -1.157088  0  -0.322578  -0.541585  0  2.26201  0
O  O411  1  0.08383313  0.90281586  0.50208755  1  -1.157141  0  -0.322607  -0.541604  0  2.261998  0
O  O412  1  0.34845079  0.24977278  0.05162124  1  -1.207993  0  -0.339915  -0.603074  0  2.381067  0
O  O413  1  0.15154629  0.25022751  0.55161917  1  -1.208044  0  -0.339889  -0.603063  0  2.381238  0
O  O414  1  0.65154748  0.75023012  0.94837714  1  -1.20803  0  -0.339976  -0.603129  0  2.381186  0
O  O415  1  0.84845408  0.74976888  0.44837149  1  -1.208068  0  -0.339972  -0.603107  0  2.381114  0
O  O416  1  0.98871323  0.97550531  0.39677124  1  -1.164116  0  -0.330727  -0.555226  0  2.231421  0
O  O417  1  0.51128754  0.52449538  0.89676974  1  -1.164219  0  -0.33078  -0.555254  0  2.231439  0
O  O418  1  0.01128733  0.02449759  0.60322907  1  -1.164228  0  -0.330774  -0.555243  0  2.231534  0
O  O419  1  0.48871102  0.47550426  0.10323057  1  -1.164199  0  -0.330799  -0.555279  0  2.231495  0
O  O420  1  0.86269732  0.88841137  0.35809086  1  -1.190785  0  -0.334002  -0.574249  0  2.177647  0
O  O421  1  0.63730373  0.61158992  0.85808965  1  -1.190791  0  -0.33401  -0.574211  0  2.177638  0
O  O422  1  0.13730628  0.11159154  0.64190906  1  -1.190988  0  -0.334004  -0.574261  0  2.177635  0
O  O423  1  0.36269233  0.38840917  0.14190989  1  -1.190867  0  -0.334021  -0.574248  0  2.177487  0
O  O424  1  0.97083123  0.68996826  0.63647548  1  -1.187213  0  -0.333906  -0.569513  0  2.185837  0
O  O425  1  0.52916798  0.81003115  0.13647611  1  -1.187227  0  -0.333844  -0.569441  0  2.185958  0
O  O426  1  0.02917217  0.31003410  0.36352676  1  -1.187058  0  -0.333805  -0.569412  0  2.18596  0
O  O427  1  0.47083169  0.18996741  0.86352574  1  -1.187192  0  -0.333895  -0.569501  0  2.185881  0
O  O428  1  0.91494383  0.23703050  0.22163851  1  -1.30792  0  -0.307928  -0.524906  0  2.208949  0
O  O429  1  0.58505525  0.26296918  0.72163763  1  -1.307844  0  -0.307956  -0.524967  0  2.208767  0
O  O430  1  0.08505590  0.76297023  0.77836180  1  -1.307848  0  -0.307938  -0.524943  0  2.208743  0
O  O431  1  0.41493659  0.73702883  0.27836230  1  -1.30778  0  -0.307974  -0.524917  0  2.208656  0
O  O432  1  0.24733159  0.15784645  0.00573926  1  -1.137868  0  -0.322648  -0.534093  0  2.204387  0
O  O433  1  0.25266636  0.34215391  0.50573787  1  -1.137955  0  -0.322669  -0.534033  0  2.204381  0
O  O434  1  0.75266600  0.84215265  0.99426182  1  -1.137896  0  -0.322639  -0.534053  0  2.204377  0
O  O435  1  0.74733148  0.65785388  0.49426205  1  -1.138199  0  -0.322615  -0.534021  0  2.204582  0
O  O436  1  0.80392177  0.13982199  0.16494525  1  -1.313283  0  -0.304394  -0.523784  0  2.252978  0
O  O437  1  0.69607515  0.36017776  0.66494388  1  -1.313355  0  -0.304375  -0.523847  0  2.252956  0
O  O438  1  0.19607741  0.86017928  0.83505390  1  -1.313268  0  -0.304371  -0.523823  0  2.252957  0
O  O439  1  0.30392141  0.63981863  0.33505604  1  -1.313432  0  -0.304402  -0.523867  0  2.25305  0
O  O440  1  0.94859478  0.35567237  0.78946174  1  -1.313382  0  -0.317993  -0.546777  0  2.221896  0
O  O441  1  0.55140996  0.14433049  0.28946090  1  -1.313413  0  -0.31802  -0.546863  0  2.221575  0
O  O442  1  0.05140813  0.64433271  0.21054050  1  -1.313365  0  -0.318053  -0.546805  0  2.221308  0
O  O443  1  0.44859185  0.85566971  0.71053941  1  -1.313263  0  -0.318018  -0.546799  0  2.221745  0
O  O444  1  0.04267560  0.46271899  0.84393792  1  -1.305342  0  -0.317643  -0.52463  0  2.170221  0
O  O445  1  0.45732914  0.03728473  0.34393619  1  -1.305687  0  -0.317636  -0.5246  0  2.170646  0
O  O446  1  0.95732974  0.53728447  0.15606548  1  -1.3058  0  -0.317559  -0.52442  0  2.171007  0
O  O447  1  0.54267309  0.96271655  0.65606374  1  -1.305354  0  -0.317584  -0.524535  0  2.170611  0
