# generated using pymatgen
data_Zn2H11C12N9O2
_symmetry_space_group_name_H-M   'P 1'
_cell_length_a   17.94328595
_cell_length_b   27.17214826
_cell_length_c   27.17216366
_cell_angle_alpha   120.00034019
_cell_angle_beta   90.00004556
_cell_angle_gamma   89.99987702
_symmetry_Int_Tables_number   1
_chemical_formula_structural   Zn2H11C12N9O2
_chemical_formula_sum   'Zn24 H132 C144 N108 O24'
_cell_volume   11473.06142190
_cell_formula_units_Z   12
loop_
 _symmetry_equiv_pos_site_id
 _symmetry_equiv_pos_as_xyz
  1  'x, y, z'
loop_
 _atom_site_type_symbol
 _atom_site_label
 _atom_site_symmetry_multiplicity
 _atom_site_fract_x
 _atom_site_fract_y
 _atom_site_fract_z
 _atom_site_occupancy
 _atom_site_pbe_bader_charge
 _atom_site_pbe_bader_spin_density
 _atom_site_pbe_cm5_charge
 _atom_site_pbe_ddec_charge
 _atom_site_pbe_ddec_spin_density
 _atom_site_pbe_ddec_sum_bond_order
 _atom_site_pbe_magmom
Zn  Zn0  1  0.57826742  0.88801770  0.33281679  1  1.202006  0  0.715452  0.636596  0  2.547023  0
Zn  Zn1  1  0.57826634  0.44479857  0.11198349  1  1.203555  0  0.715472  0.63665  0  2.547058  0
Zn  Zn2  1  0.57826680  0.66718379  0.55520278  1  1.203097  0  0.715428  0.636604  0  2.547099  0
Zn  Zn3  1  0.07826793  0.11198170  0.66718351  1  1.201978  0  0.715454  0.636614  0  2.547035  0
Zn  Zn4  1  0.07826623  0.55520162  0.88801675  1  1.20352  0  0.715446  0.636625  0  2.547064  0
Zn  Zn5  1  0.07826633  0.33281619  0.44479767  1  1.203154  0  0.715488  0.636673  0  2.546971  0
Zn  Zn6  1  0.42173267  0.33281649  0.88801971  1  1.201903  0  0.715471  0.636685  0  2.547023  0
Zn  Zn7  1  0.42173555  0.11198257  0.44479851  1  1.203714  0  0.715464  0.63666  0  2.54706  0
Zn  Zn8  1  0.42173385  0.55520285  0.66718447  1  1.203247  0  0.715403  0.636542  0  2.547104  0
Zn  Zn9  1  0.92173261  0.66718375  0.11198059  1  1.201894  0  0.715444  0.636635  0  2.547026  0
Zn  Zn10  1  0.92173419  0.88801825  0.55520195  1  1.203568  0  0.71545  0.636625  0  2.547096  0
Zn  Zn11  1  0.92173255  0.44479739  0.33281584  1  1.203093  0  0.715455  0.636691  0  2.546954  0
Zn  Zn12  1  0.42173289  0.11198143  0.66718346  1  1.201911  0  0.715465  0.636612  0  2.547086  0
Zn  Zn13  1  0.42173565  0.55520225  0.88801802  1  1.203849  0  0.715446  0.636671  0  2.547062  0
Zn  Zn14  1  0.42173352  0.33281592  0.44479763  1  1.203149  0  0.715452  0.636626  0  2.547025  0
Zn  Zn15  1  0.92173016  0.88801881  0.33281685  1  1.201985  0  0.715502  0.636716  0  2.54689  0
Zn  Zn16  1  0.92173576  0.44479704  0.11198177  1  1.203823  0  0.71543  0.63663  0  2.547071  0
Zn  Zn17  1  0.92173288  0.66718352  0.55520274  1  1.20312  0  0.715453  0.63664  0  2.547045  0
Zn  Zn18  1  0.57826932  0.66718295  0.11198170  1  1.20197  0  0.715495  0.636681  0  2.546965  0
Zn  Zn19  1  0.57826644  0.88801751  0.55520227  1  1.203705  0  0.71546  0.636638  0  2.547056  0
Zn  Zn20  1  0.57826591  0.44479765  0.33281588  1  1.203135  0  0.715449  0.636614  0  2.54705  0
Zn  Zn21  1  0.07826715  0.33281613  0.88801743  1  1.201949  0  0.715458  0.636608  0  2.547081  0
Zn  Zn22  1  0.07826669  0.11198210  0.44479782  1  1.203687  0  0.715445  0.63663  0  2.547095  0
Zn  Zn23  1  0.07826666  0.55520333  0.66718430  1  1.20323  0  0.715443  0.636636  0  2.547091  0
H  H24  1  0.43839785  0.85215767  0.25019405  1  0.096058  0  0.108209  0.100441  0  1.01995  0
H  H25  1  0.67193962  0.98902446  0.33407992  1  0.136318  0  0.120113  0.112371  0  1.008315  0
H  H26  1  0.42731797  0.88546196  0.39167099  1  0.08383  0  0.112233  0.102694  0  1.009029  0
H  H27  1  0.53309997  0.94649712  0.25406369  1  0.06867  0  0.110292  0.103229  0  1.012099  0
H  H28  1  0.43839239  0.39803900  0.14784516  1  0.054632  0  0.108176  0.1004  0  1.020076  0
H  H29  1  0.67194159  0.34505728  0.01097551  1  0.107704  0  0.120128  0.112403  0  1.00828  0
H  H30  1  0.42731730  0.50621142  0.11454103  1  0.082443  0  0.112246  0.102711  0  1.008975  0
H  H31  1  0.53310033  0.30756880  0.05350455  1  0.074271  0  0.110308  0.103326  0  1.01203  0
H  H32  1  0.43839432  0.74980657  0.60196252  1  0.085132  0  0.108187  0.100428  0  1.02009  0
H  H33  1  0.67194201  0.66592000  0.65494568  1  0.133972  0  0.120118  0.112421  0  1.008304  0
H  H34  1  0.42731402  0.60832892  0.49379215  1  0.084845  0  0.112219  0.102659  0  1.008953  0
H  H35  1  0.53310111  0.74593610  0.69243372  1  0.076455  0  0.1103  0.103286  0  1.012104  0
H  H36  1  0.93839578  0.14784206  0.74980748  1  0.095968  0  0.108176  0.100414  0  1.020119  0
H  H37  1  0.17194269  0.01097390  0.66591904  1  0.136389  0  0.12012  0.112456  0  1.008185  0
H  H38  1  0.92731862  0.11453827  0.60832932  1  0.083836  0  0.112243  0.102702  0  1.009041  0
H  H39  1  0.03310132  0.05350372  0.74593672  1  0.068987  0  0.110307  0.10329  0  1.012057  0
H  H40  1  0.93839176  0.60196185  0.85215451  1  0.054637  0  0.108171  0.100394  0  1.020096  0
H  H41  1  0.17194295  0.65494361  0.98902385  1  0.107713  0  0.120133  0.112403  0  1.008303  0
H  H42  1  0.92731650  0.49378902  0.88545907  1  0.082391  0  0.112217  0.10267  0  1.009057  0
H  H43  1  0.03310152  0.69243131  0.94649511  1  0.074289  0  0.110301  0.103308  0  1.01204  0
H  H44  1  0.93839150  0.25019459  0.39803831  1  0.085101  0  0.108192  0.100434  0  1.020001  0
H  H45  1  0.17194197  0.33408152  0.34505600  1  0.134007  0  0.120097  0.11243  0  1.008234  0
H  H46  1  0.92731533  0.39167242  0.50620927  1  0.084897  0  0.112239  0.102725  0  1.008967  0
H  H47  1  0.03310129  0.25406401  0.30756595  1  0.076441  0  0.110289  0.103254  0  1.012123  0
H  H48  1  0.56160460  0.25019158  0.85215713  1  0.096035  0  0.10818  0.10035  0  1.020004  0
H  H49  1  0.32805813  0.33407968  0.98902353  1  0.136393  0  0.120125  0.112405  0  1.008301  0
H  H50  1  0.57268095  0.39167114  0.88546186  1  0.083854  0  0.11225  0.102702  0  1.009039  0
H  H51  1  0.46689903  0.25406528  0.94649848  1  0.068664  0  0.110332  0.103309  0  1.012075  0
H  H52  1  0.56160784  0.14784511  0.39803939  1  0.054625  0  0.108197  0.100423  0  1.020069  0
H  H53  1  0.32806106  0.01097675  0.34505818  1  0.107704  0  0.120127  0.112382  0  1.008321  0
H  H54  1  0.57268396  0.11454090  0.50621171  1  0.082744  0  0.112224  0.102654  0  1.009054  0
H  H55  1  0.46689953  0.05350413  0.30756973  1  0.074335  0  0.110265  0.103208  0  1.012052  0
H  H56  1  0.56160842  0.60196157  0.74980577  1  0.085082  0  0.108177  0.100405  0  1.020058  0
H  H57  1  0.32805798  0.65494496  0.66592028  1  0.134022  0  0.12011  0.112403  0  1.008326  0
H  H58  1  0.57268564  0.49379132  0.60832875  1  0.084827  0  0.112235  0.102676  0  1.008981  0
H  H59  1  0.46689876  0.69243345  0.74593636  1  0.076451  0  0.110296  0.103263  0  1.012104  0
H  H60  1  0.06160186  0.74980631  0.14784249  1  0.096074  0  0.108197  0.100431  0  1.019876  0
H  H61  1  0.82805852  0.66592039  0.01097564  1  0.136376  0  0.120122  0.112376  0  1.008293  0
H  H62  1  0.07268142  0.60832927  0.11453817  1  0.083827  0  0.112238  0.102684  0  1.009051  0
H  H63  1  0.96690143  0.74593626  0.05350192  1  0.068678  0  0.110324  0.103285  0  1.012095  0
H  H64  1  0.06160810  0.85215410  0.60196112  1  0.054659  0  0.108186  0.100399  0  1.02008  0
H  H65  1  0.82805894  0.98902252  0.65494400  1  0.107706  0  0.120145  0.112417  0  1.008303  0
H  H66  1  0.07268287  0.88545951  0.49378832  1  0.08244  0  0.112238  0.10272  0  1.009034  0
H  H67  1  0.96690037  0.94649705  0.69243030  1  0.074349  0  0.110271  0.103217  0  1.012003  0
H  H68  1  0.06160806  0.39803822  0.25019490  1  0.085072  0  0.10817  0.100386  0  1.02005  0
H  H69  1  0.82805589  0.34505521  0.33408026  1  0.134055  0  0.12012  0.112392  0  1.008294  0
H  H70  1  0.07268565  0.50620777  0.39167039  1  0.084856  0  0.112216  0.102655  0  1.008933  0
H  H71  1  0.96689836  0.30756672  0.25406394  1  0.076438  0  0.11029  0.103263  0  1.012118  0
H  H72  1  0.56160303  0.14784146  0.74980621  1  0.096011  0  0.108188  0.100455  0  1.020095  0
H  H73  1  0.32805958  0.01097488  0.66592012  1  0.136314  0  0.120107  0.112388  0  1.008264  0
H  H74  1  0.57268235  0.11453796  0.60832921  1  0.083807  0  0.112225  0.10267  0  1.009054  0
H  H75  1  0.46690035  0.05350186  0.74593598  1  0.068684  0  0.110309  0.103282  0  1.012106  0
H  H76  1  0.56160904  0.60196077  0.85215445  1  0.054645  0  0.108184  0.100381  0  1.020082  0
H  H77  1  0.32805929  0.65494218  0.98902294  1  0.107726  0  0.120126  0.112378  0  1.008336  0
H  H78  1  0.57268302  0.49378835  0.88545859  1  0.082429  0  0.112231  0.102695  0  1.009004  0
H  H79  1  0.46690110  0.69243107  0.94649643  1  0.074295  0  0.110265  0.103202  0  1.012087  0
H  H80  1  0.56160767  0.25019393  0.39803783  1  0.085103  0  0.10816  0.100378  0  1.019966  0
H  H81  1  0.32805831  0.33408140  0.34505598  1  0.133997  0  0.120125  0.112434  0  1.008288  0
H  H82  1  0.57268630  0.39167138  0.50620842  1  0.084831  0  0.112216  0.102668  0  1.008963  0
H  H83  1  0.46689865  0.25406367  0.30756590  1  0.076428  0  0.110295  0.103261  0  1.012118  0
H  H84  1  0.06160120  0.85215833  0.25019446  1  0.096092  0  0.108211  0.100456  0  1.019974  0
H  H85  1  0.82805651  0.98902587  0.33408058  1  0.1364  0  0.120101  0.112421  0  1.00823  0
H  H86  1  0.07268058  0.88546223  0.39167103  1  0.083858  0  0.112259  0.102709  0  1.00902  0
H  H87  1  0.96689788  0.94649626  0.25406269  1  0.068967  0  0.110296  0.103257  0  1.012065  0
H  H88  1  0.06160912  0.39803902  0.14784621  1  0.054668  0  0.108199  0.1004  0  1.02005  0
H  H89  1  0.82805904  0.34505679  0.01097512  1  0.107676  0  0.120108  0.112399  0  1.008272  0
H  H90  1  0.07268326  0.50621191  0.11454086  1  0.08277  0  0.112247  0.102706  0  1.00903  0
H  H91  1  0.96690047  0.30756894  0.05350328  1  0.074307  0  0.11027  0.103194  0  1.012089  0
H  H92  1  0.06160715  0.74980570  0.60196225  1  0.08511  0  0.108165  0.10041  0  1.020069  0
H  H93  1  0.82805835  0.66592025  0.65494603  1  0.133985  0  0.120119  0.112422  0  1.008302  0
H  H94  1  0.07268611  0.60832808  0.49379109  1  0.084855  0  0.112223  0.102658  0  1.009005  0
H  H95  1  0.96689847  0.74593613  0.69243403  1  0.076456  0  0.110295  0.103246  0  1.012099  0
H  H96  1  0.43839795  0.74980587  0.14784186  1  0.096049  0  0.108212  0.100461  0  1.019959  0
H  H97  1  0.67194163  0.66592051  0.01097566  1  0.136398  0  0.120125  0.112391  0  1.008292  0
H  H98  1  0.42731881  0.60832900  0.11453813  1  0.083853  0  0.112252  0.10271  0  1.009037  0
H  H99  1  0.53310185  0.74593691  0.05350313  1  0.068968  0  0.110293  0.103264  0  1.012073  0
H  H100  1  0.43839304  0.85215476  0.60196160  1  0.054665  0  0.10819  0.100437  0  1.020059  0
H  H101  1  0.67194205  0.98902285  0.65494381  1  0.107704  0  0.120132  0.112392  0  1.008316  0
H  H102  1  0.42731580  0.88545939  0.49378885  1  0.08276  0  0.112213  0.102665  0  1.009014  0
H  H103  1  0.53310135  0.94649516  0.69243110  1  0.074282  0  0.110295  0.103278  0  1.01206  0
H  H104  1  0.43839189  0.39803761  0.25019369  1  0.08507  0  0.108183  0.100389  0  1.020021  0
H  H105  1  0.67193955  0.34505633  0.33408001  1  0.133982  0  0.120116  0.112381  0  1.008325  0
H  H106  1  0.42731412  0.50620860  0.39167145  1  0.084859  0  0.112226  0.102684  0  1.008954  0
H  H107  1  0.53310101  0.30756632  0.25406325  1  0.076419  0  0.110298  0.103265  0  1.01208  0
H  H108  1  0.93839512  0.25019171  0.85215666  1  0.095992  0  0.108171  0.100373  0  1.020082  0
H  H109  1  0.17194124  0.33407965  0.98902297  1  0.136402  0  0.120136  0.112376  0  1.008332  0
H  H110  1  0.92731834  0.39167145  0.88546197  1  0.083851  0  0.112257  0.102699  0  1.009017  0
H  H111  1  0.03310167  0.25406261  0.94649638  1  0.068971  0  0.110281  0.103243  0  1.012092  0
H  H112  1  0.93839111  0.14784583  0.39803907  1  0.054646  0  0.108188  0.100385  0  1.020073  0
H  H113  1  0.17194361  0.01097555  0.34505731  1  0.107722  0  0.120133  0.112431  0  1.008292  0
H  H114  1  0.92731689  0.11454084  0.50621145  1  0.082421  0  0.112228  0.102702  0  1.008997  0
H  H115  1  0.03309994  0.05350293  0.30756911  1  0.074329  0  0.110291  0.103233  0  1.012061  0
H  H116  1  0.93839281  0.60196345  0.74980576  1  0.085092  0  0.108147  0.100338  0  1.02003  0
H  H117  1  0.17194165  0.65494530  0.66592009  1  0.134003  0  0.1201  0.112362  0  1.00834  0
H  H118  1  0.92731522  0.49379221  0.60832901  1  0.08485  0  0.112221  0.102692  0  1.008985  0
H  H119  1  0.03310084  0.69243320  0.74593626  1  0.076434  0  0.110305  0.10328  0  1.012097  0
H  H120  1  0.63808604  0.76440338  0.23559575  1  0.130926  0  0.118335  0.080349  0  1.046667  0
H  H121  1  0.63808150  0.47119148  0.23559627  1  0.130274  0  0.118422  0.080476  0  1.04656  0
H  H122  1  0.63808232  0.76440412  0.52880753  1  0.139983  0  0.118398  0.080426  0  1.046584  0
H  H123  1  0.13808181  0.23559619  0.76440352  1  0.130998  0  0.118405  0.080438  0  1.04659  0
H  H124  1  0.13808133  0.52880783  0.76440401  1  0.140024  0  0.118432  0.080457  0  1.046541  0
H  H125  1  0.13808163  0.23559456  0.47119042  1  0.140051  0  0.118417  0.08046  0  1.046511  0
H  H126  1  0.36191651  0.23559691  0.76440481  1  0.130994  0  0.118356  0.080371  0  1.046637  0
H  H127  1  0.36191800  0.23559549  0.47119150  1  0.140018  0  0.118414  0.080467  0  1.046561  0
H  H128  1  0.36191882  0.52880897  0.76440487  1  0.140046  0  0.118436  0.08048  0  1.046544  0
H  H129  1  0.86191349  0.76440416  0.23559625  1  0.13091  0  0.118317  0.080315  0  1.04667  0
H  H130  1  0.86191757  0.76440484  0.52880882  1  0.140032  0  0.11841  0.080455  0  1.046582  0
H  H131  1  0.86191843  0.47119136  0.23559545  1  0.140031  0  0.118416  0.080465  0  1.04657  0
H  H132  1  0.64876963  0.88949035  0.44474672  1  0.05778  0  0.118303  0.074256  0  1.017969  0
H  H133  1  0.64877052  0.55525324  0.11050932  1  0.0578  0  0.118298  0.074239  0  1.017952  0
H  H134  1  0.64876682  0.55525504  0.44474532  1  0.058377  0  0.118279  0.07424  0  1.017852  0
H  H135  1  0.14877001  0.11050937  0.55525314  1  0.057807  0  0.118307  0.07424  0  1.017952  0
H  H136  1  0.14876966  0.44474684  0.88949090  1  0.057758  0  0.11832  0.074251  0  1.017946  0
H  H137  1  0.14876779  0.44474584  0.55525484  1  0.058331  0  0.118293  0.074236  0  1.017946  0
H  H138  1  0.35122924  0.44474726  0.88949104  1  0.057788  0  0.118301  0.074241  0  1.017929  0
H  H139  1  0.35123125  0.11050958  0.55525348  1  0.057797  0  0.11832  0.074276  0  1.017989  0
H  H140  1  0.35123294  0.44474531  0.55525445  1  0.058365  0  0.118278  0.074239  0  1.017848  0
H  H141  1  0.85123010  0.55525346  0.11050966  1  0.05781  0  0.118292  0.074236  0  1.017979  0
H  H142  1  0.85122920  0.88949077  0.44474685  1  0.057795  0  0.118314  0.07425  0  1.017921  0
H  H143  1  0.85123308  0.55525473  0.44474471  1  0.05836  0  0.11828  0.074256  0  1.017855  0
H  H144  1  0.50000014  0.99999685  0.42714188  1  0.105878  0  0.120406  0.078477  0  1.033912  0
H  H145  1  0.49999914  0.42714334  0.00000106  1  0.105708  0  0.120391  0.078428  0  1.034014  0
H  H146  1  0.49999981  0.57285784  0.57285795  1  0.116519  0  0.120377  0.078429  0  1.034021  0
H  H147  1  0.00000034  0.00000404  0.57285853  1  0.105926  0  0.120379  0.078435  0  1.033941  0
H  H148  1  0.99999822  0.57285757  0.99999918  1  0.105766  0  0.120371  0.078437  0  1.033937  0
H  H149  1  0.99999979  0.42714118  0.42714124  1  0.11653  0  0.120365  0.078427  0  1.034087  0
H  H150  1  0.50000018  0.00000085  0.57285907  1  0.105956  0  0.120376  0.078455  0  1.034075  0
H  H151  1  0.50000002  0.57285943  0.00000335  1  0.105912  0  0.120392  0.078464  0  1.033924  0
H  H152  1  0.50000051  0.42714061  0.42714078  1  0.116543  0  0.120385  0.078457  0  1.03404  0
H  H153  1  0.99999997  0.99999615  0.42714066  1  0.105897  0  0.120405  0.078511  0  1.033894  0
H  H154  1  0.00000046  0.42714051  0.99999654  1  0.105908  0  0.120405  0.078484  0  1.033961  0
H  H155  1  0.00000020  0.57285840  0.57285841  1  0.116529  0  0.120376  0.078441  0  1.034024  0
C  C156  1  0.48015557  0.81890382  0.23176527  1  0.292651  0  -0.028497  -0.070686  0  4.057962  0
C  C157  1  0.71112425  0.95853247  0.33394770  1  0.470706  0  0.009882  -0.012499  0  3.954822  0
C  C158  1  0.47346449  0.88687967  0.41811866  1  0.343238  0  -0.022179  -0.061849  0  4.043757  0
C  C159  1  0.51645027  0.97347465  0.29805476  1  0.397675  0  -0.028873  -0.077027  0  4.067268  0
C  C160  1  0.48014784  0.41286399  0.18109458  1  0.3796  0  -0.028388  -0.070593  0  4.0576  0
C  C161  1  0.71112557  0.37541617  0.04146743  1  0.49887  0  0.009932  -0.012423  0  3.954691  0
C  C162  1  0.47346600  0.53123998  0.11312202  1  0.365188  0  -0.022184  -0.061837  0  4.043667  0
C  C163  1  0.51645005  0.32458139  0.02652734  1  0.317479  0  -0.028984  -0.077289  0  4.067253  0
C  C164  1  0.48015085  0.76823113  0.58713723  1  0.334728  0  -0.028403  -0.070634  0  4.057848  0
C  C165  1  0.71112490  0.66605280  0.62458618  1  0.472883  0  0.009978  -0.012441  0  3.954743  0
C  C166  1  0.47346111  0.58188085  0.46876220  1  0.401122  0  -0.022156  -0.061715  0  4.043623  0
C  C167  1  0.51645094  0.70194574  0.67542087  1  0.292615  0  -0.028906  -0.077157  0  4.06737  0
C  C168  1  0.98015174  0.18109260  0.76823214  1  0.380252  0  -0.028379  -0.070642  0  4.057769  0
C  C169  1  0.21112721  0.04146736  0.66605192  1  0.303302  0  0.00997  -0.012467  0  3.954801  0
C  C170  1  0.97346512  0.11311970  0.58188169  1  0.343311  0  -0.02219  -0.061791  0  4.043691  0
C  C171  1  0.01645110  0.02652621  0.70194565  1  0.397226  0  -0.028952  -0.077195  0  4.067206  0
C  C172  1  0.98014833  0.58713717  0.81890544  1  0.367424  0  -0.028356  -0.070529  0  4.057637  0
C  C173  1  0.21112589  0.62458319  0.95853046  1  0.331636  0  0.009876  -0.012558  0  3.954851  0
C  C174  1  0.97346417  0.46876139  0.88687779  1  0.36578  0  -0.022184  -0.061821  0  4.043643  0
C  C175  1  0.01645132  0.67541874  0.97347234  1  0.317605  0  -0.02891  -0.077148  0  4.067081  0
C  C176  1  0.98014922  0.23176875  0.41286407  1  0.332345  0  -0.028382  -0.070587  0  4.057727  0
C  C177  1  0.21112601  0.33394924  0.37541565  1  0.305526  0  0.009882  -0.012601  0  3.954761  0
C  C178  1  0.97346236  0.41812047  0.53123840  1  0.313232  0  -0.022211  -0.061907  0  4.043846  0
C  C179  1  0.01645155  0.29805360  0.32457886  1  0.292631  0  -0.028874  -0.077083  0  4.067312  0
C  C180  1  0.51984526  0.23176526  0.81890533  1  0.292576  0  -0.028349  -0.070403  0  4.057781  0
C  C181  1  0.28887354  0.33394635  0.95853128  1  0.303332  0  0.009928  -0.012524  0  3.954687  0
C  C182  1  0.52653440  0.41811845  0.88688004  1  0.343257  0  -0.022186  -0.061764  0  4.043703  0
C  C183  1  0.48354754  0.29805514  0.97347648  1  0.39792  0  -0.028866  -0.077043  0  4.067217  0
C  C184  1  0.51985178  0.18109444  0.41286384  1  0.381594  0  -0.028375  -0.070557  0  4.057698  0
C  C185  1  0.28887645  0.04146908  0.37541746  1  0.498894  0  0.009875  -0.012496  0  3.954784  0
C  C186  1  0.52653636  0.11312183  0.53123892  1  0.3649  0  -0.02215  -0.061728  0  4.043514  0
C  C187  1  0.48354926  0.02652539  0.32458082  1  0.317512  0  -0.028867  -0.076997  0  4.067236  0
C  C188  1  0.51985189  0.58713630  0.76823034  1  0.334486  0  -0.028379  -0.07056  0  4.057648  0
C  C189  1  0.28887401  0.62458621  0.66605384  1  0.305473  0  0.009919  -0.012547  0  3.954797  0
C  C190  1  0.52653915  0.46876273  0.58188163  1  0.401123  0  -0.02219  -0.061788  0  4.043597  0
C  C191  1  0.48354844  0.67542118  0.70194617  1  0.364625  0  -0.028887  -0.077099  0  4.067281  0
C  C192  1  0.01984250  0.76823518  0.18109550  1  0.292701  0  -0.028516  -0.070722  0  4.057849  0
C  C193  1  0.78887396  0.66605293  0.04146875  1  0.470729  0  0.009964  -0.012407  0  3.954937  0
C  C194  1  0.02653496  0.58188225  0.11311979  1  0.343338  0  -0.022201  -0.06181  0  4.043636  0
C  C195  1  0.98354894  0.70194574  0.02652455  1  0.397722  0  -0.02888  -0.07709  0  4.067199  0
C  C196  1  0.01985102  0.81890447  0.58713632  1  0.368722  0  -0.028405  -0.070547  0  4.057782  0
C  C197  1  0.78887439  0.95852994  0.62458357  1  0.331623  0  0.009849  -0.01257  0  3.954823  0
C  C198  1  0.02653467  0.88687813  0.46876017  1  0.365197  0  -0.02221  -0.061943  0  4.043687  0
C  C199  1  0.98355000  0.97347575  0.67541921  1  0.317561  0  -0.028904  -0.077017  0  4.067133  0
C  C200  1  0.01985146  0.41286376  0.23177012  1  0.353486  0  -0.02833  -0.070526  0  4.057751  0
C  C201  1  0.78887294  0.37541576  0.33394718  1  0.305568  0  0.009902  -0.012463  0  3.954907  0
C  C202  1  0.02653856  0.53123760  0.41811783  1  0.401085  0  -0.022154  -0.061728  0  4.043533  0
C  C203  1  0.98354748  0.32457924  0.29805312  1  0.364617  0  -0.02887  -0.077103  0  4.067187  0
C  C204  1  0.51984698  0.18109253  0.76823262  1  0.38022  0  -0.028431  -0.070748  0  4.057888  0
C  C205  1  0.28887440  0.04146687  0.66605234  1  0.470617  0  0.009933  -0.012467  0  3.954774  0
C  C206  1  0.52653527  0.11311962  0.58188217  1  0.343408  0  -0.022185  -0.061825  0  4.043631  0
C  C207  1  0.48354893  0.02652485  0.70194586  1  0.397699  0  -0.028902  -0.077092  0  4.067167  0
C  C208  1  0.51985248  0.58713520  0.81890488  1  0.372701  0  -0.028425  -0.070578  0  4.057656  0
C  C209  1  0.28887586  0.62458271  0.95853087  1  0.498909  0  0.009925  -0.012424  0  3.954672  0
C  C210  1  0.52653488  0.46876015  0.88687796  1  0.365202  0  -0.022182  -0.061834  0  4.043549  0
C  C211  1  0.48355139  0.67541942  0.97347418  1  0.317431  0  -0.028897  -0.077005  0  4.067161  0
C  C212  1  0.51984947  0.23176815  0.41286360  1  0.325677  0  -0.028395  -0.070574  0  4.057782  0
C  C213  1  0.28887487  0.33394881  0.37541527  1  0.472904  0  0.009959  -0.012427  0  3.954565  0
C  C214  1  0.52653865  0.41811870  0.53123762  1  0.313241  0  -0.022173  -0.061817  0  4.043528  0
C  C215  1  0.48354827  0.29805324  0.32457880  1  0.294365  0  -0.028865  -0.077058  0  4.067212  0
C  C216  1  0.01984245  0.81890570  0.23176600  1  0.380287  0  -0.028514  -0.07074  0  4.057974  0
C  C217  1  0.78887311  0.95853241  0.33394770  1  0.303329  0  0.009949  -0.012503  0  3.954935  0
C  C218  1  0.02653353  0.88687986  0.41811813  1  0.343373  0  -0.022162  -0.061679  0  4.043663  0
C  C219  1  0.98354755  0.97347392  0.29805434  1  0.397604  0  -0.028883  -0.077098  0  4.067217  0
C  C220  1  0.01985199  0.41286407  0.18109565  1  0.353684  0  -0.02837  -0.070508  0  4.057555  0
C  C221  1  0.78887388  0.37541669  0.04146757  1  0.331592  0  0.009922  -0.012496  0  3.954819  0
C  C222  1  0.02653559  0.53123938  0.11312155  1  0.364845  0  -0.02218  -0.061774  0  4.043543  0
C  C223  1  0.98355067  0.32457998  0.02652538  1  0.317449  0  -0.02885  -0.076933  0  4.067235  0
C  C224  1  0.01985054  0.76823112  0.58713692  1  0.338015  0  -0.02833  -0.070584  0  4.057753  0
C  C225  1  0.78887487  0.66605332  0.62458633  1  0.305549  0  0.00998  -0.01245  0  3.954762  0
C  C226  1  0.02653851  0.58188068  0.46876131  1  0.313234  0  -0.022165  -0.061774  0  4.043571  0
C  C227  1  0.98354710  0.70194611  0.67542155  1  0.294356  0  -0.02887  -0.077028  0  4.067169  0
C  C228  1  0.48015618  0.76823424  0.18109529  1  0.380319  0  -0.028432  -0.070669  0  4.057948  0
C  C229  1  0.71112677  0.66605336  0.04146912  1  0.303327  0  0.0099  -0.012512  0  3.954921  0
C  C230  1  0.47346536  0.58188126  0.11312037  1  0.343277  0  -0.022186  -0.061791  0  4.043765  0
C  C231  1  0.51645222  0.70194620  0.02652598  1  0.397603  0  -0.02893  -0.07718  0  4.06717  0
C  C232  1  0.48015021  0.81890549  0.58713636  1  0.372084  0  -0.028423  -0.070634  0  4.057806  0
C  C233  1  0.71112498  0.95852978  0.62458379  1  0.498922  0  0.009938  -0.012426  0  3.954749  0
C  C234  1  0.47346452  0.88687836  0.46876027  1  0.364847  0  -0.022151  -0.061746  0  4.043798  0
C  C235  1  0.51645161  0.97347279  0.67541891  1  0.317624  0  -0.028905  -0.077124  0  4.067199  0
C  C236  1  0.48014954  0.41286337  0.23176790  1  0.327653  0  -0.028318  -0.070443  0  4.057712  0
C  C237  1  0.71112408  0.37541561  0.33394740  1  0.472919  0  0.00986  -0.012566  0  3.954853  0
C  C238  1  0.47346116  0.53123873  0.41811925  1  0.313193  0  -0.022192  -0.061866  0  4.043645  0
C  C239  1  0.51645132  0.32457902  0.29805302  1  0.362886  0  -0.028886  -0.077096  0  4.067197  0
C  C240  1  0.98015169  0.23176680  0.81890633  1  0.292633  0  -0.028369  -0.070522  0  4.057703  0
C  C241  1  0.21112580  0.33394589  0.95853034  1  0.470742  0  0.009868  -0.01246  0  3.954788  0
C  C242  1  0.97346536  0.41811853  0.88687956  1  0.342609  0  -0.02218  -0.061748  0  4.04365  0
C  C243  1  0.01645249  0.29805372  0.97347390  1  0.397597  0  -0.028907  -0.077143  0  4.067243  0
C  C244  1  0.98014707  0.18109487  0.41286372  1  0.374821  0  -0.028377  -0.070514  0  4.057577  0
C  C245  1  0.21112704  0.04146904  0.37541610  1  0.331627  0  0.009936  -0.012503  0  3.954787  0
C  C246  1  0.97346453  0.11312106  0.53123929  1  0.365216  0  -0.022197  -0.061856  0  4.043638  0
C  C247  1  0.01645032  0.02652481  0.32458035  1  0.317604  0  -0.028836  -0.076941  0  4.067181  0
C  C248  1  0.98015053  0.58713742  0.76823176  1  0.339812  0  -0.028318  -0.070446  0  4.057736  0
C  C249  1  0.21112571  0.62458627  0.66605385  1  0.472887  0  0.009966  -0.012376  0  3.954824  0
C  C250  1  0.97346231  0.46876302  0.58188094  1  0.401452  0  -0.022195  -0.061848  0  4.043863  0
C  C251  1  0.01645060  0.67542090  0.70194686  1  0.362873  0  -0.028893  -0.077124  0  4.067212  0
C  C252  1  0.58445593  0.77500142  0.22499777  1  0.986299  0  0.114864  0.144109  0  3.988747  0
C  C253  1  0.58445088  0.44999607  0.22499798  1  0.978393  0  0.114855  0.14405  0  3.988713  0
C  C254  1  0.58445222  0.77500188  0.55000282  1  0.968591  0  0.114805  0.143991  0  3.988667  0
C  C255  1  0.08445230  0.22499802  0.77500173  1  0.986313  0  0.114827  0.14399  0  3.988691  0
C  C256  1  0.08445066  0.55000368  0.77500268  1  0.968644  0  0.114864  0.144116  0  3.988646  0
C  C257  1  0.08445043  0.22499783  0.44999568  1  0.968374  0  0.114846  0.144068  0  3.988684  0
C  C258  1  0.41554550  0.22499839  0.77500401  1  0.986291  0  0.114873  0.144079  0  3.988677  0
C  C259  1  0.41554865  0.22499715  0.44999606  1  0.968704  0  0.11481  0.14398  0  3.988685  0
C  C260  1  0.41554943  0.55000364  0.77500243  1  0.968511  0  0.114833  0.14405  0  3.988682  0
C  C261  1  0.91554244  0.77500333  0.22499777  1  0.986279  0  0.114919  0.144173  0  3.988776  0
C  C262  1  0.91554821  0.77500252  0.55000410  1  0.968612  0  0.114852  0.144052  0  3.988691  0
C  C263  1  0.91554854  0.44999566  0.22499736  1  0.968622  0  0.114842  0.144034  0  3.988717  0
C  C264  1  0.74999908  0.88369888  0.33329032  1  1.343723  0  0.283468  0.250843  0  4.048448  0
C  C265  1  0.75000076  0.44959435  0.11630429  1  1.298454  0  0.283491  0.250934  0  4.048433  0
C  C266  1  0.74999956  0.66671064  0.55041006  1  1.337976  0  0.283433  0.250776  0  4.048572  0
C  C267  1  0.24999957  0.11630083  0.66671009  1  1.343738  0  0.283419  0.250862  0  4.048538  0
C  C268  1  0.25000067  0.55040610  0.88369686  1  1.29816  0  0.283492  0.250888  0  4.048361  0
C  C269  1  0.25000020  0.33329107  0.44959276  1  1.337898  0  0.283485  0.250935  0  4.048341  0
C  C270  1  0.25000046  0.33328820  0.88369567  1  1.343197  0  0.283568  0.251039  0  4.04825  0
C  C271  1  0.25000111  0.11630480  0.44959317  1  1.298468  0  0.283534  0.250934  0  4.048423  0
C  C272  1  0.24999998  0.55040970  0.66671132  1  1.337553  0  0.283479  0.250871  0  4.048486  0
C  C273  1  0.75000041  0.66671111  0.11630220  1  1.343704  0  0.283405  0.250761  0  4.048692  0
C  C274  1  0.75000032  0.88369592  0.55040697  1  1.298239  0  0.28357  0.251098  0  4.048212  0
C  C275  1  0.74999866  0.44959196  0.33328934  1  1.337457  0  0.283487  0.25088  0  4.048479  0
C  C276  1  0.58838046  0.88928651  0.44464441  1  1.031838  0  0.117582  0.147723  0  4.006053  0
C  C277  1  0.58838136  0.55535540  0.11071342  1  1.031781  0  0.117565  0.147701  0  4.005975  0
C  C278  1  0.58837710  0.55535649  0.44464318  1  1.036929  0  0.117601  0.147801  0  4.005816  0
C  C279  1  0.08838140  0.11071308  0.55535567  1  1.031762  0  0.117568  0.147757  0  4.00601  0
C  C280  1  0.08838106  0.44464425  0.88928587  1  1.031826  0  0.117605  0.14781  0  4.006095  0
C  C281  1  0.08837863  0.44464453  0.55535620  1  1.03694  0  0.117599  0.147814  0  4.005933  0
C  C282  1  0.41161840  0.44464432  0.88928699  1  1.031831  0  0.11761  0.147787  0  4.005872  0
C  C283  1  0.41161985  0.11071399  0.55535594  1  1.031832  0  0.117515  0.14761  0  4.006179  0
C  C284  1  0.41162266  0.44464370  0.55535601  1  1.036866  0  0.117567  0.147754  0  4.005817  0
C  C285  1  0.91161870  0.55535594  0.11071332  1  1.031771  0  0.117585  0.14778  0  4.006023  0
C  C286  1  0.91161836  0.88928611  0.44464379  1  1.032023  0  0.117567  0.147771  0  4.006016  0
C  C287  1  0.91162280  0.55535667  0.44464272  1  1.036917  0  0.117583  0.147754  0  4.005987  0
C  C288  1  0.50000235  0.99999810  0.38714877  1  0.976324  0  0.109278  0.124887  0  4.01886  0
C  C289  1  0.49999976  0.38715063  0.00000187  1  0.976517  0  0.1093  0.124941  0  4.018843  0
C  C290  1  0.50000032  0.61285141  0.61285108  1  0.952728  0  0.109352  0.124925  0  4.018884  0
C  C291  1  0.00000260  0.00000206  0.61285090  1  0.976246  0  0.109332  0.125008  0  4.018765  0
C  C292  1  0.99999983  0.61285102  0.99999910  1  0.976419  0  0.10928  0.124899  0  4.01885  0
C  C293  1  0.99999983  0.38714913  0.38714879  1  0.952722  0  0.109339  0.124905  0  4.018874  0
C  C294  1  0.50000025  0.99999985  0.61285043  1  0.976307  0  0.109386  0.124959  0  4.01872  0
C  C295  1  0.50000274  0.61285162  0.00000159  1  0.976343  0  0.109308  0.12494  0  4.018737  0
C  C296  1  0.50000000  0.38714873  0.38714891  1  0.952717  0  0.109306  0.124878  0  4.018842  0
C  C297  1  0.99999716  0.99999792  0.38714850  1  0.976327  0  0.10929  0.124836  0  4.01882  0
C  C298  1  0.00000276  0.38714854  0.99999809  1  0.976327  0  0.109308  0.124904  0  4.018724  0
C  C299  1  0.99999960  0.61285081  0.61285123  1  0.952707  0  0.109302  0.124848  0  4.018913  0
N  N300  1  0.54659826  0.82289182  0.25927210  1  -1.272476  0  -0.380992  -0.287794  0  3.632604  0
N  N301  1  0.68697379  0.91072097  0.33354563  1  -1.226855  0  -0.349225  -0.311079  0  3.567381  0
N  N302  1  0.54664951  0.88845565  0.40309717  1  -1.260592  0  -0.378594  -0.290653  0  3.629115  0
N  N303  1  0.52661457  0.95694252  0.33813534  1  -1.275324  0  -0.380598  -0.302176  0  3.612487  0
N  N304  1  0.54659493  0.43638067  0.17710897  1  -1.260933  0  -0.3811  -0.287949  0  3.632686  0
N  N305  1  0.68697443  0.42282625  0.08928033  1  -1.200966  0  -0.34927  -0.311259  0  3.567077  0
N  N306  1  0.54664938  0.51464147  0.11154662  1  -1.260665  0  -0.378601  -0.290613  0  3.629064  0
N  N307  1  0.52661421  0.38119396  0.04305842  1  -1.281946  0  -0.380526  -0.302111  0  3.612277  0
N  N308  1  0.54659634  0.74072796  0.56362020  1  -1.253915  0  -0.380991  -0.287745  0  3.632686  0
N  N309  1  0.68697433  0.66645458  0.57717652  1  -1.224221  0  -0.349341  -0.311245  0  3.567327  0
N  N310  1  0.54664613  0.59690295  0.48536008  1  -1.270856  0  -0.378624  -0.290796  0  3.629134  0
N  N311  1  0.52661633  0.66186634  0.61880814  1  -1.245966  0  -0.380591  -0.302124  0  3.612278  0
N  N312  1  0.04659586  0.17710747  0.74072762  1  -1.272361  0  -0.381036  -0.287733  0  3.632636  0
N  N313  1  0.18697493  0.08927789  0.66645427  1  -1.226766  0  -0.349281  -0.311222  0  3.567358  0
N  N314  1  0.04664994  0.11154400  0.59690292  1  -1.260526  0  -0.378624  -0.290758  0  3.629199  0
N  N315  1  0.02661530  0.04305817  0.66186448  1  -1.275262  0  -0.380558  -0.30215  0  3.612342  0
N  N316  1  0.04659472  0.56361962  0.82289048  1  -1.261066  0  -0.381081  -0.287951  0  3.632777  0
N  N317  1  0.18697540  0.57717398  0.91071967  1  -1.201005  0  -0.349217  -0.311091  0  3.567153  0
N  N318  1  0.04664951  0.48535840  0.88845326  1  -1.260358  0  -0.378618  -0.290736  0  3.629242  0
N  N319  1  0.02661398  0.61880616  0.95694125  1  -1.282108  0  -0.380561  -0.302145  0  3.61231  0
N  N320  1  0.04659499  0.25927075  0.43637936  1  -1.254307  0  -0.381011  -0.287804  0  3.632695  0
N  N321  1  0.18697438  0.33354728  0.42282553  1  -1.224311  0  -0.349242  -0.31115  0  3.567084  0
N  N322  1  0.04664719  0.40309787  0.51464032  1  -1.270907  0  -0.378591  -0.29069  0  3.62923  0
N  N323  1  0.02661632  0.33813340  0.38119116  1  -1.245907  0  -0.380601  -0.302152  0  3.612365  0
N  N324  1  0.45340365  0.25927064  0.82289272  1  -1.272401  0  -0.381085  -0.287881  0  3.632794  0
N  N325  1  0.31302572  0.33354390  0.91071943  1  -1.226551  0  -0.349302  -0.311231  0  3.567089  0
N  N326  1  0.45334939  0.40309738  0.88845645  1  -1.260583  0  -0.37863  -0.290815  0  3.629233  0
N  N327  1  0.47338210  0.33813509  0.95694285  1  -1.275306  0  -0.380612  -0.302156  0  3.612202  0
N  N328  1  0.45340522  0.17710814  0.43637983  1  -1.260967  0  -0.381032  -0.287827  0  3.632721  0
N  N329  1  0.31302583  0.08928130  0.42282598  1  -1.201246  0  -0.349269  -0.311191  0  3.567187  0
N  N330  1  0.45335187  0.11154696  0.51464222  1  -1.260659  0  -0.378611  -0.290655  0  3.629205  0
N  N331  1  0.47338447  0.04305880  0.38119398  1  -1.281841  0  -0.380597  -0.302262  0  3.612292  0
N  N332  1  0.45340533  0.56362117  0.74072908  1  -1.253996  0  -0.381006  -0.287804  0  3.632673  0
N  N333  1  0.31302574  0.57717649  0.66645558  1  -1.224278  0  -0.349264  -0.31113  0  3.567238  0
N  N334  1  0.45335355  0.48535935  0.59690289  1  -1.270793  0  -0.378562  -0.290699  0  3.629156  0
N  N335  1  0.47338370  0.61880775  0.66186526  1  -1.245923  0  -0.380582  -0.30208  0  3.612293  0
N  N336  1  0.95340009  0.74072897  0.17710743  1  -1.27249  0  -0.380899  -0.287672  0  3.632593  0
N  N337  1  0.81302564  0.66645503  0.08927943  1  -1.226794  0  -0.34928  -0.311193  0  3.56754  0
N  N338  1  0.95334956  0.59690318  0.11154422  1  -1.260426  0  -0.378637  -0.290805  0  3.629235  0
N  N339  1  0.97338421  0.66186660  0.04305812  1  -1.275081  0  -0.380614  -0.30216  0  3.612286  0
N  N340  1  0.95340464  0.82289184  0.56362068  1  -1.260703  0  -0.38106  -0.287871  0  3.632739  0
N  N341  1  0.81302554  0.91071889  0.57717457  1  -1.201069  0  -0.349276  -0.311219  0  3.567182  0
N  N342  1  0.95335043  0.88845323  0.48535808  1  -1.260533  0  -0.378597  -0.290668  0  3.629152  0
N  N343  1  0.97338463  0.95694179  0.61880590  1  -1.281813  0  -0.380564  -0.302219  0  3.612136  0
N  N344  1  0.95340509  0.43637918  0.25927180  1  -1.253748  0  -0.381094  -0.287879  0  3.632731  0
N  N345  1  0.81302395  0.42282480  0.33354607  1  -1.224194  0  -0.349235  -0.31118  0  3.567251  0
N  N346  1  0.95335322  0.51464111  0.40309641  1  -1.270884  0  -0.378608  -0.290796  0  3.629197  0
N  N347  1  0.97338317  0.38119210  0.33813387  1  -1.245949  0  -0.380627  -0.30215  0  3.612227  0
N  N348  1  0.45340150  0.17710695  0.74072779  1  -1.272339  0  -0.380975  -0.287741  0  3.63254  0
N  N349  1  0.31302709  0.08927874  0.66645478  1  -1.226731  0  -0.34928  -0.311204  0  3.567232  0
N  N350  1  0.45335081  0.11154390  0.59690266  1  -1.260575  0  -0.378571  -0.290669  0  3.629221  0
N  N351  1  0.47338463  0.04305771  0.66186601  1  -1.275146  0  -0.380607  -0.302179  0  3.612215  0
N  N352  1  0.45340650  0.56361946  0.82289101  1  -1.260915  0  -0.381062  -0.287894  0  3.632809  0
N  N353  1  0.31302644  0.57717257  0.91071876  1  -1.201228  0  -0.349249  -0.311178  0  3.567052  0
N  N354  1  0.45335093  0.48535867  0.88845336  1  -1.260678  0  -0.378658  -0.290753  0  3.629013  0
N  N355  1  0.47338555  0.61880645  0.95694056  1  -1.281994  0  -0.380549  -0.302223  0  3.612221  0
N  N356  1  0.45340453  0.25927086  0.43637889  1  -1.254186  0  -0.381  -0.287781  0  3.632769  0
N  N357  1  0.31302543  0.33354639  0.42282557  1  -1.224325  0  -0.349309  -0.311284  0  3.56703  0
N  N358  1  0.45335363  0.40309735  0.51464049  1  -1.270886  0  -0.378604  -0.290703  0  3.629092  0
N  N359  1  0.47338455  0.33813343  0.38119147  1  -1.245922  0  -0.380614  -0.302179  0  3.612297  0
N  N360  1  0.95339944  0.82289256  0.25927099  1  -1.272452  0  -0.380971  -0.287764  0  3.632698  0
N  N361  1  0.81302483  0.91072204  0.33354592  1  -1.226746  0  -0.349271  -0.311207  0  3.567395  0
N  N362  1  0.95334871  0.88845555  0.40309691  1  -1.260919  0  -0.378646  -0.290863  0  3.629307  0
N  N363  1  0.97338335  0.95694297  0.33813523  1  -1.275363  0  -0.380655  -0.302191  0  3.612466  0
N  N364  1  0.95340559  0.43637957  0.17710898  1  -1.261245  0  -0.381083  -0.287913  0  3.632722  0
N  N365  1  0.81302604  0.42282579  0.08927995  1  -1.201152  0  -0.349234  -0.31115  0  3.567118  0
N  N366  1  0.95335137  0.51464142  0.11154557  1  -1.260817  0  -0.378584  -0.290743  0  3.62917  0
N  N367  1  0.97338466  0.38119319  0.04305879  1  -1.281955  0  -0.38059  -0.302227  0  3.61222  0
N  N368  1  0.95340422  0.74072838  0.56362089  1  -1.253849  0  -0.381052  -0.287806  0  3.632505  0
N  N369  1  0.81302593  0.66645522  0.57717725  1  -1.224266  0  -0.349316  -0.311197  0  3.56731  0
N  N370  1  0.95335369  0.59690275  0.48535844  1  -1.270932  0  -0.378617  -0.290764  0  3.629198  0
N  N371  1  0.97338233  0.66186557  0.61880851  1  -1.245915  0  -0.380609  -0.302135  0  3.612287  0
N  N372  1  0.54660001  0.74072807  0.17710796  1  -1.272428  0  -0.380949  -0.287711  0  3.632588  0
N  N373  1  0.68697515  0.66645550  0.08927982  1  -1.226771  0  -0.34928  -0.311158  0  3.567462  0
N  N374  1  0.54665092  0.59690313  0.11154390  1  -1.260438  0  -0.37863  -0.290798  0  3.629188  0
N  N375  1  0.52661654  0.66186520  0.04305771  1  -1.275342  0  -0.380576  -0.30211  0  3.61233  0
N  N376  1  0.54659565  0.82289068  0.56361926  1  -1.260678  0  -0.380999  -0.287764  0  3.632871  0
N  N377  1  0.68697505  0.91071899  0.57717459  1  -1.201062  0  -0.349275  -0.311239  0  3.567176  0
N  N378  1  0.54664845  0.88845391  0.48535850  1  -1.260583  0  -0.378627  -0.290753  0  3.629255  0
N  N379  1  0.52661585  0.95694107  0.61880701  1  -1.282096  0  -0.380649  -0.302211  0  3.612266  0
N  N380  1  0.54659443  0.43637854  0.25927132  1  -1.254123  0  -0.381074  -0.287846  0  3.632752  0
N  N381  1  0.68697346  0.42282459  0.33354492  1  -1.224383  0  -0.349209  -0.311085  0  3.567297  0
N  N382  1  0.54664622  0.51464121  0.40309667  1  -1.270877  0  -0.378586  -0.290698  0  3.629099  0
N  N383  1  0.52661662  0.38119150  0.33813340  1  -1.245909  0  -0.380627  -0.302188  0  3.612331  0
N  N384  1  0.04659522  0.25927164  0.82289134  1  -1.272437  0  -0.381021  -0.287773  0  3.632756  0
N  N385  1  0.18697412  0.33354326  0.91071871  1  -1.226564  0  -0.349274  -0.311202  0  3.567139  0
N  N386  1  0.04665020  0.40309680  0.88845518  1  -1.260593  0  -0.378636  -0.2908  0  3.629212  0
N  N387  1  0.02661667  0.33813470  0.95694217  1  -1.275351  0  -0.380599  -0.302137  0  3.612343  0
N  N388  1  0.04659456  0.17710750  0.43637936  1  -1.260455  0  -0.381096  -0.287934  0  3.632595  0
N  N389  1  0.18697534  0.08928082  0.42282584  1  -1.20095  0  -0.349267  -0.311159  0  3.567152  0
N  N390  1  0.04664933  0.11154517  0.51464144  1  -1.260738  0  -0.378577  -0.290686  0  3.629155  0
N  N391  1  0.02661624  0.04305783  0.38119314  1  -1.282143  0  -0.380611  -0.302264  0  3.612283  0
N  N392  1  0.04659467  0.56362117  0.74072797  1  -1.25394  0  -0.381092  -0.287896  0  3.632697  0
N  N393  1  0.18697414  0.57717696  0.66645597  1  -1.224302  0  -0.3493  -0.311231  0  3.567357  0
N  N394  1  0.04664766  0.48536046  0.59690288  1  -1.27121  0  -0.378584  -0.290713  0  3.629222  0
N  N395  1  0.02661492  0.61880804  0.66186611  1  -1.245945  0  -0.38058  -0.302138  0  3.612285  0
N  N396  1  0.74999972  0.83100708  0.33301436  1  0.294285  0  0.047681  0.454171  0  4.266832  0
N  N397  1  0.74999960  0.50200747  0.16899488  1  0.304073  0  0.047801  0.454311  0  4.267044  0
N  N398  1  0.74999953  0.66698716  0.49799538  1  0.294457  0  0.047784  0.454266  0  4.266915  0
N  N399  1  0.25000004  0.16899258  0.66698684  1  0.294282  0  0.0477  0.454123  0  4.266906  0
N  N400  1  0.25000072  0.49799203  0.83100574  1  0.30434  0  0.047764  0.454265  0  4.266992  0
N  N401  1  0.24999968  0.33301430  0.50200550  1  0.294396  0  0.047859  0.45435  0  4.266745  0
N  N402  1  0.24999932  0.33301099  0.83100518  1  0.294132  0  0.047737  0.454202  0  4.266967  0
N  N403  1  0.25000050  0.16899398  0.50200697  1  0.303993  0  0.047749  0.454224  0  4.266985  0
N  N404  1  0.24999951  0.49799503  0.66698702  1  0.294705  0  0.0478  0.454267  0  4.266919  0
N  N405  1  0.74999989  0.66698725  0.16899375  1  0.2943  0  0.047765  0.454233  0  4.266934  0
N  N406  1  0.74999870  0.83100468  0.49799154  1  0.304322  0  0.047726  0.454179  0  4.267104  0
N  N407  1  0.74999969  0.50200648  0.33301306  1  0.294904  0  0.047745  0.454264  0  4.266904  0
O  O408  1  0.68835552  0.80979253  0.33296517  1  -0.451107  0  -0.122245  -0.318995  0  1.954827  0
O  O409  1  0.68835367  0.52317358  0.19021067  1  -0.458996  0  -0.12233  -0.319116  0  1.954815  0
O  O410  1  0.68835584  0.66703552  0.47682903  1  -0.450735  0  -0.122252  -0.319001  0  1.954937  0
O  O411  1  0.18835244  0.19020600  0.66703653  1  -0.45109  0  -0.12224  -0.318986  0  1.954806  0
O  O412  1  0.18835429  0.47682580  0.80979018  1  -0.45896  0  -0.1223  -0.319084  0  1.954835  0
O  O413  1  0.18835435  0.33296481  0.52317234  1  -0.450813  0  -0.122324  -0.319095  0  1.954779  0
O  O414  1  0.31164520  0.33296222  0.80978938  1  -0.45099  0  -0.122269  -0.319047  0  1.954782  0
O  O415  1  0.31164526  0.19020966  0.52317381  1  -0.458951  0  -0.122263  -0.319017  0  1.954859  0
O  O416  1  0.31164600  0.47682883  0.66703511  1  -0.450774  0  -0.122271  -0.319021  0  1.954858  0
O  O417  1  0.81164524  0.66703640  0.19020832  1  -0.451109  0  -0.122252  -0.318979  0  1.954802  0
O  O418  1  0.81164518  0.80979022  0.47682558  1  -0.458948  0  -0.122295  -0.319065  0  1.954839  0
O  O419  1  0.81164500  0.52317127  0.33296406  1  -0.450855  0  -0.122242  -0.319001  0  1.954838  0
O  O420  1  0.31164368  0.19020718  0.66703524  1  -0.451039  0  -0.1222  -0.318917  0  1.954874  0
O  O421  1  0.31164553  0.47682475  0.80978964  1  -0.458989  0  -0.122291  -0.319047  0  1.954788  0
O  O422  1  0.31164559  0.33296587  0.52317264  1  -0.450774  0  -0.122286  -0.319043  0  1.954742  0
O  O423  1  0.81164565  0.80979418  0.33296562  1  -0.451073  0  -0.122217  -0.318964  0  1.954795  0
O  O424  1  0.81164492  0.52317465  0.19021096  1  -0.458953  0  -0.122278  -0.31905  0  1.954825  0
O  O425  1  0.81164653  0.66703653  0.47683012  1  -0.450875  0  -0.122254  -0.318999  0  1.954819  0
O  O426  1  0.68835456  0.66703671  0.19020813  1  -0.451117  0  -0.122252  -0.318995  0  1.954824  0
O  O427  1  0.68835505  0.80978995  0.47682522  1  -0.458988  0  -0.122267  -0.31902  0  1.954933  0
O  O428  1  0.68835432  0.52317332  0.33296433  1  -0.45086  0  -0.122294  -0.319074  0  1.954791  0
O  O429  1  0.18835396  0.33296263  0.80979055  1  -0.451011  0  -0.122264  -0.319004  0  1.954821  0
O  O430  1  0.18835402  0.19020918  0.52317367  1  -0.458948  0  -0.122304  -0.319058  0  1.954734  0
O  O431  1  0.18835476  0.47682944  0.66703608  1  -0.45077  0  -0.122278  -0.319027  0  1.954901  0
