# generated using pymatgen
data_Co2H36C53(NO)8
_symmetry_space_group_name_H-M   'P 1'
_cell_length_a   14.21887326
_cell_length_b   20.29506155
_cell_length_c   21.32472791
_cell_angle_alpha   107.90282625
_cell_angle_beta   109.45699101
_cell_angle_gamma   90.02472389
_symmetry_Int_Tables_number   1
_chemical_formula_structural   Co2H36C53(NO)8
_chemical_formula_sum   'Co8 H144 C212 N32 O32'
_cell_volume   5484.97836223
_cell_formula_units_Z   4
loop_
 _symmetry_equiv_pos_site_id
 _symmetry_equiv_pos_as_xyz
  1  'x, y, z'
loop_
 _atom_site_type_symbol
 _atom_site_label
 _atom_site_symmetry_multiplicity
 _atom_site_fract_x
 _atom_site_fract_y
 _atom_site_fract_z
 _atom_site_occupancy
 _atom_site_pbe_bader_charge
 _atom_site_pbe_bader_spin_density
 _atom_site_pbe_cm5_charge
 _atom_site_pbe_ddec_charge
 _atom_site_pbe_ddec_spin_density
 _atom_site_pbe_ddec_sum_bond_order
 _atom_site_pbe_magmom
Co  Co0  1  0.87888157  0.88150349  0.82967192  1  1.202069  2.552686  0.670846  0.791792  2.782475  2.567475  2.501
Co  Co1  1  0.43681209  0.66678339  0.55865057  1  1.206091  2.546768  0.692069  0.831625  2.766376  2.614941  2.48
Co  Co2  1  0.04895027  0.61851291  0.17035425  1  1.190424  2.554211  0.670638  0.79225  2.785276  2.5646  2.501
Co  Co3  1  0.87845070  0.83321118  0.44139343  1  1.206318  2.54721  0.692268  0.832919  2.765863  2.612043  2.481
Co  Co4  1  0.12111570  0.11849350  0.17032622  1  1.202165  2.552681  0.670857  0.791767  2.78247  2.56758  2.501
Co  Co5  1  0.56319452  0.33321729  0.44135228  1  1.205959  2.546771  0.692148  0.831722  2.766358  2.614807  2.48
Co  Co6  1  0.95105236  0.38148774  0.82964610  1  1.190537  2.554209  0.670644  0.792287  2.78528  2.564503  2.501
Co  Co7  1  0.12154594  0.16679207  0.55860657  1  1.206256  2.547217  0.692221  0.832865  2.765877  2.612078  2.481
H  H8  1  0.91619272  0.63459658  0.85021335  1  0.129071  0.000271  0.101941  0.108072  0.000114  1.02224  0.0
H  H9  1  0.91041157  0.47510218  0.66112433  1  0.077503  0.000461  0.105274  0.108844  0.000169  0.998215  0.0
H  H10  1  0.88252503  0.56310086  0.59826487  1  0.088061  5.9e-05  0.096539  0.097093  2e-05  1.041384  0.0
H  H11  1  0.86755443  0.68585795  0.66164847  1  0.093722  0.000476  0.10218  0.10486  0.0002  1.023438  0.0
H  H12  1  0.03502931  0.82472142  0.94291715  1  0.19614  0.000547  0.144344  0.125782  7.4e-05  1.003652  0.001
H  H13  1  0.25761421  0.97428035  0.95767155  1  0.11734  0.000758  0.120827  0.115603  0.000302  1.02198  0.0
H  H14  1  0.07244297  0.98607361  0.86463063  1  0.119786  0.000932  0.128469  0.127737  0.000218  0.986988  0.001
H  H15  1  0.13547825  0.85085524  0.06380551  1  0.095922  0.000107  0.115508  0.126509  2.9e-05  1.00532  0.0
H  H16  1  0.26223990  0.82310327  0.15990887  1  0.09054  -1.1e-05  0.103379  0.106427  -3.9e-05  1.042616  0.0
H  H17  1  0.49311976  0.86635655  0.08424526  1  0.059102  2.8e-05  0.100784  0.101477  9e-06  1.004771  0.0
H  H18  1  0.36454083  0.89043776  0.98486397  1  0.056189  3.5e-05  0.102446  0.104481  1.7e-05  1.017811  0.0
H  H19  1  0.88598074  0.72163951  0.16429905  1  0.188564  0.000682  0.144743  0.120277  6.4e-05  0.992399  0.0
H  H20  1  0.66900517  0.55092376  0.10954448  1  0.093  0.000904  0.120546  0.119492  0.000382  1.012288  0.0
H  H21  1  0.85299562  0.50269477  0.10756660  1  0.154461  0.000711  0.119359  0.121676  0.000129  1.031807  0.001
H  H22  1  0.78681134  0.75653958  0.25606390  1  0.110622  0.000334  0.112905  0.119694  0.000122  1.009212  0.0
H  H23  1  0.66574705  0.83838322  0.28110274  1  0.112003  7.6e-05  0.113495  0.121598  1e-05  0.989263  0.0
H  H24  1  0.45163244  0.73415808  0.07358955  1  0.063685  1.9e-05  0.094816  0.093432  3e-06  1.057738  0.0
H  H25  1  0.57179632  0.65000217  0.04990224  1  0.064977  3.9e-05  0.102885  0.108669  1.8e-05  1.001925  0.0
H  H26  1  0.50351484  0.73702151  0.46239925  1  0.228829  0.000361  0.135519  0.113685  -3.5e-05  1.046814  0.001
H  H27  1  0.23118893  0.62210507  0.42451010  1  0.12356  0.000957  0.127126  0.125775  0.000305  0.992863  0.001
H  H28  1  0.20966537  0.66676563  0.31021389  1  0.17487  0.000763  0.126217  0.142304  0.000193  1.04975  0.0
H  H29  1  0.47954725  0.83170349  0.41561168  1  0.137058  5.3e-05  0.114348  0.124696  -6e-06  0.993979  0.0
H  H30  1  0.52517378  0.88636237  0.34155839  1  0.127789  3.9e-05  0.103411  0.10937  -1.3e-05  1.037045  0.0
H  H31  1  0.34820608  0.71841374  0.15646175  1  0.015627  9e-06  0.096534  0.095702  -2.7e-05  1.026059  0.0
H  H32  1  0.30363523  0.66225065  0.23162875  1  0.090483  0.000164  0.10431  0.1082  9.6e-05  1.033028  0.0
H  H33  1  0.46687724  0.17496302  0.35097185  1  0.15811  0.00063  0.144159  0.112984  1.2e-05  0.99782  0.001
H  H34  1  0.74687157  0.28317937  0.39721609  1  0.192385  0.001133  0.120887  0.125445  0.000508  1.04618  0.001
H  H35  1  0.75070135  0.14316236  0.32689234  1  0.113986  0.000853  0.126379  0.124674  0.000333  1.008215  0.0
H  H36  1  0.42562312  0.06666437  0.31200090  1  0.077598  -4.2e-05  0.114093  0.122165  -9e-05  0.994105  0.0
H  H37  1  0.37736036  0.94149987  0.25928019  1  0.100609  -7e-06  0.104434  0.106939  -1.7e-05  1.022762  0.0
H  H38  1  0.65098673  0.91541877  0.21363506  1  0.080534  1.7e-05  0.101515  0.103156  -2e-06  1.017403  0.0
H  H39  1  0.70020484  0.04081524  0.26597468  1  0.059332  4.8e-05  0.108399  0.114809  2e-05  1.001324  0.0
H  H40  1  0.39391645  0.45576940  0.49242663  1  0.126887  0.000339  0.111741  0.127325  -0.000134  0.996822  0.0
H  H41  1  0.20220044  0.28217039  0.47386114  1  0.09385  1e-05  0.098037  0.096497  -0.000229  1.058811  0.0
H  H42  1  0.09475383  0.36470505  0.52442604  1  0.047231  0.000152  0.095506  0.090306  -5.2e-05  1.017625  0.0
H  H43  1  0.13921952  0.49337742  0.55888106  1  0.061733  4.7e-05  0.099938  0.102482  -3.1e-05  1.007079  0.0
H  H44  1  0.06542251  0.86542434  0.14972484  1  0.121238  0.000276  0.102053  0.108148  0.000117  1.02133  0.0
H  H45  1  0.24845876  0.02503051  0.33883081  1  0.094828  0.000459  0.105135  0.108301  0.000171  0.998849  0.0
H  H46  1  0.28407664  0.93696821  0.40161329  1  0.095733  5.9e-05  0.096635  0.097778  2e-05  1.040163  0.0
H  H47  1  0.20611433  0.81409305  0.33815209  1  0.096797  0.000476  0.102059  0.105121  0.000201  1.022746  0.0
H  H48  1  0.09193862  0.67517323  0.05693993  1  0.229661  0.000536  0.144235  0.125702  7.1e-05  1.003888  0.001
H  H49  1  0.29983867  0.52577029  0.04244980  1  0.11582  0.000764  0.120539  0.115246  0.000302  1.022009  0.0
H  H50  1  0.20773708  0.51415128  0.13562909  1  0.119006  0.000933  0.12892  0.128085  0.000218  0.98728  0.001
H  H51  1  0.07154243  0.64897470  0.93605319  1  0.126432  0.000105  0.115522  0.126497  2.9e-05  1.005413  0.0
H  H52  1  0.10232453  0.67673600  0.83994443  1  0.107143  -1.1e-05  0.103574  0.1067  -3.8e-05  1.042022  0.0
H  H53  1  0.40876966  0.63356201  0.91565440  1  0.055111  2.8e-05  0.100725  0.101195  9e-06  1.005118  0.0
H  H54  1  0.37941845  0.60944096  0.01501100  1  0.071018  3.4e-05  0.102543  0.104815  1.7e-05  1.018583  0.0
H  H55  1  0.72212107  0.77843862  0.83594336  1  0.183332  0.000686  0.144743  0.120616  6.5e-05  0.993238  0.0
H  H56  1  0.55928595  0.94895163  0.88972253  1  0.119182  0.000892  0.120354  0.11978  0.000382  1.01201  0.0
H  H57  1  0.74547378  0.99733352  0.89202648  1  0.157314  0.000709  0.120108  0.122654  0.000128  1.030603  0.001
H  H58  1  0.53096611  0.74330835  0.74380029  1  0.090949  0.00034  0.113318  0.119708  0.000124  1.009584  0.0
H  H59  1  0.38474361  0.66154010  0.71885738  1  0.107431  7.4e-05  0.113622  0.122029  7e-06  0.989646  0.0
H  H60  1  0.37823057  0.76584335  0.92639550  1  0.065137  1.9e-05  0.094738  0.092721  3e-06  1.059322  0.0
H  H61  1  0.52213541  0.85001873  0.94996332  1  0.06534  3.9e-05  0.102812  0.108867  1.9e-05  1.000859  0.0
H  H62  1  0.04131857  0.76304583  0.53778404  1  0.216997  0.000358  0.135248  0.113093  -3.6e-05  1.047398  0.001
H  H63  1  0.80677545  0.87780617  0.57544763  1  0.124187  0.000959  0.127259  0.125625  0.000306  0.992912  0.001
H  H64  1  0.89939402  0.83325614  0.68982327  1  0.194236  0.000746  0.126546  0.142718  0.000191  1.049982  0.0
H  H65  1  0.06362212  0.66829242  0.58447589  1  0.138258  5.4e-05  0.114237  0.124545  -6e-06  0.994399  0.0
H  H66  1  0.18328332  0.61358175  0.65836001  1  0.119872  4e-05  0.103337  0.109093  -1.1e-05  1.037572  0.0
H  H67  1  0.19188557  0.78152369  0.84358764  1  0.102598  1e-05  0.096616  0.096238  -2.7e-05  1.025473  0.0
H  H68  1  0.07219002  0.83773695  0.76857224  1  0.086787  0.000162  0.10413  0.10788  9.7e-05  1.032931  0.0
H  H69  1  0.11592385  0.32511221  0.64906587  1  0.157897  0.000622  0.14414  0.112991  1.2e-05  0.998325  0.001
H  H70  1  0.34937188  0.21681373  0.60260947  1  0.168231  0.00115  0.120551  0.12463  0.000507  1.046998  0.001
H  H71  1  0.42365511  0.35685687  0.67273112  1  0.127361  0.000844  0.126205  0.124858  0.000333  1.007951  0.0
H  H72  1  0.11376393  0.43332177  0.68787941  1  0.071437  -4.4e-05  0.114122  0.123057  -9e-05  0.993919  0.0
H  H73  1  0.11827398  0.55846174  0.74071915  1  0.100148  -7e-06  0.104449  0.107209  -1.8e-05  1.022466  0.0
H  H74  1  0.43749343  0.58465814  0.78628627  1  0.081534  1.7e-05  0.101333  0.103077  -2e-06  1.018182  0.0
H  H75  1  0.43433472  0.45929233  0.73383786  1  0.06667  4.8e-05  0.108718  0.115178  2e-05  1.000604  0.0
H  H76  1  0.90149365  0.04443201  0.50777907  1  0.140704  0.000333  0.11147  0.127564  -0.000134  0.997185  0.0
H  H77  1  0.72794652  0.21771422  0.52615736  1  0.093709  1e-05  0.098155  0.096718  -0.000229  1.058841  0.0
H  H78  1  0.57007357  0.13495447  0.47528006  1  0.061041  0.000151  0.095499  0.090176  -5.2e-05  1.016877  0.0
H  H79  1  0.58034949  0.00632926  0.44082004  1  0.082271  4.3e-05  0.099963  0.102812  -3.1e-05  1.006664  0.0
H  H80  1  0.08381394  0.36540304  0.14978788  1  0.129107  0.000271  0.101954  0.108062  0.000114  1.022236  0.0
H  H81  1  0.08959181  0.52489740  0.33887361  1  0.07749  0.000461  0.105291  0.108833  0.000169  0.998292  0.0
H  H82  1  0.11747263  0.43690081  0.40173366  1  0.087822  5.9e-05  0.096541  0.097062  2e-05  1.041459  0.0
H  H83  1  0.13244050  0.31414323  0.33835247  1  0.093645  0.000476  0.102159  0.104868  0.0002  1.023393  0.0
H  H84  1  0.96497143  0.17527345  0.05707742  1  0.196092  0.000547  0.144298  0.125725  7.4e-05  1.003656  0.001
H  H85  1  0.74238020  0.02572399  0.04233310  1  0.117596  0.000759  0.120799  0.115544  0.000302  1.022037  0.0
H  H86  1  0.92755056  0.01393022  0.13537530  1  0.120216  0.000932  0.128456  0.127757  0.000218  0.986992  0.001
H  H87  1  0.86452074  0.14913862  0.93619161  1  0.095682  0.000107  0.1155  0.126543  2.9e-05  1.005312  0.0
H  H88  1  0.73776046  0.17689268  0.84008922  1  0.090689  -1.1e-05  0.103339  0.106385  -3.9e-05  1.042634  0.0
H  H89  1  0.50688005  0.13364253  0.91575352  1  0.059101  2.8e-05  0.100767  0.101464  9e-06  1.004796  0.0
H  H90  1  0.63545805  0.10956341  0.01513644  1  0.056181  3.5e-05  0.102453  0.104495  1.7e-05  1.017847  0.0
H  H91  1  0.11402270  0.27836015  0.83570493  1  0.188562  0.000681  0.144727  0.120247  6.4e-05  0.992482  0.0
H  H92  1  0.33099804  0.44907324  0.89045438  1  0.093063  0.000904  0.120543  0.119529  0.000381  1.01225  0.0
H  H93  1  0.14700820  0.49730381  0.89243386  1  0.154531  0.000711  0.119367  0.12172  0.000129  1.03176  0.001
H  H94  1  0.21319116  0.24346007  0.74393915  1  0.110577  0.000334  0.112925  0.119733  0.000122  1.0092  0.0
H  H95  1  0.33425632  0.16161693  0.71889902  1  0.112078  7.6e-05  0.113452  0.121482  1e-05  0.989392  0.0
H  H96  1  0.54837005  0.26583946  0.92641092  1  0.06363  1.9e-05  0.094833  0.093443  3e-06  1.057742  0.0
H  H97  1  0.42820908  0.34999592  0.95010122  1  0.064935  3.9e-05  0.102908  0.108701  1.8e-05  1.001964  0.0
H  H98  1  0.49648581  0.26298123  0.53760244  1  0.228918  0.000361  0.135506  0.113622  -3.5e-05  1.04675  0.001
H  H99  1  0.76881478  0.37789351  0.57549100  1  0.123767  0.000957  0.127093  0.125733  0.000305  0.992694  0.001
H  H100  1  0.79033583  0.33323245  0.68978835  1  0.174843  0.000763  0.12623  0.142325  0.000193  1.049694  0.0
H  H101  1  0.52044999  0.16829768  0.58438859  1  0.137059  5.3e-05  0.114342  0.124711  -6e-06  0.99401  0.0
H  H102  1  0.47482435  0.11363776  0.65844185  1  0.127777  3.9e-05  0.103419  0.109396  -1.3e-05  1.037056  0.0
H  H103  1  0.65179733  0.28158589  0.84353921  1  0.015547  9e-06  0.096539  0.095685  -2.7e-05  1.026089  0.0
H  H104  1  0.69636511  0.33774948  0.76837147  1  0.090473  0.000164  0.10432  0.10821  9.6e-05  1.032997  0.0
H  H105  1  0.53312730  0.82503559  0.64903083  1  0.158057  0.00063  0.144173  0.113002  1.2e-05  0.997742  0.001
H  H106  1  0.25313097  0.71681866  0.60278153  1  0.192396  0.001134  0.120881  0.125364  0.000508  1.046152  0.001
H  H107  1  0.24930156  0.85683567  0.67310638  1  0.113948  0.000853  0.126362  0.124627  0.000333  1.008171  0.0
H  H108  1  0.57437771  0.93333524  0.68799899  1  0.077565  -4.2e-05  0.114094  0.122167  -9e-05  0.994109  0.0
H  H109  1  0.62263873  0.05849919  0.74071638  1  0.100775  -7e-06  0.104427  0.106905  -1.7e-05  1.022727  0.0
H  H110  1  0.34901350  0.08458080  0.78636197  1  0.080641  1.7e-05  0.101492  0.103105  -2e-06  1.017342  0.0
H  H111  1  0.29979699  0.95918333  0.73402454  1  0.059349  4.8e-05  0.108425  0.114837  2e-05  1.00132  0.0
H  H112  1  0.60608066  0.54423020  0.50757251  1  0.12684  0.000339  0.111761  0.127365  -0.000134  0.996781  0.0
H  H113  1  0.79780128  0.71783029  0.52614129  1  0.093845  1e-05  0.098041  0.096478  -0.000229  1.058876  0.0
H  H114  1  0.90524678  0.63529457  0.47557512  1  0.046985  0.000152  0.095525  0.090338  -5.2e-05  1.017582  0.0
H  H115  1  0.86077883  0.50662270  0.44111791  1  0.060465  4.7e-05  0.099964  0.102537  -3.1e-05  1.007029  0.0
H  H116  1  0.93458120  0.13457424  0.85027626  1  0.121219  0.000276  0.102025  0.108136  0.000117  1.021329  0.0
H  H117  1  0.75153570  0.97497067  0.66116967  1  0.094707  0.000459  0.105103  0.108267  0.000171  0.998858  0.0
H  H118  1  0.71592412  0.06303453  0.59838776  1  0.095764  5.9e-05  0.096656  0.097828  2e-05  1.040191  0.0
H  H119  1  0.79389432  0.18590813  0.66184915  1  0.096803  0.000476  0.102047  0.105079  0.000201  1.022672  0.0
H  H120  1  0.90805625  0.32482634  0.94305622  1  0.229775  0.000536  0.144213  0.125671  7.2e-05  1.0039  0.001
H  H121  1  0.70015805  0.47422982  0.95754903  1  0.115785  0.000764  0.120528  0.115254  0.000302  1.02202  0.0
H  H122  1  0.79226100  0.48585145  0.86437152  1  0.118974  0.000933  0.128903  0.128039  0.000218  0.98732  0.001
H  H123  1  0.92845329  0.35102225  0.06394116  1  0.126455  0.000105  0.115514  0.126494  2.9e-05  1.005358  0.0
H  H124  1  0.89767309  0.32326044  0.16005100  1  0.107203  -1.1e-05  0.103611  0.106744  -3.8e-05  1.042018  0.0
H  H125  1  0.59122839  0.36643760  0.08434568  1  0.055072  2.8e-05  0.100721  0.101192  9e-06  1.00516  0.0
H  H126  1  0.62057725  0.39055862  0.98498673  1  0.071006  3.4e-05  0.102579  0.104881  1.7e-05  1.018485  0.0
H  H127  1  0.27787656  0.22155838  0.16405589  1  0.183467  0.000685  0.144757  0.1206  6.5e-05  0.993307  0.0
H  H128  1  0.44071547  0.05104643  0.11027844  1  0.119248  0.000892  0.120359  0.119784  0.000382  1.011998  0.0
H  H129  1  0.25452866  0.00266508  0.10797559  1  0.157223  0.000709  0.120085  0.122644  0.000128  1.030647  0.001
H  H130  1  0.46903472  0.25669125  0.25619959  1  0.090964  0.00034  0.113334  0.119731  0.000124  1.009541  0.0
H  H131  1  0.61525753  0.33845848  0.28114265  1  0.107435  7.4e-05  0.113634  0.122023  7e-06  0.989675  0.0
H  H132  1  0.62176692  0.23415728  0.07360270  1  0.065181  1.9e-05  0.094749  0.092755  3e-06  1.059316  0.0
H  H133  1  0.47786504  0.14998140  0.05003626  1  0.065327  3.9e-05  0.102836  0.108928  1.9e-05  1.000817  0.0
H  H134  1  0.95867453  0.23695062  0.46221208  1  0.216724  0.000358  0.135262  0.113064  -3.6e-05  1.04749  0.001
H  H135  1  0.19322205  0.12219656  0.42455314  1  0.124209  0.000959  0.127269  0.125632  0.000306  0.992947  0.001
H  H136  1  0.10060474  0.16674504  0.31017778  1  0.194144  0.000746  0.126537  0.142676  0.000191  1.050125  0.0
H  H137  1  0.93637844  0.33170769  0.41552305  1  0.137999  5.4e-05  0.114249  0.124513  -6e-06  0.994441  0.0
H  H138  1  0.81671892  0.38641886  0.34163622  1  0.119763  4e-05  0.103341  0.109143  -1.1e-05  1.037601  0.0
H  H139  1  0.80810988  0.21847433  0.15640959  1  0.102523  1e-05  0.096611  0.096245  -2.7e-05  1.025512  0.0
H  H140  1  0.92780484  0.16226108  0.23142516  1  0.08681  0.000162  0.104125  0.107863  9.7e-05  1.032933  0.0
H  H141  1  0.88407939  0.67489002  0.35093609  1  0.158018  0.000623  0.144154  0.113011  1.2e-05  0.99846  0.001
H  H142  1  0.65062962  0.78318948  0.39738792  1  0.168222  0.001149  0.120506  0.124585  0.000507  1.047081  0.001
H  H143  1  0.57634678  0.64314639  0.32727040  1  0.127263  0.000843  0.126223  0.124858  0.000332  1.008058  0.0
H  H144  1  0.88623940  0.56668098  0.31212271  1  0.071361  -4.4e-05  0.114148  0.123067  -9e-05  0.993918  0.0
H  H145  1  0.88172865  0.44154045  0.25927996  1  0.099947  -7e-06  0.104417  0.107199  -1.8e-05  1.022417  0.0
H  H146  1  0.56250984  0.41534356  0.21371488  1  0.081311  1.7e-05  0.101347  0.103078  -2e-06  1.018174  0.0
H  H147  1  0.56566880  0.54070939  0.26616504  1  0.06666  4.8e-05  0.10874  0.115226  2e-05  1.000627  0.0
H  H148  1  0.09850374  0.95556863  0.49221976  1  0.140629  0.000333  0.111452  0.12754  -0.000134  0.997308  0.0
H  H149  1  0.27204797  0.78228642  0.47384231  1  0.093686  1e-05  0.098201  0.096782  -0.000229  1.058768  0.0
H  H150  1  0.42992111  0.86504514  0.52472039  1  0.061128  0.000151  0.09549  0.090169  -5.2e-05  1.016925  0.0
H  H151  1  0.41964867  0.99367091  0.55918323  1  0.082316  4.3e-05  0.099968  0.102827  -3.1e-05  1.006696  0.0
C  C152  1  0.88473594  0.74163438  0.79975117  1  1.515698  -0.000136  0.19503  0.551255  -0.000487  4.226422  -0.002
C  C153  1  0.89125297  0.66790394  0.75990304  1  -0.073783  0.004369  -0.024123  -0.041481  0.002247  3.985031  0.003
C  C154  1  0.90881964  0.61865737  0.79499398  1  -0.075593  0.001593  -0.082704  -0.118024  0.000703  3.95674  0.001
C  C155  1  0.91618721  0.54945137  0.75974670  1  -0.019859  0.003712  -0.023477  -0.040362  0.001981  4.005922  0.003
C  C156  1  0.93626152  0.49828259  0.79883954  1  1.54573  -0.000521  0.192535  0.545712  -0.001141  4.22859  -0.002
C  C157  1  0.90570711  0.52939261  0.68837000  1  -0.044058  0.000495  -0.081048  -0.089274  0.00012  3.957935  0.0
C  C158  1  0.88974272  0.57853116  0.65343810  1  -0.019428  0.00017  -0.091226  -0.082297  -3e-06  4.000013  0.0
C  C159  1  0.88187553  0.64748442  0.68883783  1  -0.047001  0.00056  -0.07792  -0.071594  0.000211  3.931815  0.0
C  C160  1  0.06990978  0.86744068  0.93487256  1  0.965665  0.001642  0.158002  0.120071  0.000723  3.848119  0.002
C  C161  1  0.18502359  0.94437485  0.93910321  1  0.265152  0.002741  -0.002589  -0.112811  0.001367  3.936484  0.002
C  C162  1  0.09325747  0.94997944  0.89391732  1  0.434363  0.002768  0.006924  -0.016195  0.001464  3.990328  0.003
C  C163  1  0.24169460  0.87162893  0.01787436  1  0.271338  0.000342  0.092422  0.157723  0.000165  4.038213  0.0
C  C164  1  0.21307259  0.85103609  0.06615254  1  0.001289  0.000287  -0.0808  -0.143821  0.000112  3.958265  0.0
C  C165  1  0.28576524  0.83616809  0.12113965  1  0.009548  -6.3e-05  -0.085727  -0.112165  -9.8e-05  3.964444  0.0
C  C166  1  0.38730166  0.84221427  0.12922255  1  0.001346  0.000109  -0.00483  0.060688  4.4e-05  3.919227  0.0
C  C167  1  0.41420437  0.86129622  0.07887853  1  -0.07458  4e-05  -0.09221  -0.119271  -1.4e-05  4.002003  0.0
C  C168  1  0.34262325  0.87560378  0.02346347  1  -0.028713  0.000417  -0.098191  -0.174926  0.000232  4.020785  0.0
C  C169  1  0.47156883  0.84017640  0.19601976  1  0.032673  -6e-06  0.014404  0.004813  -3.2e-05  3.800065  0.0
C  C170  1  0.85343430  0.66852273  0.15017602  1  0.969792  0.006188  0.153252  0.113193  0.003744  3.875446  0.005
C  C171  1  0.74036881  0.57795755  0.11855028  1  0.241955  0.004246  -0.007783  -0.120894  0.002228  3.937893  0.003
C  C172  1  0.83108160  0.55495478  0.11846769  1  0.441762  0.002714  0.002908  -0.017489  0.001218  3.984127  0.002
C  C173  1  0.68609139  0.69823229  0.15166305  1  0.264664  0.000389  0.087692  0.159115  0.000154  4.042895  0.0
C  C174  1  0.71344381  0.75222152  0.21598348  1  -0.009129  0.00048  -0.085293  -0.156265  0.000208  3.977538  0.0
C  C175  1  0.64518756  0.79870404  0.22940860  1  -0.049717  -5.1e-05  -0.079185  -0.100651  -8e-05  3.95726  0.0
C  C176  1  0.55028212  0.79349509  0.17832834  1  -0.012007  0.000325  -0.002788  0.063155  0.000173  3.913589  0.0
C  C177  1  0.52489042  0.73932201  0.11398293  1  -0.011853  -8.9e-05  -0.096549  -0.129136  -0.00013  4.013096  0.0
C  C178  1  0.59172077  0.69150463  0.10045423  1  -0.054455  0.000438  -0.097142  -0.16791  0.000235  4.017165  0.0
C  C179  1  0.42673944  0.71183538  0.43688867  1  0.886947  -0.001482  0.137113  0.081882  -0.002188  3.891152  0.0
C  C180  1  0.28507342  0.65116787  0.41425547  1  0.407724  0.002226  0.009416  -0.013477  0.001255  3.968279  0.002
C  C181  1  0.27367807  0.67224198  0.35722014  1  0.296618  0.00487  0.008014  -0.088194  0.002402  3.870326  0.003
C  C182  1  0.38795374  0.74344071  0.32851667  1  0.267799  0.000541  0.095875  0.16441  0.000249  4.02388  0.0
C  C183  1  0.44996275  0.80654532  0.35877403  1  -0.072345  2.7e-05  -0.081665  -0.147363  -6.9e-05  3.961663  0.0
C  C184  1  0.47441066  0.83818838  0.31597277  1  -0.028259  4.9e-05  -0.084274  -0.109059  -2.7e-05  3.972909  0.0
C  C185  1  0.43671027  0.80841273  0.24268020  1  -0.067814  -3.8e-05  -0.007955  0.053317  -5.4e-05  3.914165  0.0
C  C186  1  0.37581791  0.74429141  0.21326052  1  0.057419  5.9e-05  -0.093009  -0.118514  -3.5e-05  3.997883  0.0
C  C187  1  0.35096721  0.71195165  0.25536422  1  -0.004568  0.000332  -0.091261  -0.158991  9e-05  3.991299  0.0
C  C188  1  0.54280790  0.18503479  0.35284522  1  0.943755  -0.002457  0.145572  0.088049  -0.003392  3.905984  0.0
C  C189  1  0.68994717  0.23874634  0.37587161  1  0.36934  0.00249  0.008512  -0.013062  0.001502  3.970094  0.002
C  C190  1  0.69136042  0.17013948  0.34086214  1  0.308871  0.005025  0.005242  -0.092059  0.002446  3.896381  0.004
C  C191  1  0.56744416  0.06331097  0.29359102  1  0.339923  0.000381  0.095006  0.164771  6.9e-05  4.033755  0.0
C  C192  1  0.47609762  0.03423082  0.29084842  1  0.055548  -0.000753  -0.087484  -0.161793  -0.000893  3.983633  0.0
C  C193  1  0.44898352  0.96279093  0.26107379  1  -0.060598  0.00022  -0.082982  -0.103612  7.3e-05  3.971276  0.0
C  C194  1  0.51132115  0.91798390  0.23362668  1  -0.079504  -0.000867  -0.005855  0.057673  -0.000968  3.920663  -0.001
C  C195  1  0.60094812  0.94792423  0.23529567  1  0.010148  8.7e-05  -0.093232  -0.12404  -4.3e-05  4.012462  0.0
C  C196  1  0.62916136  0.01971153  0.26497057  1  -0.087769  -3e-05  -0.09338  -0.165775  -0.000154  3.99619  0.0
C  C197  1  0.29736684  0.55961813  0.54906354  1  1.552517  0.002461  0.198823  0.559485  0.002565  4.239155  0.002
C  C198  1  0.27092341  0.48252442  0.52965125  1  -0.043828  0.004424  -0.023191  -0.042  0.002182  3.989677  0.003
C  C199  1  0.32879511  0.43581554  0.49986061  1  0.015235  0.00242  -0.075075  -0.09913  0.001165  3.908315  0.001
C  C200  1  0.30308192  0.36377450  0.47867246  1  -0.056426  0.004518  -0.020447  -0.038571  0.002174  3.969985  0.003
C  C201  1  0.36734504  0.31472529  0.44746829  1  1.567384  0.003533  0.202259  0.571023  0.003106  4.213022  0.002
C  C202  1  0.21962329  0.33833583  0.48892160  1  -0.026763  0.002918  -0.086062  -0.090732  0.00138  3.963333  0.002
C  C203  1  0.16059228  0.38474284  0.51754826  1  -0.082965  0.000809  -0.102073  -0.105389  0.000307  4.041415  0.001
C  C204  1  0.18550304  0.45663043  0.53747174  1  -0.057652  0.003217  -0.087611  -0.098918  0.001679  3.988475  0.002
C  C205  1  0.08507024  0.75829637  0.20020221  1  1.549266  -0.00019  0.193476  0.550082  -0.00051  4.229619  -0.002
C  C206  1  0.13121988  0.83208704  0.23998716  1  -0.025077  0.004334  -0.024542  -0.041768  0.002245  3.985498  0.003
C  C207  1  0.11335080  0.88135584  0.20493607  1  -0.130639  0.00162  -0.082112  -0.117623  0.000698  3.955116  0.001
C  C208  1  0.15575189  0.95061506  0.24022056  1  -0.01178  0.003713  -0.024518  -0.040653  0.001982  4.003686  0.003
C  C209  1  0.13672402  0.00179446  0.20114697  1  1.53814  -0.000543  0.192363  0.545134  -0.001142  4.229898  -0.002
C  C210  1  0.21668953  0.97070051  0.31157820  1  -0.064426  0.00051  -0.080355  -0.088508  0.000122  3.955663  0.0
C  C211  1  0.23604214  0.92152594  0.34645506  1  -0.009407  0.000172  -0.091986  -0.083519  -2e-06  4.000026  0.0
C  C212  1  0.19302318  0.85251884  0.31102202  1  -0.057353  0.000559  -0.076883  -0.070987  0.000211  3.931576  0.0
C  C213  1  0.13483534  0.63249293  0.06504016  1  0.927307  0.001602  0.157591  0.120033  0.000697  3.844914  0.002
C  C214  1  0.24576794  0.55565675  0.06095366  1  0.244706  0.002757  -0.00275  -0.112839  0.001366  3.936986  0.002
C  C215  1  0.19920781  0.55012343  0.10620336  1  0.450384  0.002748  0.00771  -0.015275  0.001457  3.992165  0.003
C  C216  1  0.22362668  0.62822536  0.98199210  1  0.282923  0.00034  0.09286  0.159562  0.000168  4.036339  0.0
C  C217  1  0.14679088  0.64881400  0.93370234  1  0.03416  0.000293  -0.081089  -0.143684  0.000113  3.958828  0.0
C  C218  1  0.16457547  0.66370311  0.87874454  1  -0.066903  -6.2e-05  -0.086137  -0.113013  -9.6e-05  3.96608  0.0
C  C219  1  0.25805866  0.65770956  0.87069431  1  -0.000575  0.000111  -0.004391  0.059754  4.6e-05  3.919278  0.0
C  C220  1  0.33523482  0.63861367  0.92102462  1  -0.066709  4.3e-05  -0.092068  -0.117573  -1.2e-05  4.001327  0.0
C  C221  1  0.31896176  0.62426663  0.97640848  1  -0.054336  0.000417  -0.098792  -0.177264  0.000232  4.023089  0.0
C  C222  1  0.27563063  0.65981066  0.80393619  1  0.044137  -5e-06  0.014882  0.006245  -3.2e-05  3.799182  0.0
C  C223  1  0.70358242  0.83152402  0.84986846  1  0.9682  0.00629  0.15272  0.111747  0.003797  3.876705  0.005
C  C224  1  0.62181539  0.92200782  0.88099449  1  0.244528  0.004248  -0.008323  -0.122213  0.002233  3.937194  0.003
C  C225  1  0.71271018  0.94507208  0.88122100  1  0.420005  0.002729  0.002455  -0.018031  0.001231  3.983472  0.002
C  C226  1  0.53464007  0.80170097  0.84820115  1  0.274094  0.000387  0.088908  0.159424  0.000155  4.041843  0.0
C  C227  1  0.49767150  0.74768231  0.78391520  1  -0.017361  0.000484  -0.086111  -0.156052  0.000211  3.977408  0.0
C  C228  1  0.41591524  0.70124018  0.77053196  1  -0.011681  -5.4e-05  -0.079381  -0.101256  -8.3e-05  3.958165  0.0
C  C229  1  0.37205939  0.70650836  0.82162860  1  -0.023599  0.000333  -0.003094  0.062935  0.000177  3.914901  0.0
C  C230  1  0.41108984  0.76066350  0.88597305  1  0.015053  -9.3e-05  -0.096691  -0.128404  -0.000132  4.013246  0.0
C  C231  1  0.49149998  0.80845969  0.89944500  1  -0.069646  0.000445  -0.097344  -0.168592  0.000238  4.01467  0.0
C  C232  1  0.98998237  0.78818480  0.56322389  1  0.902667  -0.001512  0.137048  0.081821  -0.002219  3.892405  0.0
C  C233  1  0.87090959  0.84877617  0.58575337  1  0.415569  0.002144  0.008064  -0.013992  0.001245  3.968862  0.002
C  C234  1  0.91643843  0.82775094  0.64280872  1  0.279779  0.004878  0.008179  -0.089319  0.0024  3.870641  0.003
C  C235  1  0.05941150  0.75658540  0.67159372  1  0.280912  0.000543  0.096038  0.164117  0.000252  4.021847  0.0
C  C236  1  0.09100926  0.69345379  0.64130072  1  -0.086839  2.7e-05  -0.081955  -0.148163  -6.9e-05  3.961802  0.0
C  C237  1  0.15829173  0.66178567  0.68403106  1  -0.008385  5.1e-05  -0.084888  -0.10882  -2.6e-05  3.972938  0.0
C  C238  1  0.19408345  0.69156105  0.75732212  1  -0.044673  -3.9e-05  -0.007483  0.053823  -5.4e-05  3.911674  0.0
C  C239  1  0.16264512  0.75567787  0.78677854  1  -0.102562  6.2e-05  -0.09275  -0.119448  -3.5e-05  3.998909  0.0
C  C240  1  0.09569007  0.78804177  0.74475676  1  0.02107  0.000332  -0.091308  -0.158371  9e-05  3.989892  0.0
C  C241  1  0.18991370  0.31501366  0.64711680  1  0.938996  -0.002472  0.145598  0.08873  -0.003394  3.906395  0.0
C  C242  1  0.31387253  0.26126062  0.62396249  1  0.445684  0.002442  0.008755  -0.011373  0.00149  3.971336  0.002
C  C243  1  0.35035654  0.32988356  0.65885342  1  0.232412  0.005086  0.005233  -0.092757  0.002448  3.897428  0.004
C  C244  1  0.27395018  0.43672835  0.70627205  1  0.331674  0.000382  0.095749  0.165774  6.9e-05  4.033426  0.0
C  C245  1  0.18538637  0.46578629  0.70905863  1  0.040359  -0.000749  -0.088088  -0.163726  -0.000887  3.986671  0.0
C  C246  1  0.18807098  0.53719964  0.73887129  1  -0.077563  0.00022  -0.08292  -0.103432  7.2e-05  3.973228  0.0
C  C247  1  0.27785401  0.58202938  0.76632035  1  -0.019071  -0.00086  -0.00566  0.057156  -0.000961  3.922267  -0.001
C  C248  1  0.36580831  0.55213140  0.76462520  1  -0.043059  8.5e-05  -0.093191  -0.124482  -4.3e-05  4.014471  0.0
C  C249  1  0.36430232  0.48033951  0.73488767  1  -0.066782  -2.5e-05  -0.09429  -0.165936  -0.000153  3.994739  0.0
C  C250  1  0.74860423  0.94036307  0.45110402  1  1.546895  0.002437  0.199151  0.559003  0.002531  4.239912  0.001
C  C251  1  0.74133343  0.01743229  0.47041075  1  -0.046756  0.004436  -0.023325  -0.040661  0.002188  3.98859  0.003
C  C252  1  0.82890989  0.06428593  0.50028135  1  -0.009712  0.002404  -0.075127  -0.100697  0.001154  3.910123  0.001
C  C253  1  0.82422093  0.13629500  0.52143183  1  -0.003125  0.004471  -0.019974  -0.037754  0.002176  3.970136  0.003
C  C254  1  0.91962847  0.18547911  0.55268820  1  1.553268  0.00358  0.202776  0.572942  0.003113  4.212515  0.002
C  C255  1  0.73041670  0.16156935  0.51107741  1  -0.069272  0.002897  -0.086259  -0.091804  0.001357  3.964038  0.002
C  C256  1  0.64284858  0.11503009  0.48229857  1  -0.068261  0.000804  -0.101683  -0.103645  0.00031  4.039342  0.001
C  C257  1  0.64801251  0.04315179  0.46238613  1  -0.092688  0.003199  -0.088309  -0.101121  0.001664  3.987387  0.002
C  C258  1  0.11526166  0.25836470  0.20024764  1  1.515729  -0.000136  0.19498  0.551143  -0.000486  4.226534  -0.002
C  C259  1  0.10874886  0.33209673  0.24009876  1  -0.073867  0.004369  -0.024102  -0.041399  0.002247  3.984834  0.003
C  C260  1  0.09118459  0.38134171  0.20500474  1  -0.075619  0.001593  -0.082752  -0.11804  0.000704  3.956474  0.001
C  C261  1  0.08381735  0.45054979  0.24025269  1  -0.019992  0.003712  -0.023467  -0.040351  0.001981  4.005889  0.003
C  C262  1  0.06374240  0.50171752  0.20115904  1  1.54625  -0.00052  0.192465  0.545579  -0.001139  4.229023  -0.002
C  C263  1  0.09429773  0.47060958  0.31162908  1  -0.044017  0.000495  -0.081066  -0.089283  0.000121  3.957982  0.0
C  C264  1  0.11025845  0.42147053  0.34656245  1  -0.019199  0.00017  -0.09121  -0.08225  -3e-06  3.999822  0.0
C  C265  1  0.11812193  0.35251673  0.31116117  1  -0.046861  0.000561  -0.077911  -0.071615  0.000212  3.931687  0.0
C  C266  1  0.93008730  0.13255734  0.06512481  1  0.965628  0.001642  0.157947  0.120006  0.000723  3.847954  0.002
C  C267  1  0.81497482  0.05562688  0.06090056  1  0.26425  0.002741  -0.002525  -0.112794  0.001367  3.93656  0.002
C  C268  1  0.90673672  0.05002281  0.10608603  1  0.434404  0.002769  0.006944  -0.016147  0.001464  3.990383  0.003
C  C269  1  0.75830383  0.12837017  0.98212603  1  0.271544  0.000342  0.092379  0.15768  0.000165  4.038344  0.0
C  C270  1  0.78692686  0.14896143  0.93384637  1  0.001328  0.000287  -0.080759  -0.143803  0.000112  3.958209  0.0
C  C271  1  0.71423526  0.16382943  0.87885957  1  0.009393  -6.2e-05  -0.085683  -0.112127  -9.8e-05  3.964326  0.0
C  C272  1  0.61269909  0.15778482  0.87077717  1  0.001425  0.000109  -0.004806  0.060713  4.4e-05  3.919212  0.0
C  C273  1  0.58579486  0.13870286  0.92112042  1  -0.074531  4e-05  -0.092198  -0.119238  -1.4e-05  4.00194  0.0
C  C274  1  0.65737772  0.12439740  0.97653755  1  -0.028821  0.000417  -0.098205  -0.175015  0.000232  4.020905  0.0
C  C275  1  0.52843192  0.15982269  0.80397996  1  0.032259  -6e-06  0.014356  0.004756  -3.2e-05  3.800166  0.0
C  C276  1  0.14656676  0.33147434  0.84982891  1  0.970071  0.006187  0.153272  0.113229  0.003745  3.875313  0.005
C  C277  1  0.25963479  0.42204105  0.88145146  1  0.241835  0.004246  -0.007652  -0.120796  0.002228  3.938003  0.003
C  C278  1  0.16892313  0.44504434  0.88153452  1  0.441784  0.002715  0.002806  -0.017667  0.001219  3.98434  0.002
C  C279  1  0.31390865  0.30176579  0.84833953  1  0.264824  0.000389  0.087816  0.159249  0.000154  4.04281  0.0
C  C280  1  0.28656067  0.24777814  0.78402081  1  -0.009053  0.00048  -0.085399  -0.156476  0.000208  3.977909  0.0
C  C281  1  0.35481247  0.20129559  0.77059273  1  -0.049888  -5.1e-05  -0.079099  -0.100376  -8e-05  3.957301  0.0
C  C282  1  0.44972029  0.20650558  0.82167329  1  -0.011653  0.000325  -0.002773  0.063154  0.000173  3.913547  0.0
C  C283  1  0.47511224  0.26067811  0.88601662  1  -0.011932  -8.9e-05  -0.09663  -0.129246  -0.00013  4.013304  0.0
C  C284  1  0.40828385  0.30849450  0.89954861  1  -0.05446  0.000438  -0.097158  -0.16794  0.000235  4.017168  0.0
C  C285  1  0.57326739  0.28816528  0.56311290  1  0.887108  -0.001482  0.137153  0.081992  -0.002188  3.89123  0.0
C  C286  1  0.71492911  0.34882970  0.58574801  1  0.407523  0.002228  0.009415  -0.013443  0.001256  3.968293  0.002
C  C287  1  0.72632221  0.32775710  0.64277911  1  0.296446  0.004869  0.007977  -0.088244  0.002401  3.870496  0.003
C  C288  1  0.61204541  0.25655996  0.67148469  1  0.267668  0.000541  0.095887  0.164471  0.000249  4.023779  0.0
C  C289  1  0.55003538  0.19345481  0.64122622  1  -0.072335  2.7e-05  -0.081651  -0.147379  -6.9e-05  3.961667  0.0
C  C290  1  0.52558960  0.16181123  0.68402728  1  -0.028244  4.9e-05  -0.084256  -0.109127  -2.7e-05  3.972938  0.0
C  C291  1  0.56328946  0.19158793  0.75732098  1  -0.067926  -3.9e-05  -0.007971  0.053379  -5.5e-05  3.914161  0.0
C  C292  1  0.62418281  0.25570820  0.78674001  1  0.057613  6e-05  -0.093002  -0.1185  -3.5e-05  3.99798  0.0
C  C293  1  0.64903457  0.28804797  0.74463660  1  -0.004457  0.000332  -0.091271  -0.159017  9e-05  3.991306  0.0
C  C294  1  0.45719644  0.81496484  0.64715669  1  0.944057  -0.002458  0.145557  0.088084  -0.003391  3.90584  0.0
C  C295  1  0.31005643  0.76125169  0.62412631  1  0.369611  0.002489  0.008565  -0.012857  0.001501  3.969935  0.002
C  C296  1  0.30864368  0.82986013  0.65913802  1  0.308858  0.005026  0.005319  -0.091977  0.002447  3.896168  0.004
C  C297  1  0.43255861  0.93668760  0.70640914  1  0.339916  0.000381  0.095017  0.164735  6.9e-05  4.033754  0.0
C  C298  1  0.52390410  0.96576775  0.70915143  1  0.055535  -0.000753  -0.087478  -0.161818  -0.000893  3.98365  0.0
C  C299  1  0.55101811  0.03720867  0.73892466  1  -0.060802  0.00022  -0.082959  -0.103465  7.3e-05  3.97115  0.0
C  C300  1  0.48868132  0.08201571  0.76637334  1  -0.079495  -0.000867  -0.005833  0.057604  -0.000968  3.920971  -0.001
C  C301  1  0.39905401  0.05207484  0.76470244  1  0.010034  8.7e-05  -0.093173  -0.12391  -4.3e-05  4.012571  0.0
C  C302  1  0.37083801  0.98028911  0.73502951  1  -0.087676  -3e-05  -0.093444  -0.16585  -0.000154  3.99625  0.0
C  C303  1  0.70263093  0.44038142  0.45093177  1  1.55254  0.002464  0.198808  0.559431  0.002567  4.239026  0.002
C  C304  1  0.72907239  0.51747515  0.47034584  1  -0.043598  0.004423  -0.023193  -0.042042  0.002181  3.989588  0.003
C  C305  1  0.67120199  0.56418406  0.50013853  1  0.01517  0.002421  -0.075036  -0.099139  0.001166  3.908057  0.001
C  C306  1  0.69691923  0.63622618  0.52133013  1  -0.056787  0.004516  -0.020355  -0.038364  0.002173  3.969795  0.003
C  C307  1  0.63265685  0.68527489  0.55253572  1  1.567456  0.003536  0.202167  0.570992  0.003107  4.213444  0.002
C  C308  1  0.78037719  0.66166433  0.51108100  1  -0.026583  0.002918  -0.086082  -0.090773  0.001381  3.963439  0.002
C  C309  1  0.83940682  0.61525678  0.48245213  1  -0.082659  0.000809  -0.102078  -0.105403  0.000307  4.0414  0.001
C  C310  1  0.81449407  0.54336917  0.46252739  1  -0.056327  0.003218  -0.08771  -0.099039  0.00168  3.988495  0.002
C  C311  1  0.91493363  0.24170325  0.79979922  1  1.549181  -0.00019  0.193364  0.550033  -0.00051  4.229793  -0.002
C  C312  1  0.86878320  0.16791415  0.76001447  1  -0.024958  0.004334  -0.02457  -0.041782  0.002245  3.985473  0.003
C  C313  1  0.88665236  0.11864221  0.79506439  1  -0.130672  0.00162  -0.082114  -0.117657  0.000698  3.95527  0.001
C  C314  1  0.84424994  0.04938561  0.75978124  1  -0.01207  0.003714  -0.02454  -0.040735  0.001983  4.003814  0.003
C  C315  1  0.86327725  0.99820568  0.79885418  1  1.538454  -0.000543  0.192393  0.54521  -0.001142  4.229953  -0.002
C  C316  1  0.78330744  0.02930117  0.68842114  1  -0.064277  0.00051  -0.080288  -0.088383  0.000122  3.955618  0.0
C  C317  1  0.76395826  0.07847524  0.65354613  1  -0.009372  0.000172  -0.091962  -0.083575  -2e-06  4.000085  0.0
C  C318  1  0.80698147  0.14748130  0.68897877  1  -0.05741  0.000559  -0.076852  -0.070878  0.00021  3.931435  0.0
C  C319  1  0.86515980  0.36750767  0.93495569  1  0.927272  0.001604  0.157587  0.119916  0.000698  3.845041  0.002
C  C320  1  0.75422850  0.44434387  0.93904423  1  0.244832  0.002757  -0.00285  -0.113062  0.001366  3.937198  0.002
C  C321  1  0.80078974  0.44987825  0.89379581  1  0.45076  0.002748  0.007752  -0.015175  0.001457  3.992365  0.003
C  C322  1  0.77636932  0.37177473  0.01800452  1  0.282807  0.00034  0.092851  0.159515  0.000168  4.03636  0.0
C  C323  1  0.85320454  0.35118398  0.06629187  1  0.034324  0.000292  -0.081105  -0.143658  0.000113  3.95874  0.0
C  C324  1  0.83542221  0.33629592  0.12125061  1  -0.067089  -6.2e-05  -0.086155  -0.113101  -9.6e-05  3.965962  0.0
C  C325  1  0.74194094  0.34229108  0.12930450  1  -0.000405  0.000111  -0.004296  0.059966  4.6e-05  3.919205  0.0
C  C326  1  0.66476361  0.36138697  0.07897452  1  -0.066632  4.3e-05  -0.092131  -0.117671  -1.2e-05  4.001422  0.0
C  C327  1  0.68103306  0.37573399  0.02358927  1  -0.054462  0.000417  -0.098823  -0.17734  0.000232  4.023027  0.0
C  C328  1  0.72437059  0.34018997  0.19606276  1  0.044078  -5e-06  0.014888  0.006137  -3.2e-05  3.799322  0.0
C  C329  1  0.29641781  0.16847612  0.15013240  1  0.967656  0.006293  0.152771  0.111837  0.003798  3.876696  0.005
C  C330  1  0.37818562  0.07799129  0.11900697  1  0.244402  0.004248  -0.008389  -0.122338  0.002233  3.937306  0.003
C  C331  1  0.28729265  0.05492601  0.11878138  1  0.420053  0.00273  0.002513  -0.017966  0.001231  3.98355  0.002
C  C332  1  0.46535828  0.19829915  0.15179782  1  0.274056  0.000387  0.088904  0.15945  0.000155  4.04181  0.0
C  C333  1  0.50232867  0.25231678  0.21608469  1  -0.017405  0.000484  -0.086061  -0.155972  0.000211  3.977421  0.0
C  C334  1  0.58408397  0.29875943  0.22946779  1  -0.011596  -5.4e-05  -0.07943  -0.101286  -8.4e-05  3.958229  0.0
C  C335  1  0.62794136  0.29349227  0.17836987  1  -0.02374  0.000333  -0.003083  0.062962  0.000177  3.91483  0.0
C  C336  1  0.58890820  0.23933765  0.11402579  1  0.01517  -9.3e-05  -0.096733  -0.128464  -0.000132  4.013239  0.0
C  C337  1  0.50849817  0.19153992  0.10055444  1  -0.069682  0.000445  -0.097359  -0.168712  0.000238  4.014611  0.0
C  C338  1  0.01001092  0.21181426  0.43677434  1  0.902867  -0.001512  0.13698  0.081815  -0.002219  3.892561  0.0
C  C339  1  0.12909138  0.15122346  0.41424890  1  0.415439  0.002143  0.007988  -0.014042  0.001244  3.96858  0.002
C  C340  1  0.08356063  0.17225018  0.35718740  1  0.279718  0.00488  0.008241  -0.08921  0.002401  3.870317  0.003
C  C341  1  0.94058746  0.24341419  0.32840429  1  0.281  0.000543  0.096034  0.164099  0.000252  4.021936  0.0
C  C342  1  0.90899135  0.30654527  0.35869661  1  -0.087008  2.7e-05  -0.081927  -0.148071  -6.9e-05  3.961852  0.0
C  C343  1  0.84170969  0.33821548  0.31596741  1  -0.007893  5.1e-05  -0.084949  -0.108973  -2.6e-05  3.973029  0.0
C  C344  1  0.80591849  0.30843750  0.24267646  1  -0.044817  -3.8e-05  -0.007399  0.053915  -5.4e-05  3.911694  0.0
C  C345  1  0.83735337  0.24432171  0.21321899  1  -0.101815  6.2e-05  -0.092799  -0.11948  -3.5e-05  3.998933  0.0
C  C346  1  0.90430659  0.21195729  0.25524111  1  0.020551  0.000332  -0.091311  -0.158385  9e-05  3.989781  0.0
C  C347  1  0.81008934  0.68498960  0.35288439  1  0.939232  -0.002472  0.145497  0.08852  -0.003393  3.906622  0.0
C  C348  1  0.68612783  0.73874418  0.37603700  1  0.445665  0.002442  0.00878  -0.011395  0.00149  3.971198  0.002
C  C349  1  0.64964065  0.67011656  0.34114589  1  0.232539  0.005087  0.005145  -0.092825  0.002449  3.897301  0.004
C  C350  1  0.72605135  0.56327336  0.29372960  1  0.331401  0.000382  0.095735  0.165744  7e-05  4.033443  0.0
C  C351  1  0.81461499  0.53421591  0.29094145  1  0.040416  -0.000749  -0.08813  -0.16381  -0.000887  3.986751  0.0
C  C352  1  0.81193223  0.46280256  0.26112765  1  -0.077341  0.00022  -0.08288  -0.103285  7.2e-05  3.973127  0.0
C  C353  1  0.72214909  0.41797283  0.23367922  1  -0.019034  -0.000859  -0.005683  0.057046  -0.000961  3.922383  -0.001
C  C354  1  0.63419479  0.44786926  0.23537562  1  -0.043024  8.5e-05  -0.093149  -0.12439  -4.3e-05  4.014277  0.0
C  C355  1  0.63570147  0.51966325  0.26511493  1  -0.066299  -2.5e-05  -0.094344  -0.165991  -0.000153  3.994722  0.0
C  C356  1  0.25139656  0.05963914  0.54889622  1  1.547026  0.002438  0.199076  0.558842  0.002533  4.240167  0.001
C  C357  1  0.25866437  0.98256941  0.52959017  1  -0.046725  0.004437  -0.023299  -0.040598  0.002188  3.988567  0.003
C  C358  1  0.17108697  0.93571575  0.49971862  1  -0.009845  0.002404  -0.07512  -0.100755  0.001154  3.910182  0.001
C  C359  1  0.17577632  0.86370617  0.47856845  1  -0.003065  0.004471  -0.02  -0.037689  0.002176  3.970011  0.003
C  C360  1  0.08036895  0.81452311  0.44731240  1  1.553567  0.003581  0.202833  0.572879  0.003114  4.212566  0.002
C  C361  1  0.26957696  0.83843127  0.48892068  1  -0.069383  0.002897  -0.086253  -0.091833  0.001357  3.96393  0.002
C  C362  1  0.35714739  0.88497109  0.51770267  1  -0.068121  0.000804  -0.101687  -0.103605  0.00031  4.039436  0.001
C  C363  1  0.35198540  0.95684836  0.53761539  1  -0.09265  0.003198  -0.088337  -0.101211  0.001664  3.987465  0.002
N  N364  1  0.02239012  0.90153230  0.89147959  1  -1.213109  0.059992  -0.358426  -0.292245  0.031768  3.662243  0.037
N  N365  1  0.16929082  0.89200760  0.96515398  1  -1.263704  0.004491  -0.224198  0.012227  0.002041  3.801779  0.004
N  N366  1  0.90059340  0.61190955  0.13803426  1  -1.223741  0.059525  -0.360943  -0.293183  0.031502  3.659907  0.037
N  N367  1  0.75585200  0.65024431  0.13914962  1  -1.260673  0.004161  -0.227816  0.005814  0.001727  3.821674  0.002
N  N368  1  0.38062344  0.67588958  0.46330482  1  -1.210596  0.072033  -0.364076  -0.309011  0.037296  3.672238  0.049
N  N369  1  0.36384038  0.71068727  0.37214652  1  -1.273678  0.003499  -0.225799  0.004527  0.001448  3.80759  0.003
N  N370  1  0.59684186  0.24730567  0.38280876  1  -1.214731  0.065663  -0.365421  -0.316743  0.034326  3.710557  0.038
N  N371  1  0.59780814  0.13600669  0.32615374  1  -1.261797  0.002698  -0.220705  0.01165  0.000874  3.791457  0.002
N  N372  1  0.13075742  0.59851014  0.10855437  1  -1.191615  0.059093  -0.359012  -0.293345  0.031731  3.660786  0.037
N  N373  1  0.20393877  0.60790628  0.03476560  1  -1.267406  0.004478  -0.22396  0.011996  0.002035  3.801223  0.004
N  N374  1  0.76284433  0.88817140  0.86195639  1  -1.230453  0.059754  -0.360553  -0.292243  0.031557  3.660362  0.037
N  N375  1  0.61689150  0.84973792  0.86065468  1  -1.26098  0.004177  -0.227797  0.00666  0.001736  3.819824  0.002
N  N376  1  0.91750025  0.82408302  0.53674115  1  -1.231843  0.072102  -0.362985  -0.308927  0.037295  3.674062  0.049
N  N377  1  0.99172710  0.78934920  0.62796230  1  -1.260195  0.003483  -0.225802  0.006678  0.001439  3.805095  0.003
N  N378  1  0.21387735  0.25271414  0.61715369  1  -1.208428  0.065612  -0.365426  -0.317892  0.034306  3.710579  0.038
N  N379  1  0.27163562  0.36403441  0.67367726  1  -1.254684  0.002696  -0.22025  0.0114  0.000868  3.792484  0.002
N  N380  1  0.97760840  0.09846732  0.10852097  1  -1.212968  0.059992  -0.358342  -0.29223  0.031767  3.662034  0.037
N  N381  1  0.83070723  0.10799201  0.03484610  1  -1.263588  0.004491  -0.224189  0.012394  0.002041  3.801782  0.004
N  N382  1  0.09940987  0.38809060  0.86196814  1  -1.223812  0.059529  -0.360944  -0.293202  0.031503  3.659787  0.037
N  N383  1  0.24415097  0.34975534  0.86085390  1  -1.260875  0.004161  -0.227868  0.005812  0.001727  3.821671  0.002
N  N384  1  0.61937939  0.32411004  0.53669631  1  -1.210733  0.072032  -0.364153  -0.309132  0.037296  3.672241  0.049
N  N385  1  0.63615860  0.28931235  0.62785450  1  -1.273529  0.003498  -0.225772  0.004526  0.001448  3.807703  0.003
N  N386  1  0.40316144  0.75269396  0.61719284  1  -1.214821  0.065664  -0.36549  -0.316926  0.034328  3.710802  0.038
N  N387  1  0.40219355  0.86399241  0.67384692  1  -1.262205  0.002699  -0.220799  0.011573  0.000874  3.791502  0.002
N  N388  1  0.86923938  0.40149204  0.89144339  1  -1.191554  0.059088  -0.35892  -0.293179  0.031729  3.660823  0.037
N  N389  1  0.79605753  0.39209277  0.96523116  1  -1.268057  0.004477  -0.22395  0.012157  0.002035  3.801118  0.004
N  N390  1  0.23715519  0.11182563  0.13804475  1  -1.230484  0.059755  -0.360584  -0.292269  0.031555  3.660226  0.037
N  N391  1  0.38310848  0.15026065  0.13934567  1  -1.260468  0.004177  -0.227807  0.006695  0.001736  3.81986  0.002
N  N392  1  0.08249492  0.17591762  0.46325772  1  -1.231716  0.072103  -0.362905  -0.308961  0.037295  3.674155  0.049
N  N393  1  0.00826967  0.21064986  0.37203492  1  -1.259927  0.003483  -0.225781  0.006789  0.001439  3.804946  0.003
N  N394  1  0.78612462  0.74728754  0.38284542  1  -1.208661  0.065618  -0.365305  -0.317596  0.034306  3.710367  0.038
N  N395  1  0.72836864  0.63596835  0.32632581  1  -1.254974  0.002696  -0.220209  0.011432  0.000868  3.792462  0.002
O  O396  1  0.86727114  0.78551938  0.76500172  1  -1.141667  0.100766  -0.328492  -0.549472  0.051874  2.333034  0.08
O  O397  1  0.89613436  0.75910695  0.86408099  1  -1.162335  0.029968  -0.332348  -0.572761  0.014869  2.114024  0.024
O  O398  1  0.91402955  0.43262813  0.76140622  1  -1.14016  0.105932  -0.330918  -0.544457  0.054383  2.298339  0.084
O  O399  1  0.97292642  0.51827739  0.86504104  1  -1.176087  0.041975  -0.320755  -0.553778  0.020733  2.122528  0.035
O  O400  1  0.38944334  0.57754647  0.55652485  1  -1.137664  0.113497  -0.335482  -0.550707  0.057069  2.364416  0.086
O  O401  1  0.23324700  0.60092610  0.55577681  1  -1.185863  0.013262  -0.328492  -0.561002  0.006298  2.123539  0.01
O  O402  1  0.42435463  0.34365790  0.42392077  1  -1.145639  0.121241  -0.343966  -0.565257  0.060844  2.36077  0.093
O  O403  1  0.36624491  0.25310530  0.44739670  1  -1.170818  0.021008  -0.337503  -0.558674  0.010191  2.073869  0.017
O  O404  1  0.10221428  0.71449503  0.23504931  1  -1.15264  0.10078  -0.327558  -0.548696  0.05184  2.332497  0.08
O  O405  1  0.03236878  0.74069212  0.13582386  1  -1.18413  0.03016  -0.331714  -0.572304  0.01492  2.116133  0.024
O  O406  1  0.15206262  0.06744107  0.23860853  1  -1.14121  0.106098  -0.330539  -0.54357  0.054369  2.29929  0.084
O  O407  1  0.10717544  0.98183092  0.13495200  1  -1.170409  0.042182  -0.320821  -0.554028  0.020857  2.124199  0.035
O  O408  1  0.83339623  0.92257531  0.44389819  1  -1.132251  0.113362  -0.335845  -0.550619  0.057  2.362283  0.086
O  O409  1  0.67775366  0.89895770  0.44424465  1  -1.185862  0.013089  -0.328444  -0.560965  0.006195  2.124949  0.01
O  O410  1  0.00023523  0.15665616  0.57630387  1  -1.140991  0.121211  -0.344362  -0.566904  0.060776  2.360507  0.093
O  O411  1  0.91852731  0.24707512  0.55273276  1  -1.171705  0.021101  -0.337708  -0.559101  0.010238  2.072887  0.017
O  O412  1  0.13272592  0.21447917  0.23499645  1  -1.141614  0.100763  -0.328496  -0.549474  0.051876  2.333051  0.08
O  O413  1  0.10386170  0.24089265  0.13591784  1  -1.162337  0.029964  -0.332322  -0.572717  0.014867  2.114154  0.024
O  O414  1  0.08597645  0.56737041  0.23859119  1  -1.140453  0.105923  -0.330853  -0.544377  0.054381  2.298636  0.084
O  O415  1  0.02707285  0.48171961  0.13495834  1  -1.176109  0.041971  -0.320764  -0.553731  0.020731  2.122601  0.035
O  O416  1  0.61055263  0.42245261  0.44347382  1  -1.13746  0.113505  -0.335518  -0.550707  0.057076  2.364202  0.086
O  O417  1  0.76674693  0.39907135  0.44421582  1  -1.185939  0.013267  -0.32843  -0.560921  0.0063  2.123597  0.01
O  O418  1  0.57565213  0.65634338  0.57608828  1  -1.145471  0.121248  -0.343789  -0.565139  0.060845  2.3609  0.093
O  O419  1  0.63375076  0.74689327  0.55260308  1  -1.171095  0.021011  -0.337582  -0.558788  0.010193  2.074214  0.017
O  O420  1  0.89779368  0.28550462  0.76495397  1  -1.152565  0.100774  -0.327497  -0.548698  0.051837  2.332546  0.08
O  O421  1  0.96763305  0.25930700  0.86417919  1  -1.184237  0.03016  -0.331675  -0.572287  0.01492  2.116206  0.024
O  O422  1  0.84793480  0.93255960  0.76139332  1  -1.141148  0.106095  -0.330544  -0.543609  0.054368  2.299368  0.084
O  O423  1  0.89282774  0.01817026  0.86504899  1  -1.170468  0.042177  -0.320864  -0.554069  0.020854  2.124126  0.035
O  O424  1  0.16659974  0.07742686  0.55609798  1  -1.132299  0.113377  -0.335815  -0.550549  0.057005  2.362195  0.086
O  O425  1  0.32224705  0.10104301  0.55576049  1  -1.185948  0.013082  -0.328397  -0.560832  0.006191  2.125177  0.01
O  O426  1  0.99976169  0.84334869  0.42369965  1  -1.141067  0.121221  -0.344348  -0.566872  0.06078  2.360431  0.093
O  O427  1  0.08146769  0.75292601  0.44726452  1  -1.171957  0.0211  -0.337762  -0.559094  0.010237  2.072986  0.017
