# generated using pymatgen
data_AgH10(C2N)3
_symmetry_space_group_name_H-M   'P 1'
_cell_length_a   11.30896792
_cell_length_b   18.47267159
_cell_length_c   20.87755832
_cell_angle_alpha   89.99980993
_cell_angle_beta   99.17859218
_cell_angle_gamma   89.99999197
_symmetry_Int_Tables_number   1
_chemical_formula_structural   AgH10(C2N)3
_chemical_formula_sum   'Ag20 H200 C120 N60'
_cell_volume   4305.62046526
_cell_formula_units_Z   20
loop_
 _symmetry_equiv_pos_site_id
 _symmetry_equiv_pos_as_xyz
  1  'x, y, z'
loop_
 _atom_site_type_symbol
 _atom_site_label
 _atom_site_symmetry_multiplicity
 _atom_site_fract_x
 _atom_site_fract_y
 _atom_site_fract_z
 _atom_site_occupancy
 _atom_site_pbe_bader_charge
 _atom_site_pbe_bader_spin_density
 _atom_site_pbe_cm5_charge
 _atom_site_pbe_ddec_charge
 _atom_site_pbe_ddec_spin_density
 _atom_site_pbe_ddec_sum_bond_order
 _atom_site_pbe_magmom
Ag  Ag0  1  0.44399897  0.11351925  0.16900815  1  0.528625  0  0.463899  0.275924  0  2.125445  0
Ag  Ag1  1  0.55599793  0.61351754  0.33099589  1  0.528501  0  0.463901  0.275944  0  2.125423  0
Ag  Ag2  1  0.55599364  0.88647766  0.83099388  1  0.528554  0  0.463893  0.27592  0  2.125493  0
Ag  Ag3  1  0.44399720  0.38648532  0.66899867  1  0.528652  0  0.463948  0.276028  0  2.125445  0
Ag  Ag4  1  0.50724690  0.27101718  0.23938650  1  0.528335  0  0.468658  0.271664  0  2.147215  0
Ag  Ag5  1  0.49276050  0.77102440  0.26061457  1  0.52832  0  0.468578  0.271591  0  2.147133  0
Ag  Ag6  1  0.49274825  0.72898244  0.76060903  1  0.528294  0  0.468576  0.271568  0  2.147161  0
Ag  Ag7  1  0.50724827  0.22897413  0.73939067  1  0.528401  0  0.468607  0.271582  0  2.147141  0
Ag  Ag8  1  0.59925339  0.11921820  0.31580806  1  0.523164  0  0.470385  0.276695  0  2.154966  0
Ag  Ag9  1  0.40074528  0.61921651  0.18419515  1  0.523038  0  0.470382  0.27672  0  2.154889  0
Ag  Ag10  1  0.40075002  0.88077926  0.68419723  1  0.523129  0  0.470382  0.276716  0  2.154909  0
Ag  Ag11  1  0.59925095  0.38078960  0.81580860  1  0.523112  0  0.470397  0.276687  0  2.154781  0
Ag  Ag12  1  0.11784034  0.22973748  0.42934056  1  0.530697  0  0.471197  0.286833  0  2.066504  0
Ag  Ag13  1  0.88215533  0.72973835  0.07065298  1  0.530685  0  0.471205  0.286849  0  2.06654  0
Ag  Ag14  1  0.88215747  0.77025889  0.57065373  1  0.530707  0  0.471197  0.286812  0  2.066558  0
Ag  Ag15  1  0.11784260  0.27026073  0.92934660  1  0.530763  0  0.471198  0.286856  0  2.066521  0
Ag  Ag16  1  0.92306664  0.26278819  0.56016466  1  0.527738  0  0.461179  0.277328  0  2.015651  0
Ag  Ag17  1  0.07692812  0.76278774  0.93983766  1  0.527919  0  0.461183  0.277347  0  2.015789  0
Ag  Ag18  1  0.07693048  0.73721414  0.43983916  1  0.527929  0  0.461191  0.277358  0  2.01574  0
Ag  Ag19  1  0.92307163  0.23721405  0.06016349  1  0.527972  0  0.461171  0.277326  0  2.015765  0
H  H20  1  0.85838183  0.09038734  0.10506384  1  0.043442  0  0.094215  0.090549  0  0.997628  0
H  H21  1  0.14162043  0.59038651  0.39493878  1  0.043468  0  0.094246  0.09062  0  0.997649  0
H  H22  1  0.14161614  0.90961336  0.89493814  1  0.043408  0  0.09421  0.090554  0  0.997673  0
H  H23  1  0.85837581  0.40961581  0.60506545  1  0.043544  0  0.094241  0.090618  0  0.997643  0
H  H24  1  0.73601119  0.09587557  0.04212497  1  0.03932  0  0.097146  0.098059  0  0.972842  0
H  H25  1  0.26399194  0.59587775  0.45787627  1  0.03926  0  0.097139  0.098052  0  0.972878  0
H  H26  1  0.26398946  0.90412188  0.95787674  1  0.039261  0  0.097148  0.098082  0  0.972867  0
H  H27  1  0.73600699  0.40412241  0.54212818  1  0.039386  0  0.097181  0.098109  0  0.972829  0
H  H28  1  0.74479889  0.97601670  0.09921959  1  0.009556  0  0.08581  0.112251  0  1.01841  0
H  H29  1  0.25520746  0.47601593  0.40078415  1  0.009778  0  0.085816  0.112235  0  1.018417  0
H  H30  1  0.25520627  0.02398346  0.90078392  1  0.009561  0  0.085825  0.112266  0  1.018411  0
H  H31  1  0.74479579  0.52398477  0.59921394  1  0.009658  0  0.085817  0.112254  0  1.018434  0
H  H32  1  0.60936894  0.02170481  0.10656400  1  0.01113  0  0.082256  0.107547  0  1.038149  0
H  H33  1  0.39063251  0.52170776  0.39343875  1  0.011033  0  0.082264  0.107559  0  1.038234  0
H  H34  1  0.39063175  0.97829210  0.89343963  1  0.011058  0  0.08225  0.107562  0  1.038223  0
H  H35  1  0.60936449  0.47829998  0.60655931  1  0.011008  0  0.082245  0.107465  0  1.03836  0
H  H36  1  0.72690825  0.01978779  0.17307254  1  0.049132  0  0.08971  0.123637  0  1.010596  0
H  H37  1  0.27309944  0.51978829  0.32692976  1  0.049166  0  0.089756  0.123682  0  1.010651  0
H  H38  1  0.27309868  0.98021291  0.82693015  1  0.049171  0  0.089753  0.123688  0  1.010651  0
H  H39  1  0.72689935  0.48022107  0.67306892  1  0.049169  0  0.089694  0.123635  0  1.010656  0
H  H40  1  0.68169033  0.37645573  0.18603241  1  0.079012  0  0.09647  0.101521  0  1.013085  0
H  H41  1  0.31830691  0.87645519  0.31395843  1  0.078579  0  0.096436  0.101486  0  1.01299  0
H  H42  1  0.31830836  0.62354497  0.81396148  1  0.078567  0  0.096395  0.101416  0  1.013087  0
H  H43  1  0.68169013  0.12354660  0.68604155  1  0.078917  0  0.096451  0.101458  0  1.013046  0
H  H44  1  0.72784604  0.37760297  0.10908609  1  0.032484  0  0.093822  0.09383  0  1.002908  0
H  H45  1  0.27214670  0.87760485  0.39090390  1  0.032279  0  0.093808  0.093817  0  1.002958  0
H  H46  1  0.27214820  0.62239665  0.89090887  1  0.032528  0  0.093823  0.09382  0  1.002874  0
H  H47  1  0.72785121  0.12240072  0.60909519  1  0.032803  0  0.09381  0.093808  0  1.002818  0
H  H48  1  0.89140553  0.42670128  0.19147153  1  0.017255  0  0.084746  0.110373  0  1.015513  0
H  H49  1  0.10858893  0.92670187  0.30851750  1  0.017159  0  0.084731  0.110386  0  1.015523  0
H  H50  1  0.10859407  0.57329563  0.80852291  1  0.017124  0  0.084741  0.110417  0  1.015584  0
H  H51  1  0.89140540  0.07329938  0.69148131  1  0.017197  0  0.084761  0.110423  0  1.015517  0
H  H52  1  0.93854110  0.34374853  0.16038535  1  0.032828  0  0.078003  0.097962  0  1.051937  0
H  H53  1  0.06144905  0.84375062  0.33960693  1  0.032808  0  0.078028  0.097997  0  1.051873  0
H  H54  1  0.06144864  0.65624568  0.83960830  1  0.033002  0  0.078027  0.097992  0  1.051901  0
H  H55  1  0.93854891  0.15624954  0.66039408  1  0.032842  0  0.07803  0.097998  0  1.051894  0
H  H56  1  0.89332328  0.34603122  0.23799127  1  -0.006791  0  0.088824  0.119791  0  1.017804  0
H  H57  1  0.10667135  0.84603089  0.26200184  1  -0.007049  0  0.088848  0.119835  0  1.017874  0
H  H58  1  0.10667189  0.65396245  0.76200521  1  -0.00686  0  0.088854  0.119856  0  1.017817  0
H  H59  1  0.89332657  0.15396710  0.73799773  1  -0.007006  0  0.088836  0.119824  0  1.017841  0
H  H60  1  0.56756005  0.37400797  0.37745347  1  0.036974  0  0.095013  0.096228  0  0.992546  0
H  H61  1  0.43243833  0.87401193  0.12254897  1  0.037162  0  0.095022  0.096262  0  0.992623  0
H  H62  1  0.43243778  0.62599327  0.62254179  1  0.036884  0  0.095043  0.096241  0  0.992593  0
H  H63  1  0.56755706  0.12598498  0.87745759  1  0.036902  0  0.095047  0.096271  0  0.992576  0
H  H64  1  0.63764475  0.45988562  0.38844294  1  0.035136  0  0.094787  0.092013  0  0.989331  0
H  H65  1  0.36235177  0.95988476  0.11156005  1  0.034985  0  0.09479  0.092043  0  0.989283  0
H  H66  1  0.36235221  0.54011995  0.61155368  1  0.034851  0  0.094742  0.092002  0  0.989267  0
H  H67  1  0.63764538  0.04011162  0.88844521  1  0.035036  0  0.094772  0.092053  0  0.989268  0
H  H68  1  0.78977492  0.35927807  0.39065503  1  0.044924  0  0.085744  0.120578  0  1.014479  0
H  H69  1  0.21023151  0.85927939  0.10934714  1  0.045017  0  0.08575  0.120625  0  1.01462  0
H  H70  1  0.21022645  0.64072534  0.60933908  1  0.044948  0  0.08575  0.120655  0  1.014465  0
H  H71  1  0.78976915  0.14072022  0.89065505  1  0.044988  0  0.085744  0.120583  0  1.014396  0
H  H72  1  0.79569974  0.41761897  0.32322057  1  -0.010048  0  0.085676  0.116997  0  1.013536  0
H  H73  1  0.20429768  0.91761409  0.17678070  1  -0.010018  0  0.085692  0.117016  0  1.013551  0
H  H74  1  0.20429716  0.58238552  0.67677270  1  -0.009943  0  0.085733  0.117008  0  1.013499  0
H  H75  1  0.79569492  0.08238120  0.82322084  1  -0.010248  0  0.085695  0.117049  0  1.013512  0
H  H76  1  0.72298564  0.33205422  0.31170215  1  0.022278  0  0.080363  0.109421  0  1.04111  0
H  H77  1  0.27701180  0.83205200  0.18829602  1  0.022253  0  0.080364  0.109399  0  1.041155  0
H  H78  1  0.27700858  0.66795135  0.68829138  1  0.022301  0  0.080391  0.10943  0  1.041042  0
H  H79  1  0.72297814  0.16794221  0.81170675  1  0.0224  0  0.080411  0.109454  0  1.041145  0
H  H80  1  0.43806635  0.40195085  0.10427248  1  0.052946  0  0.093522  0.091412  0  0.987603  0
H  H81  1  0.56194346  0.90194674  0.39572216  1  0.053191  0  0.093568  0.091487  0  0.987589  0
H  H82  1  0.56193058  0.59804985  0.89572270  1  0.053077  0  0.093543  0.091473  0  0.987503  0
H  H83  1  0.43806967  0.09805126  0.60427767  1  0.053248  0  0.093523  0.091423  0  0.987549  0
H  H84  1  0.34217974  0.47659570  0.10960430  1  0.050048  0  0.094324  0.090596  0  0.997368  0
H  H85  1  0.65783104  0.97658890  0.39039787  1  0.050118  0  0.09439  0.090719  0  0.997321  0
H  H86  1  0.65782703  0.52341203  0.89039120  1  0.049999  0  0.094374  0.090711  0  0.997416  0
H  H87  1  0.34218305  0.02340747  0.60960539  1  0.050137  0  0.094379  0.090668  0  0.997333  0
H  H88  1  0.22546737  0.36046366  0.08705444  1  0.044259  0  0.086055  0.118801  0  1.0224  0
H  H89  1  0.77453896  0.86045838  0.41294244  1  0.044072  0  0.086027  0.118735  0  1.022498  0
H  H90  1  0.77452521  0.63954733  0.91294614  1  0.044291  0  0.086038  0.118726  0  1.022384  0
H  H91  1  0.22547143  0.13953582  0.58705478  1  0.044547  0  0.086043  0.1188  0  1.022433  0
H  H92  1  0.20507237  0.39696176  0.16349296  1  0.015871  0  0.086114  0.116538  0  1.003598  0
H  H93  1  0.79493754  0.89695514  0.33650650  1  0.015762  0  0.086101  0.116534  0  1.003702  0
H  H94  1  0.79492997  0.60305248  0.83650458  1  0.016363  0  0.086045  0.116438  0  1.003748  0
H  H95  1  0.20506928  0.10304015  0.66349139  1  0.015872  0  0.08613  0.116565  0  1.003609  0
H  H96  1  0.30281474  0.32226710  0.15962870  1  0.038899  0  0.078839  0.109533  0  1.045066  0
H  H97  1  0.69719527  0.82226697  0.34037146  1  0.038746  0  0.078844  0.109586  0  1.045178  0
H  H98  1  0.69717606  0.67774064  0.84037222  1  0.039152  0  0.078933  0.109684  0  1.045172  0
H  H99  1  0.30280978  0.17773319  0.65962677  1  0.038893  0  0.078857  0.109589  0  1.045165  0
H  H100  1  0.55880571  0.23369899  0.43152460  1  0.04576  0  0.098016  0.106246  0  0.985406  0
H  H101  1  0.44119203  0.73369449  0.06848251  1  0.0455  0  0.098059  0.106272  0  0.985426  0
H  H102  1  0.44119768  0.76629847  0.56847973  1  0.045642  0  0.098015  0.106289  0  0.985349  0
H  H103  1  0.55880950  0.26630026  0.93151879  1  0.045693  0  0.098034  0.10623  0  0.985521  0
H  H104  1  0.65590783  0.24234567  0.50704736  1  0.055065  0  0.095499  0.09867  0  1.01878  0
H  H105  1  0.34409510  0.74234716  0.99295999  1  0.055063  0  0.095474  0.098661  0  1.018922  0
H  H106  1  0.34409204  0.75765558  0.49295956  1  0.055173  0  0.095504  0.098701  0  1.018874  0
H  H107  1  0.65590288  0.25765571  0.00704246  1  0.055054  0  0.095465  0.098623  0  1.018912  0
H  H108  1  0.52837791  0.13438023  0.51245851  1  0.023709  0  0.085932  0.111435  0  1.029936  0
H  H109  1  0.47161431  0.63438011  0.98754447  1  0.02363  0  0.085973  0.111476  0  1.030036  0
H  H110  1  0.47162457  0.86561668  0.48754526  1  0.023653  0  0.08593  0.111461  0  1.03  0
H  H111  1  0.52836840  0.36561680  0.01245437  1  0.023567  0  0.085958  0.111498  0  1.029964  0
H  H112  1  0.67658658  0.10361153  0.50926597  1  0.004252  0  0.083201  0.106108  0  1.033137  0
H  H113  1  0.32341285  0.60361412  0.99073768  1  0.00428  0  0.083174  0.106061  0  1.033286  0
H  H114  1  0.32341857  0.89638376  0.49073706  1  0.004404  0  0.083233  0.106169  0  1.033241  0
H  H115  1  0.67657257  0.39638712  0.00926233  1  0.004456  0  0.083203  0.106192  0  1.033297  0
H  H116  1  0.56611523  0.09988400  0.43863138  1  0.031587  0  0.077534  0.102614  0  1.054809  0
H  H117  1  0.43387978  0.59988440  0.06136728  1  0.031417  0  0.077537  0.102667  0  1.054907  0
H  H118  1  0.43388716  0.90011616  0.56136808  1  0.031463  0  0.077561  0.102726  0  1.054824  0
H  H119  1  0.56610647  0.40011468  0.93863040  1  0.031562  0  0.077544  0.102707  0  1.054799  0
H  H120  1  0.98682856  0.19565870  0.29716873  1  0.054287  0  0.093421  0.093419  0  1.012516  0
H  H121  1  0.01316005  0.69565482  0.20282818  1  0.054175  0  0.093401  0.093405  0  1.012519  0
H  H122  1  0.01316396  0.80434038  0.70282946  1  0.054169  0  0.093411  0.0934  0  1.012543  0
H  H123  1  0.98682983  0.30434480  0.79717171  1  0.054278  0  0.093442  0.093496  0  1.012518  0
H  H124  1  0.83798255  0.20022228  0.25483198  1  0.048085  0  0.097078  0.106683  0  1.005577  0
H  H125  1  0.16200706  0.70021931  0.24516978  1  0.04813  0  0.097056  0.106687  0  1.005514  0
H  H126  1  0.16200915  0.79977463  0.74516949  1  0.048277  0  0.097067  0.106696  0  1.005566  0
H  H127  1  0.83799004  0.29977868  0.75483308  1  0.048297  0  0.097099  0.106722  0  1.005587  0
H  H128  1  0.91947173  0.07932318  0.23585140  1  0.015556  0  0.087133  0.119128  0  1.020936  0
H  H129  1  0.08051882  0.57931852  0.26414648  1  0.014363  0  0.087165  0.119157  0  1.020931  0
H  H130  1  0.08052441  0.92067319  0.76414851  1  0.015466  0  0.087175  0.119257  0  1.020779  0
H  H131  1  0.91947546  0.42067785  0.73584993  1  0.015468  0  0.087145  0.119137  0  1.0209  0
H  H132  1  0.80615951  0.06901977  0.28508965  1  0.050978  0  0.075183  0.096675  0  1.070995  0
H  H133  1  0.19383109  0.56901636  0.21490970  1  0.051096  0  0.075178  0.096629  0  1.071055  0
H  H134  1  0.19383046  0.93097715  0.71491407  1  0.051171  0  0.075152  0.096657  0  1.071124  0
H  H135  1  0.80616856  0.43098109  0.78508714  1  0.051097  0  0.075216  0.096725  0  1.071031  0
H  H136  1  0.95973991  0.06418336  0.32086708  1  0.028408  0  0.082592  0.108084  0  1.007735  0
H  H137  1  0.04024978  0.56417902  0.17913174  1  0.028243  0  0.082652  0.108078  0  1.007512  0
H  H138  1  0.04025634  0.93581626  0.67913811  1  0.027865  0  0.08258  0.108094  0  1.007828  0
H  H139  1  0.95974357  0.43581952  0.82086316  1  0.028382  0  0.082651  0.108112  0  1.007773  0
H  H140  1  0.33029927  0.36808640  0.30472608  1  0.05545  0  0.098598  0.107632  0  1.003633  0
H  H141  1  0.66969993  0.86808141  0.19527212  1  0.055422  0  0.098569  0.107602  0  1.003661  0
H  H142  1  0.66970045  0.63192026  0.69527364  1  0.055493  0  0.098553  0.107594  0  1.003653  0
H  H143  1  0.33030525  0.13191226  0.80473234  1  0.0555  0  0.098633  0.107624  0  1.00352  0
H  H144  1  0.27877650  0.35962078  0.38003341  1  0.027422  0  0.093189  0.089538  0  1.015944  0
H  H145  1  0.72122089  0.85961823  0.11996372  1  0.027355  0  0.093224  0.08961  0  1.015922  0
H  H146  1  0.72122318  0.64038208  0.61996487  1  0.027394  0  0.093222  0.089643  0  1.0159  0
H  H147  1  0.27878071  0.14037814  0.88004046  1  0.027702  0  0.09319  0.089472  0  1.016037  0
H  H148  1  0.11689710  0.40935820  0.29550629  1  0.016304  0  0.087799  0.11833  0  1.003185  0
H  H149  1  0.88309934  0.90935857  0.20449061  1  0.016288  0  0.087793  0.118341  0  1.003104  0
H  H150  1  0.88309812  0.59064196  0.70449211  1  0.016263  0  0.087783  0.118306  0  1.003226  0
H  H151  1  0.11690310  0.09064321  0.79551124  1  0.01633  0  0.087778  0.118312  0  1.003209  0
H  H152  1  0.07424991  0.32390760  0.32361443  1  0.033333  0  0.078054  0.098348  0  1.055265  0
H  H153  1  0.92574841  0.82390807  0.17638240  1  0.033251  0  0.07809  0.098324  0  1.055244  0
H  H154  1  0.92575249  0.67609148  0.67638551  1  0.033299  0  0.078067  0.098332  0  1.055236  0
H  H155  1  0.07425755  0.17609047  0.82361686  1  0.033193  0  0.078016  0.09823  0  1.055435  0
H  H156  1  0.12410397  0.33057380  0.24730242  1  0.048252  0  0.087537  0.117676  0  1.016635  0
H  H157  1  0.87589613  0.83057128  0.25269453  1  0.048312  0  0.087537  0.11765  0  1.01666  0
H  H158  1  0.87589753  0.66942798  0.75269696  1  0.048265  0  0.087509  0.117589  0  1.016726  0
H  H159  1  0.12411262  0.16942509  0.74730975  1  0.04806  0  0.087547  0.117725  0  1.016625  0
H  H160  1  0.35395718  0.03627397  0.36486072  1  0.066947  0  0.100556  0.107719  0  0.971975  0
H  H161  1  0.64605219  0.53626812  0.13513688  1  0.066993  0  0.100584  0.107743  0  0.971916  0
H  H162  1  0.64605767  0.96373431  0.63513590  1  0.067225  0  0.10056  0.107708  0  0.971912  0
H  H163  1  0.35395021  0.46372825  0.86486305  1  0.067025  0  0.100556  0.10776  0  0.971888  0
H  H164  1  0.19937379  0.05419183  0.34573053  1  0.027065  0  0.094843  0.091024  0  0.991587  0
H  H165  1  0.80063469  0.55418968  0.15426838  1  0.026957  0  0.094834  0.090972  0  0.991603  0
H  H166  1  0.80064016  0.94581104  0.65426601  1  0.026916  0  0.094841  0.090955  0  0.991538  0
H  H167  1  0.19936946  0.44580290  0.84572978  1  0.027053  0  0.094829  0.091028  0  0.991533  0
H  H168  1  0.24502880  0.01136078  0.45955371  1  0.035593  0  0.086324  0.114008  0  1.011468  0
H  H169  1  0.75497880  0.51135960  0.04044382  1  0.035573  0  0.086273  0.113983  0  1.011537  0
H  H170  1  0.75497972  0.98863830  0.54044001  1  0.035604  0  0.086298  0.113981  0  1.011552  0
H  H171  1  0.24502180  0.48863785  0.95955549  1  0.035695  0  0.086275  0.113978  0  1.011473  0
H  H172  1  0.19699324  0.10288625  0.45882814  1  0.03156  0  0.0736  0.095718  0  1.070249  0
H  H173  1  0.80301338  0.60288399  0.04117001  1  0.031649  0  0.073583  0.095711  0  1.070202  0
H  H174  1  0.80301264  0.89711283  0.54116777  1  0.031561  0  0.07357  0.095712  0  1.070122  0
H  H175  1  0.19698717  0.39711130  0.95882690  1  0.031437  0  0.073557  0.095681  0  1.070208  0
H  H176  1  0.35150457  0.08183619  0.47962622  1  0.011019  0  0.085289  0.113553  0  1.027375  0
H  H177  1  0.64850387  0.58183348  0.02037213  1  0.011121  0  0.085326  0.113578  0  1.027409  0
H  H178  1  0.64850316  0.91816397  0.52037222  1  0.011049  0  0.085308  0.113555  0  1.027402  0
H  H179  1  0.35149675  0.41816018  0.97962814  1  0.011029  0  0.085327  0.113594  0  1.027361  0
H  H180  1  0.37900282  0.25886202  0.47719445  1  0.063727  0  0.094331  0.095758  0  1.014968  0
H  H181  1  0.62099646  0.75886309  0.02280216  1  0.063865  0  0.094331  0.09581  0  1.014868  0
H  H182  1  0.62099501  0.74113489  0.52280080  1  0.063701  0  0.094332  0.095824  0  1.014921  0
H  H183  1  0.37899882  0.24113544  0.97719912  1  0.064006  0  0.094306  0.095759  0  1.015021  0
H  H184  1  0.47417468  0.26417351  0.55346584  1  0.06706  0  0.097776  0.106575  0  0.987265  0
H  H185  1  0.52582357  0.76417245  0.94653293  1  0.066948  0  0.097794  0.106628  0  0.987314  0
H  H186  1  0.52582224  0.73582124  0.44652887  1  0.067065  0  0.097797  0.106596  0  0.987302  0
H  H187  1  0.47417437  0.23582825  0.05346761  1  0.067016  0  0.097773  0.106551  0  0.987433  0
H  H188  1  0.52855707  0.36157482  0.48048485  1  0.022465  0  0.085442  0.112104  0  1.024059  0
H  H189  1  0.47144656  0.86157808  0.01951133  1  0.022668  0  0.085486  0.112127  0  1.024091  0
H  H190  1  0.47145150  0.63841776  0.51951079  1  0.022645  0  0.085456  0.112136  0  1.023908  0
H  H191  1  0.52855944  0.13842641  0.98048937  1  0.022644  0  0.085455  0.11209  0  1.024012  0
H  H192  1  0.47165184  0.40017226  0.54733310  1  0.020024  0  0.075464  0.099366  0  1.068679  0
H  H193  1  0.52834533  0.90017064  0.95266375  1  0.019971  0  0.075454  0.099379  0  1.068669  0
H  H194  1  0.52835133  0.59982412  0.45266115  1  0.019767  0  0.075408  0.099324  0  1.068668  0
H  H195  1  0.47165534  0.09982898  0.04733892  1  0.019886  0  0.075457  0.099377  0  1.068656  0
H  H196  1  0.37987315  0.39620655  0.47007259  1  0.015149  0  0.0829  0.108831  0  1.032318  0
H  H197  1  0.62012146  0.89620759  0.02992181  1  0.015259  0  0.082929  0.108875  0  1.032352  0
H  H198  1  0.62013178  0.60378874  0.52992036  1  0.01523  0  0.082889  0.108793  0  1.032413  0
H  H199  1  0.37987554  0.10379149  0.97007674  1  0.015218  0  0.082867  0.108741  0  1.032305  0
H  H200  1  0.19284007  0.32086992  0.72717354  1  0.04276  0  0.098128  0.109748  0  1.002326  0
H  H201  1  0.80716874  0.82087545  0.77282016  1  0.042941  0  0.098148  0.109773  0  1.00222  0
H  H202  1  0.80715959  0.67912266  0.27282378  1  0.042991  0  0.098132  0.109685  0  1.002224  0
H  H203  1  0.19283814  0.17913229  0.22718014  1  0.042777  0  0.098132  0.109686  0  1.002233  0
H  H204  1  0.04579072  0.32446613  0.68258438  1  0.032021  0  0.091866  0.090081  0  1.015043  0
H  H205  1  0.95421200  0.82447040  0.81741696  1  0.03208  0  0.09185  0.09004  0  1.015109  0
H  H206  1  0.95420533  0.67552861  0.31741121  1  0.0321  0  0.091811  0.089991  0  1.015198  0
H  H207  1  0.04578691  0.17553463  0.18258700  1  0.031896  0  0.091839  0.090057  0  1.015009  0
H  H208  1  0.11129506  0.44545178  0.73503026  1  0.010362  0  0.082718  0.104806  0  1.042411  0
H  H209  1  0.88870404  0.94545950  0.76497523  1  0.010553  0  0.082727  0.104756  0  1.042614  0
H  H210  1  0.88870566  0.55453864  0.26497481  1  0.010565  0  0.082693  0.104701  0  1.042597  0
H  H211  1  0.11129585  0.05454662  0.23503264  1  0.010427  0  0.082714  0.104859  0  1.042336  0
H  H212  1  0.08359791  0.45321693  0.64897740  1  0.026775  0  0.083404  0.110523  0  1.001972  0
H  H213  1  0.91639938  0.95321782  0.85102745  1  0.026685  0  0.083411  0.110526  0  1.002  0
H  H214  1  0.91640188  0.54678269  0.35102568  1  0.026683  0  0.083384  0.110505  0  1.002031  0
H  H215  1  0.08359868  0.04678504  0.14897837  1  0.026581  0  0.083401  0.110517  0  1.001986  0
H  H216  1  0.23315584  0.44749921  0.69107616  1  0.073718  0  0.078645  0.104509  0  1.06133  0
H  H217  1  0.76684411  0.94750027  0.80892747  1  0.073598  0  0.078647  0.104471  0  1.061301  0
H  H218  1  0.76684934  0.55249717  0.30892831  1  0.073594  0  0.078633  0.104449  0  1.061383  0
H  H219  1  0.23315842  0.05250314  0.19107870  1  0.073725  0  0.078645  0.10451  0  1.061354  0
C  C220  1  0.72217520  0.16090012  0.12433661  1  0.986176  0  0.199354  0.310642  0  4.006785  0
C  C221  1  0.27782873  0.66089773  0.37566402  1  0.985905  0  0.199382  0.310586  0  4.006803  0
C  C222  1  0.27782899  0.83910437  0.87566347  1  0.985965  0  0.199417  0.310693  0  4.006614  0
C  C223  1  0.72217916  0.33910135  0.62434162  1  0.986007  0  0.199412  0.310549  0  4.006994  0
C  C224  1  0.75961751  0.09233781  0.09542710  1  -0.012232  0  -0.153543  -0.179695  0  3.998795  0
C  C225  1  0.24038295  0.59233748  0.40457489  1  -0.012222  0  -0.153588  -0.179814  0  3.998925  0
C  C226  1  0.24037957  0.90766181  0.90457480  1  -0.0122  0  -0.153527  -0.179794  0  3.998883  0
C  C227  1  0.75961059  0.40766430  0.59542864  1  -0.012489  0  -0.153698  -0.180031  0  3.999062  0
C  C228  1  0.70718196  0.02365631  0.12000016  1  -0.036822  0  -0.245112  -0.341223  0  3.950009  0
C  C229  1  0.29282571  0.52365769  0.38000118  1  -0.036984  0  -0.245162  -0.341223  0  3.950114  0
C  C230  1  0.29282404  0.97634277  0.88000102  1  -0.036767  0  -0.24519  -0.341282  0  3.950106  0
C  C231  1  0.70717580  0.47635059  0.61999916  1  -0.036693  0  -0.245009  -0.340947  0  3.950089  0
C  C232  1  0.71803842  0.27351183  0.15048321  1  0.964225  0  0.200967  0.310335  0  4.00764  0
C  C233  1  0.28195543  0.77351279  0.34951149  1  0.964591  0  0.200933  0.310201  0  4.007744  0
C  C234  1  0.28195406  0.72648725  0.84951257  1  0.964474  0  0.200973  0.310409  0  4.007566  0
C  C235  1  0.71804609  0.22649225  0.65048933  1  0.963415  0  0.200989  0.31025  0  4.007561  0
C  C236  1  0.74532681  0.35243056  0.15747376  1  -0.003696  0  -0.158359  -0.183709  0  3.96945  0
C  C237  1  0.25466335  0.85243371  0.34251946  1  -0.003444  0  -0.158378  -0.183666  0  3.969374  0
C  C238  1  0.25466653  0.64756744  0.84252066  1  -0.003653  0  -0.158276  -0.183525  0  3.969119  0
C  C239  1  0.74533108  0.14756970  0.65748367  1  -0.004095  0  -0.158324  -0.183518  0  3.969116  0
C  C240  1  0.87457989  0.36812882  0.18864731  1  -0.018167  0  -0.243352  -0.340939  0  3.953776  0
C  C241  1  0.12541111  0.86812885  0.31134401  1  -0.017559  0  -0.243324  -0.340996  0  3.953806  0
C  C242  1  0.12541343  0.63186755  0.81134615  1  -0.0179  0  -0.243388  -0.341133  0  3.953758  0
C  C243  1  0.87458322  0.13187131  0.68865480  1  -0.01791  0  -0.243441  -0.341165  0  3.953967  0
C  C244  1  0.54773371  0.44052477  0.29379549  1  0.980102  0  0.203233  0.309704  0  4.013748  0
C  C245  1  0.45227080  0.94052787  0.20620388  1  0.979536  0  0.203242  0.309679  0  4.013708  0
C  C246  1  0.45226504  0.55947756  0.70620079  1  0.980131  0  0.203207  0.309829  0  4.014005  0
C  C247  1  0.54773167  0.05947066  0.79379941  1  0.979644  0  0.203197  0.309741  0  4.013631  0
C  C248  1  0.62104262  0.41368392  0.35490348  1  0.006077  0  -0.155445  -0.184093  0  3.990907  0
C  C249  1  0.37895214  0.91368293  0.14509903  1  0.006314  0  -0.155437  -0.184143  0  3.991052  0
C  C250  1  0.37895882  0.58631895  0.64509351  1  0.006293  0  -0.155426  -0.184083  0  3.990961  0
C  C251  1  0.62104054  0.08631344  0.85490635  1  0.00638  0  -0.155477  -0.184242  0  3.991183  0
C  C252  1  0.73951426  0.37876316  0.34453109  1  -0.020773  0  -0.244708  -0.338453  0  3.917151  0
C  C253  1  0.26048673  0.87876160  0.15546819  1  -0.020953  0  -0.244756  -0.338518  0  3.91758  0
C  C254  1  0.26048440  0.62124187  0.65546136  1  -0.020873  0  -0.244785  -0.338534  0  3.917191  0
C  C255  1  0.73950497  0.12123531  0.84453328  1  -0.020887  0  -0.244775  -0.33853  0  3.917324  0
C  C256  1  0.44224038  0.44528171  0.19882808  1  0.975039  0  0.201954  0.308224  0  4.019906  0
C  C257  1  0.55776947  0.94528282  0.30117075  1  0.975224  0  0.201932  0.308295  0  4.019996  0
C  C258  1  0.55776463  0.55472224  0.80116823  1  0.97481  0  0.20191  0.30835  0  4.01969  0
C  C259  1  0.44223744  0.05471571  0.69883098  1  0.974984  0  0.20191  0.308134  0  4.02006  0
C  C260  1  0.37514989  0.42583040  0.13366919  1  -0.028669  0  -0.15397  -0.176481  0  3.988156  0
C  C261  1  0.62485368  0.92582855  0.36632776  1  -0.028837  0  -0.154066  -0.176747  0  3.988314  0
C  C262  1  0.62485065  0.57417355  0.86632724  1  -0.028565  0  -0.154011  -0.17671  0  3.988274  0
C  C263  1  0.37514961  0.07417161  0.63367225  1  -0.028981  0  -0.154045  -0.176558  0  3.988248  0
C  C264  1  0.27095804  0.37347468  0.13611344  1  -0.053268  0  -0.246019  -0.337877  0  3.917855  0
C  C265  1  0.72905008  0.87347175  0.36388451  1  -0.053009  0  -0.245985  -0.337852  0  3.918159  0
C  C266  1  0.72903709  0.62653631  0.86388112  1  -0.054174  0  -0.246041  -0.337882  0  3.918117  0
C  C267  1  0.27095943  0.12652678  0.63611360  1  -0.053599  0  -0.24605  -0.337982  0  3.918062  0
C  C268  1  0.74065595  0.20843084  0.42948432  1  0.963034  0  0.201891  0.316699  0  4.009311  0
C  C269  1  0.25934171  0.70842635  0.07051806  1  0.963383  0  0.201827  0.316744  0  4.009294  0
C  C270  1  0.25934742  0.79157040  0.57051904  1  0.963277  0  0.201917  0.316814  0  4.00943  0
C  C271  1  0.74065538  0.29157327  0.92948432  1  0.96327  0  0.201847  0.316633  0  4.009305  0
C  C272  1  0.63453100  0.20855042  0.46346847  1  0.018789  0  -0.160159  -0.191422  0  3.964936  0
C  C273  1  0.36546489  0.70855038  0.03653473  1  0.019133  0  -0.16012  -0.191475  0  3.965074  0
C  C274  1  0.36546966  0.79145082  0.53653372  1  0.018817  0  -0.160155  -0.191477  0  3.965212  0
C  C275  1  0.63453213  0.29144978  0.96346430  1  0.018958  0  -0.160079  -0.191227  0  3.965154  0
C  C276  1  0.59920307  0.13214888  0.48212775  1  -0.05148  0  -0.243025  -0.338657  0  3.936854  0
C  C277  1  0.40079465  0.63214620  0.01787391  1  -0.051252  0  -0.2431  -0.338718  0  3.93707  0
C  C278  1  0.40080391  0.86785074  0.51787734  1  -0.051449  0  -0.243089  -0.338884  0  3.937276  0
C  C279  1  0.59919344  0.36785180  0.98212584  1  -0.051537  0  -0.243151  -0.339048  0  3.937108  0
C  C280  1  0.85316233  0.19290426  0.35690851  1  0.978265  0  0.204286  0.318135  0  4.006848  0
C  C281  1  0.14683085  0.69290275  0.14309260  1  0.977834  0  0.20429  0.318006  0  4.006904  0
C  C282  1  0.14683562  0.80709699  0.64309250  1  0.977907  0  0.204366  0.318208  0  4.00666  0
C  C283  1  0.85316708  0.30710012  0.85690746  1  0.977855  0  0.204371  0.318207  0  4.006757  0
C  C284  1  0.89604655  0.17357744  0.29527984  1  0.002601  0  -0.159445  -0.190769  0  3.965209  0
C  C285  1  0.10394398  0.67357300  0.20472160  1  0.002488  0  -0.159416  -0.190678  0  3.964963  0
C  C286  1  0.10394516  0.82642218  0.70472164  1  0.00237  0  -0.159459  -0.19065  0  3.965109  0
C  C287  1  0.89605126  0.32642608  0.79527776  1  0.002572  0  -0.159557  -0.190967  0  3.965292  0
C  C288  1  0.89563555  0.09161855  0.28356668  1  -0.069706  0  -0.24603  -0.337728  0  3.938389  0
C  C289  1  0.10435681  0.59161515  0.21643275  1  -0.068462  0  -0.246037  -0.337623  0  3.938073  0
C  C290  1  0.10435710  0.90837619  0.71643726  1  -0.069207  0  -0.245999  -0.337892  0  3.938571  0
C  C291  1  0.89563930  0.40838393  0.78356572  1  -0.069671  0  -0.246065  -0.33771  0  3.938395  0
C  C292  1  0.30292437  0.26077269  0.33300142  1  0.980244  0  0.199284  0.307717  0  4.018228  0
C  C293  1  0.69707584  0.76076834  0.16699718  1  0.98022  0  0.19948  0.307868  0  4.017945  0
C  C294  1  0.69707892  0.73923289  0.66699810  1  0.980108  0  0.199475  0.307905  0  4.017734  0
C  C295  1  0.30292936  0.23922641  0.83300825  1  0.980609  0  0.199264  0.307611  0  4.018078  0
C  C296  1  0.26741891  0.33850536  0.33013269  1  0.027308  0  -0.16046  -0.191117  0  3.982233  0
C  C297  1  0.73257669  0.83850208  0.16986340  1  0.027636  0  -0.160585  -0.191349  0  3.982069  0
C  C298  1  0.73257985  0.66149967  0.66986407  1  0.027515  0  -0.160535  -0.19135  0  3.982113  0
C  C299  1  0.26742310  0.16149213  0.83014016  1  0.027051  0  -0.160503  -0.190998  0  3.982124  0
C  C300  1  0.13820712  0.35130488  0.29719197  1  -0.085666  0  -0.243317  -0.343676  0  3.954713  0
C  C301  1  0.86179115  0.85130254  0.20280430  1  -0.085804  0  -0.243319  -0.343578  0  3.954466  0
C  C302  1  0.86179346  0.64869528  0.70280638  1  -0.085724  0  -0.243267  -0.343486  0  3.954648  0
C  C303  1  0.13821757  0.14869599  0.79719854  1  -0.08546  0  -0.243298  -0.343633  0  3.955042  0
C  C304  1  0.31110435  0.14673879  0.35433289  1  0.943798  0  0.199458  0.312866  0  3.998348  0
C  C305  1  0.68889774  0.64673560  0.14566476  1  0.943799  0  0.199487  0.31285  0  3.998224  0
C  C306  1  0.68890159  0.85326678  0.64566541  1  0.943754  0  0.199588  0.313086  0  3.998163  0
C  C307  1  0.31110917  0.35325860  0.85433697  1  0.942263  0  0.199342  0.312859  0  3.998482  0
C  C308  1  0.28288529  0.07254374  0.37612168  1  0.021707  0  -0.151747  -0.171142  0  3.963004  0
C  C309  1  0.71711957  0.57253901  0.12387642  1  0.021671  0  -0.151775  -0.171054  0  3.962798  0
C  C310  1  0.71712421  0.92745967  0.62387595  1  0.021615  0  -0.151747  -0.170982  0  3.962734  0
C  C311  1  0.28288459  0.42745519  0.87612222  1  0.021568  0  -0.151692  -0.171195  0  3.962837  0
C  C312  1  0.26859011  0.06686820  0.44757383  1  -0.068407  0  -0.243094  -0.335917  0  3.94716  0
C  C313  1  0.73141745  0.56686482  0.05242449  1  -0.068654  0  -0.243063  -0.335948  0  3.947101  0
C  C314  1  0.73141760  0.93313304  0.55242365  1  -0.068595  0  -0.24307  -0.335965  0  3.947059  0
C  C315  1  0.26858405  0.43312939  0.94757489  1  -0.06836  0  -0.243071  -0.335919  0  3.947057  0
C  C316  1  0.29553893  0.29686505  0.55398676  1  0.978596  0  0.203003  0.318057  0  4.007645  0
C  C317  1  0.70445841  0.79686344  0.94601280  1  0.978743  0  0.203017  0.318069  0  4.007752  0
C  C318  1  0.70445977  0.70313132  0.44600713  1  0.978662  0  0.203077  0.318173  0  4.007811  0
C  C319  1  0.29553960  0.20313510  0.05399110  1  0.978345  0  0.203026  0.318214  0  4.00782  0
C  C320  1  0.40260464  0.29236765  0.52087706  1  -0.025875  0  -0.159235  -0.191203  0  3.965297  0
C  C321  1  0.59738905  0.79237351  0.97911886  1  -0.026365  0  -0.15929  -0.191403  0  3.965668  0
C  C322  1  0.59739320  0.70762764  0.47911868  1  -0.025849  0  -0.159313  -0.191385  0  3.965483  0
C  C323  1  0.40260532  0.20763044  0.02088186  1  -0.02618  0  -0.159229  -0.191317  0  3.965647  0
C  C324  1  0.44819724  0.36683769  0.50347117  1  -0.044202  0  -0.243952  -0.333759  0  3.925362  0
C  C325  1  0.55179912  0.86683861  0.99652762  1  -0.044013  0  -0.243993  -0.333801  0  3.925694  0
C  C326  1  0.55180863  0.63315651  0.49652377  1  -0.044145  0  -0.243883  -0.333725  0  3.925451  0
C  C327  1  0.44820154  0.13316101  0.00347457  1  -0.044156  0  -0.24391  -0.333622  0  3.925263  0
C  C328  1  0.18218958  0.31899762  0.62496066  1  0.983058  0  0.203761  0.317254  0  4.002615  0
C  C329  1  0.81781573  0.81899897  0.87503611  1  0.983303  0  0.203755  0.317255  0  4.002804  0
C  C330  1  0.81781453  0.68100363  0.37503558  1  0.983735  0  0.203799  0.317403  0  4.00258  0
C  C331  1  0.18219209  0.18100444  0.12496617  1  0.983753  0  0.203789  0.317303  0  4.00287  0
C  C332  1  0.13762304  0.34495098  0.68433668  1  0.024227  0  -0.158686  -0.189374  0  3.963013  0
C  C333  1  0.86237778  0.84495580  0.81566062  1  0.023879  0  -0.158717  -0.189359  0  3.963115  0
C  C334  1  0.86238203  0.65504268  0.31566251  1  0.023795  0  -0.15867  -0.189202  0  3.962859  0
C  C335  1  0.13762288  0.15505085  0.18434157  1  0.024254  0  -0.158702  -0.189322  0  3.962837  0
C  C336  1  0.14132717  0.42768237  0.69015285  1  -0.084745  0  -0.246715  -0.341517  0  3.949821  0
C  C337  1  0.85867365  0.92768613  0.80984852  1  -0.084741  0  -0.246699  -0.341405  0  3.950152  0
C  C338  1  0.85866992  0.57231129  0.30984953  1  -0.084729  0  -0.246641  -0.341377  0  3.950085  0
C  C339  1  0.14132888  0.07231782  0.19015717  1  -0.084665  0  -0.246709  -0.341572  0  3.949763  0
N  N340  1  0.63277182  0.16781244  0.15860895  1  -0.76076  0  -0.271308  -0.266185  0  3.408977  0
N  N341  1  0.36723121  0.66781287  0.34139159  1  -0.760803  0  -0.271285  -0.26613  0  3.40911  0
N  N342  1  0.36722155  0.83218827  0.84138691  1  -0.760925  0  -0.271305  -0.266074  0  3.408927  0
N  N343  1  0.63276504  0.33218999  0.65861360  1  -0.760731  0  -0.27132  -0.266136  0  3.408701  0
N  N344  1  0.63038238  0.24013275  0.17543663  1  -0.755717  0  -0.292271  -0.246217  0  3.59058  0
N  N345  1  0.36961431  0.74013379  0.32456367  1  -0.755876  0  -0.292247  -0.246193  0  3.590626  0
N  N346  1  0.36960473  0.75986741  0.82455921  1  -0.755789  0  -0.292369  -0.246439  0  3.590679  0
N  N347  1  0.63038730  0.25986799  0.67544099  1  -0.754628  0  -0.292268  -0.246228  0  3.590449  0
N  N348  1  0.77789908  0.22545766  0.11820784  1  -1.211347  0  -0.38141  -0.411944  0  3.52628  0
N  N349  1  0.22208949  0.72545687  0.38178802  1  -1.211129  0  -0.381426  -0.41184  0  3.52587  0
N  N350  1  0.22209259  0.77454358  0.88179172  1  -1.21101  0  -0.381376  -0.411931  0  3.525877  0
N  N351  1  0.77790315  0.27454816  0.61821496  1  -1.211308  0  -0.381435  -0.411763  0  3.526366  0
N  N352  1  0.51918913  0.51014547  0.28226926  1  -0.734146  0  -0.287058  -0.235541  0  3.566801  0
N  N353  1  0.48081054  0.01014862  0.21773339  1  -0.733906  0  -0.287  -0.235494  0  3.566724  0
N  N354  1  0.48080870  0.48985685  0.71772600  1  -0.734451  0  -0.287169  -0.23592  0  3.567056  0
N  N355  1  0.51918570  0.98985100  0.78227084  1  -0.734017  0  -0.287055  -0.235585  0  3.566695  0
N  N356  1  0.45131006  0.51306341  0.22177689  1  -0.741059  0  -0.291611  -0.239839  0  3.587912  0
N  N357  1  0.54869853  0.01306362  0.27822502  1  -0.741309  0  -0.291589  -0.239772  0  3.587794  0
N  N358  1  0.54868600  0.48693945  0.77821918  1  -0.7408  0  -0.291513  -0.239617  0  3.587567  0
N  N359  1  0.45130572  0.98693546  0.72177793  1  -0.741256  0  -0.291556  -0.239686  0  3.587657  0
N  N360  1  0.50133417  0.39826731  0.24265082  1  -1.239963  0  -0.369197  -0.416085  0  3.420521  0
N  N361  1  0.49867482  0.89826751  0.25734712  1  -1.239991  0  -0.369251  -0.41612  0  3.420752  0
N  N362  1  0.49866809  0.60173718  0.75734287  1  -1.239877  0  -0.369104  -0.416057  0  3.420557  0
N  N363  1  0.50133209  0.10173049  0.74265461  1  -1.239716  0  -0.369102  -0.415972  0  3.420613  0
N  N364  1  0.85062736  0.22926860  0.45627043  1  -0.741518  0  -0.279039  -0.259923  0  3.501483  0
N  N365  1  0.14937476  0.72926855  0.04373225  1  -0.741353  0  -0.278934  -0.259732  0  3.501369  0
N  N366  1  0.14938050  0.77072831  0.54373377  1  -0.741616  0  -0.279087  -0.259916  0  3.501746  0
N  N367  1  0.85063222  0.27073324  0.95627237  1  -0.741577  0  -0.27902  -0.259814  0  3.501398  0
N  N368  1  0.92271714  0.21941034  0.40952513  1  -0.75059  0  -0.285183  -0.247059  0  3.56811  0
N  N369  1  0.07727688  0.71940524  0.09047501  1  -0.750614  0  -0.285275  -0.247263  0  3.568188  0
N  N370  1  0.07728169  0.78058874  0.59047547  1  -0.750577  0  -0.285193  -0.247171  0  3.568028  0
N  N371  1  0.92272108  0.28059492  0.90952648  1  -0.75051  0  -0.285242  -0.247194  0  3.568212  0
N  N372  1  0.73841844  0.18507159  0.36757897  1  -1.221151  0  -0.386874  -0.391722  0  3.543361  0
N  N373  1  0.26157300  0.68506578  0.13242394  1  -1.221005  0  -0.386911  -0.391718  0  3.543269  0
N  N374  1  0.26157956  0.81493020  0.63242444  1  -1.220833  0  -0.38694  -0.391873  0  3.543381  0
N  N375  1  0.73842413  0.31493546  0.86758036  1  -1.221267  0  -0.386869  -0.391695  0  3.543217  0
N  N376  1  0.39051391  0.23283850  0.30435674  1  -0.763249  0  -0.293481  -0.242802  0  3.5967  0
N  N377  1  0.60948724  0.73283459  0.19564250  1  -0.763267  0  -0.293452  -0.242748  0  3.596529  0
N  N378  1  0.60948935  0.76716761  0.69564134  1  -0.763029  0  -0.293455  -0.242728  0  3.596364  0
N  N379  1  0.39052151  0.26715961  0.80436178  1  -0.762845  0  -0.293447  -0.242771  0  3.596377  0
N  N380  1  0.39627827  0.15975051  0.31818751  1  -0.745916  0  -0.275101  -0.286364  0  3.425532  0
N  N381  1  0.60372476  0.65974557  0.18181257  1  -0.745828  0  -0.27516  -0.286467  0  3.425382  0
N  N382  1  0.60372950  0.84025723  0.68181285  1  -0.74598  0  -0.27526  -0.286681  0  3.425518  0
N  N383  1  0.39628577  0.34024918  0.81819137  1  -0.744159  0  -0.275022  -0.286245  0  3.425286  0
N  N384  1  0.25102300  0.20849811  0.36502431  1  -1.212541  0  -0.380739  -0.407006  0  3.499295  0
N  N385  1  0.74897724  0.70849388  0.13497301  1  -1.212486  0  -0.380812  -0.406995  0  3.49912  0
N  N386  1  0.74898113  0.79150746  0.63497288  1  -1.212562  0  -0.380805  -0.407049  0  3.498872  0
N  N387  1  0.25103239  0.29150141  0.86503038  1  -1.213519  0  -0.38072  -0.407023  0  3.499384  0
N  N388  1  0.18632496  0.27308186  0.52889963  1  -0.760524  0  -0.280345  -0.256998  0  3.520774  0
N  N389  1  0.81367053  0.77308502  0.97109602  1  -0.760694  0  -0.280419  -0.256965  0  3.520999  0
N  N390  1  0.81367467  0.72691668  0.47109625  1  -0.761103  0  -0.280424  -0.256991  0  3.52066  0
N  N391  1  0.18632382  0.22691947  0.02890375  1  -0.760234  0  -0.28043  -0.257117  0  3.520899  0
N  N392  1  0.11360871  0.28707650  0.57462659  1  -0.746364  0  -0.285574  -0.241466  0  3.572683  0
N  N393  1  0.88638585  0.78707388  0.92536798  1  -0.746437  0  -0.285555  -0.241519  0  3.573037  0
N  N394  1  0.88639182  0.71292041  0.42536936  1  -0.745832  0  -0.285589  -0.241601  0  3.572967  0
N  N395  1  0.11361301  0.21292412  0.07463358  1  -0.746423  0  -0.285527  -0.24146  0  3.573068  0
N  N396  1  0.29671679  0.32618284  0.61378088  1  -1.206391  0  -0.380446  -0.392797  0  3.516697  0
N  N397  1  0.70328219  0.82618200  0.88621346  1  -1.206499  0  -0.380362  -0.392729  0  3.516448  0
N  N398  1  0.70328554  0.67381461  0.38621570  1  -1.207168  0  -0.380386  -0.392803  0  3.516982  0
N  N399  1  0.29671573  0.17381708  0.11378612  1  -1.207178  0  -0.380386  -0.392718  0  3.516751  0
