# generated using pymatgen
data_CuH21C31(NO3)2
_symmetry_space_group_name_H-M   'P 1'
_cell_length_a   9.83690787
_cell_length_b   23.65231869
_cell_length_c   25.22931735
_cell_angle_alpha   90.00016026
_cell_angle_beta   89.99990111
_cell_angle_gamma   90.03302062
_symmetry_Int_Tables_number   1
_chemical_formula_structural   CuH21C31(NO3)2
_chemical_formula_sum   'Cu8 H168 C248 N16 O48'
_cell_volume   5869.99529748
_cell_formula_units_Z   8
loop_
 _symmetry_equiv_pos_site_id
 _symmetry_equiv_pos_as_xyz
  1  'x, y, z'
loop_
 _atom_site_type_symbol
 _atom_site_label
 _atom_site_symmetry_multiplicity
 _atom_site_fract_x
 _atom_site_fract_y
 _atom_site_fract_z
 _atom_site_occupancy
 _atom_site_pbe_bader_charge
 _atom_site_pbe_bader_spin_density
 _atom_site_pbe_cm5_charge
 _atom_site_pbe_ddec_charge
 _atom_site_pbe_ddec_spin_density
 _atom_site_pbe_ddec_sum_bond_order
 _atom_site_pbe_magmom
Cu  Cu0  1  0.88338049  0.72403239  0.97694940  1  1.08504  0.591246  0.695856  0.776539  0.755455  2.379637  0.592
Cu  Cu1  1  0.61746314  0.22397321  0.52310461  1  1.076301  0.54476  0.693136  0.772067  0.692219  2.384627  0.542
Cu  Cu2  1  0.11661660  0.77596727  0.97694893  1  1.083135  0.59119  0.695843  0.776504  0.755462  2.379787  0.592
Cu  Cu3  1  0.38253213  0.27603007  0.52310634  1  1.078014  -0.544757  0.693199  0.772194  -0.70409  2.384397  -0.542
Cu  Cu4  1  0.11740521  0.27604369  0.02310598  1  1.075486  -0.544673  0.692991  0.771642  -0.703951  2.384657  -0.542
Cu  Cu5  1  0.38253771  0.77602878  0.47689607  1  1.076211  -0.544736  0.693298  0.772137  -0.70407  2.385213  -0.542
Cu  Cu6  1  0.88259431  0.22395599  0.02310724  1  1.077448  0.54468  0.693034  0.771683  0.69209  2.384658  0.542
Cu  Cu7  1  0.61746872  0.72397193  0.47689632  1  1.078058  0.544742  0.693246  0.772032  0.692205  2.385255  0.542
H  H8  1  0.36362577  0.24585870  0.25716966  1  0.609575  1e-06  0.334946  0.374547  3e-06  0.880495  0.0
H  H9  1  0.13636472  0.74584718  0.24282835  1  0.609649  -0.0  0.334956  0.37454  1e-06  0.880484  0.0
H  H10  1  0.63637272  0.25414126  0.25717038  1  0.609584  -1e-06  0.334957  0.374559  -3e-06  0.880466  0.0
H  H11  1  0.86363360  0.75415367  0.24282931  1  0.60962  -1e-06  0.33497  0.374581  -4e-06  0.880416  0.0
H  H12  1  0.63637101  0.75413062  0.74283221  1  0.609765  -0.0  0.335044  0.374723  -3e-06  0.880211  0.0
H  H13  1  0.86363817  0.25415862  0.75717788  1  0.609463  -0.0  0.335065  0.374781  -3e-06  0.880228  0.0
H  H14  1  0.36362813  0.74586750  0.74282991  1  0.609854  0.0  0.335035  0.37469  -2e-06  0.880211  0.0
H  H15  1  0.13637029  0.24584071  0.75717613  1  0.609477  0.0  0.335032  0.374736  3e-06  0.880331  0.0
H  H16  1  0.18483167  0.68685637  0.34528763  1  0.121542  -0.000221  0.107837  0.120468  -0.000197  1.023289  0.0
H  H17  1  0.31529245  0.18689237  0.15468605  1  0.119401  -0.000221  0.107792  0.120329  -0.000197  1.023481  0.0
H  H18  1  0.81517737  0.81314479  0.34528719  1  0.121414  0.000221  0.107792  0.120404  0.000194  1.023321  0.0
H  H19  1  0.68470345  0.31311066  0.15468530  1  0.119378  0.000221  0.107831  0.120392  0.000194  1.023418  0.0
H  H20  1  0.81518137  0.31314689  0.65470671  1  0.12142  0.000221  0.107801  0.120419  0.000194  1.023357  0.0
H  H21  1  0.68427431  0.81310028  0.84502211  1  0.121728  0.000258  0.107716  0.120671  0.000197  1.023493  0.0
H  H22  1  0.18481128  0.18685298  0.65470597  1  0.121299  -0.000221  0.107808  0.120441  -0.000197  1.023305  0.0
H  H23  1  0.31572437  0.68689815  0.84502326  1  0.121751  0.000259  0.107703  0.120635  0.000198  1.023473  0.0
H  H24  1  0.57775406  0.60796145  0.35463049  1  0.093449  0.000273  0.103907  0.109195  0.000247  1.027885  0.0
H  H25  1  0.92224345  0.10789407  0.14542232  1  0.094007  0.000273  0.103747  0.108893  0.000247  1.028134  0.0
H  H26  1  0.42225189  0.89203509  0.35463092  1  0.093398  -0.000271  0.10389  0.109196  -0.000251  1.027906  0.0
H  H27  1  0.07775553  0.39210640  0.14542099  1  0.094031  -0.000273  0.103761  0.108901  -0.000251  1.028171  0.0
H  H28  1  0.42231797  0.39206846  0.64539635  1  0.092363  -0.000273  0.103715  0.109096  -0.000251  1.028003  0.0
H  H29  1  0.07730607  0.89215016  0.85450425  1  0.0954  0.00036  0.103653  0.109236  0.000291  1.028017  0.0
H  H30  1  0.57768591  0.10794153  0.64539474  1  0.092337  0.000272  0.103695  0.108999  0.000247  1.028015  0.0
H  H31  1  0.92269461  0.60784703  0.85450478  1  0.095439  0.00036  0.103645  0.109236  0.000291  1.027991  0.0
H  H32  1  0.52214835  0.54792166  0.27644837  1  0.051277  -0.000157  0.101065  0.108003  -8e-05  1.026686  0.0
H  H33  1  0.97778617  0.04788895  0.22359596  1  0.050412  -0.000155  0.101137  0.108165  -7.8e-05  1.02703  0.0
H  H34  1  0.47785083  0.95207295  0.27644892  1  0.050702  0.000157  0.101023  0.10795  7.9e-05  1.026602  0.0
H  H35  1  0.02221552  0.45211133  0.22359562  1  0.05038  0.000167  0.101152  0.108179  8.6e-05  1.026992  0.0
H  H36  1  0.47790638  0.45207780  0.72358085  1  0.091621  0.000155  0.101109  0.108123  8e-05  1.026732  0.0
H  H37  1  0.02190062  0.95220475  0.77625292  1  0.090483  0.000183  0.101307  0.10857  8.5e-05  1.026321  0.0
H  H38  1  0.52210224  0.04792777  0.72357595  1  0.091804  -0.000153  0.101046  0.108044  -8e-05  1.02665  0.0
H  H39  1  0.97810142  0.54779600  0.77625207  1  0.090493  0.000193  0.101308  0.108557  9.2e-05  1.026347  0.0
H  H40  1  0.32465216  0.70237694  0.10819954  1  0.077935  0.000457  0.110932  0.12088  0.000347  0.982317  0.0
H  H41  1  0.17540412  0.20250617  0.39186733  1  0.081815  -0.000347  0.110907  0.120778  -0.000295  0.983004  0.0
H  H42  1  0.67535387  0.79762352  0.10819836  1  0.077977  0.000459  0.110945  0.120877  0.000348  0.982358  0.0
H  H43  1  0.82458564  0.29749503  0.39186922  1  0.081904  0.000347  0.110956  0.120815  0.00029  0.983041  0.0
H  H44  1  0.67529266  0.29745382  0.89185466  1  0.080298  0.000347  0.110963  0.120776  0.000291  0.983085  0.0
H  H45  1  0.82457334  0.79748653  0.60814207  1  0.081875  0.000347  0.110942  0.120954  0.00029  0.982822  0.0
H  H46  1  0.32471012  0.20254422  0.89185425  1  0.080337  -0.000347  0.110986  0.120792  -0.000295  0.983114  0.0
H  H47  1  0.17543148  0.70251246  0.60813820  1  0.08194  -0.000345  0.110951  0.120965  -0.000294  0.982832  0.0
H  H48  1  0.40775272  0.64294673  0.18378729  1  0.068206  0.000207  0.107077  0.118457  0.000101  0.991497  0.0
H  H49  1  0.09238676  0.14308545  0.31633610  1  0.070605  0.000172  0.107066  0.118368  9e-05  0.991194  0.0
H  H50  1  0.59225399  0.85705395  0.18378751  1  0.06829  0.00021  0.107065  0.118399  0.000105  0.991478  0.0
H  H51  1  0.90760638  0.35691172  0.31633690  1  0.070676  -0.000172  0.107041  0.118281  -9.1e-05  0.991139  0.0
H  H52  1  0.59233339  0.35686629  0.81635490  1  0.075236  -0.000171  0.106977  0.11829  -9.1e-05  0.991161  0.0
H  H53  1  0.90756124  0.85694317  0.68365705  1  0.071697  -0.000174  0.10719  0.118451  -9.4e-05  0.991226  0.0
H  H54  1  0.40767278  0.14313364  0.81635547  1  0.075154  0.000171  0.10703  0.118387  8.9e-05  0.991137  0.0
H  H55  1  0.09243816  0.64305604  0.68365387  1  0.071789  0.000172  0.107203  0.118449  9e-05  0.991132  0.0
H  H56  1  0.07315930  0.52796698  0.15957573  1  0.043785  0.000244  0.102479  0.110888  0.000119  1.019987  0.0
H  H57  1  0.42697010  0.02823868  0.34062901  1  0.051864  -0.00017  0.10248  0.111439  -8.7e-05  1.018699  0.0
H  H58  1  0.92684650  0.97203490  0.15957563  1  0.043701  0.000242  0.102479  0.110879  0.000115  1.019911  0.0
H  H59  1  0.57302599  0.47176491  0.34063113  1  0.051758  0.00017  0.102541  0.111509  8.6e-05  1.018657  0.0
H  H60  1  0.92709757  0.47181055  0.84065127  1  0.052201  0.000172  0.102544  0.111502  8.7e-05  1.018547  0.0
H  H61  1  0.57299009  0.97176670  0.65934195  1  0.051569  0.00017  0.102621  0.111741  8.5e-05  1.018361  0.0
H  H62  1  0.07290849  0.02818861  0.84065098  1  0.052183  -0.00017  0.102524  0.111462  -9.1e-05  1.018608  0.0
H  H63  1  0.42701857  0.52823329  0.65934102  1  0.051648  -0.00017  0.102576  0.11167  -8.8e-05  1.018378  0.0
H  H64  1  0.99098855  0.58798116  0.08496707  1  0.091995  0.00033  0.105884  0.109132  0.000249  1.009968  0.0
H  H65  1  0.50873643  0.08821394  0.41529180  1  0.090794  0.000257  0.105832  0.109123  0.000218  1.010116  0.0
H  H66  1  0.00901148  0.91202092  0.08496623  1  0.091948  0.00033  0.105866  0.109158  0.000249  1.00999  0.0
H  H67  1  0.49125525  0.41178902  0.41529263  1  0.09066  -0.000257  0.105822  0.109052  -0.000222  1.010074  0.0
H  H68  1  0.00882105  0.41183859  0.91527857  1  0.09069  -0.000256  0.105901  0.109114  -0.000221  1.010001  0.0
H  H69  1  0.49117087  0.91176352  0.58468391  1  0.089987  -0.000257  0.105812  0.10904  -0.000222  1.010154  0.0
H  H70  1  0.99118467  0.08816163  0.91527742  1  0.090477  0.000255  0.105859  0.109086  0.000217  1.010099  0.0
H  H71  1  0.50884015  0.58823751  0.58468269  1  0.090023  0.000257  0.105823  0.109023  0.000218  1.010077  0.0
H  H72  1  0.33501277  0.48809435  0.13515599  1  0.053541  -7e-06  0.101657  0.108894  -4e-06  1.024674  0.0
H  H73  1  0.16500292  0.98809597  0.36487358  1  0.052669  1e-06  0.101708  0.108788  1e-06  1.024625  0.0
H  H74  1  0.66498016  0.01190312  0.13515803  1  0.053516  -8e-06  0.101624  0.108838  -6e-06  1.024769  0.0
H  H75  1  0.83499892  0.51190525  0.36487511  1  0.052657  -1e-06  0.101743  0.108768  -1e-06  1.024688  0.0
H  H76  1  0.66501552  0.51190088  0.86489067  1  0.052624  -1e-06  0.101636  0.108704  -1e-06  1.024618  0.0
H  H77  1  0.83502947  0.01193689  0.63510293  1  0.052836  -0.0  0.101787  0.10888  -1e-06  1.024548  0.0
H  H78  1  0.33499222  0.98809845  0.86488705  1  0.052395  1e-06  0.101657  0.108796  0.0  1.024651  0.0
H  H79  1  0.16496937  0.48806292  0.63510100  1  0.066581  1e-06  0.101803  0.108932  0.0  1.024485  0.0
H  H80  1  0.36368820  0.38374522  0.13387876  1  0.144327  -6e-06  0.106641  0.106703  -6e-06  1.022796  0.0
H  H81  1  0.13630563  0.88373701  0.36612358  1  0.14436  -5e-06  0.10666  0.106663  -6e-06  1.022922  0.0
H  H82  1  0.63630270  0.11625225  0.13387950  1  0.144272  5e-06  0.10666  0.106758  5e-06  1.022819  0.0
H  H83  1  0.86368807  0.61626548  0.36612537  1  0.144533  5e-06  0.106625  0.106578  6e-06  1.022907  0.0
H  H84  1  0.63632891  0.61624663  0.86612312  1  0.143693  4e-06  0.106593  0.106567  3e-06  1.022956  0.0
H  H85  1  0.86371762  0.11632122  0.63386244  1  0.137813  5e-06  0.106594  0.106756  6e-06  1.022798  0.0
H  H86  1  0.36367273  0.88375355  0.86611960  1  0.143817  4e-06  0.106624  0.10674  3e-06  1.022902  0.0
H  H87  1  0.13627614  0.38367986  0.63386065  1  0.137697  -6e-06  0.106675  0.106868  -7e-06  1.02279  0.0
H  H88  1  0.31680271  0.37869511  0.30347987  1  0.088619  -1e-06  0.108674  0.114931  1e-06  0.991421  0.0
H  H89  1  0.18320041  0.87874963  0.19654426  1  0.089699  -4e-06  0.108694  0.115191  -5e-06  0.991483  0.0
H  H90  1  0.68320167  0.12130540  0.30347980  1  0.088651  1e-06  0.108666  0.114919  -0.0  0.991409  0.0
H  H91  1  0.81680929  0.62125194  0.19654648  1  0.089749  -4e-06  0.108701  0.115201  -5e-06  0.991432  0.0
H  H92  1  0.68319402  0.62123754  0.69654539  1  0.089679  1e-06  0.108635  0.115095  -0.0  0.991547  0.0
H  H93  1  0.81681771  0.12124857  0.80345642  1  0.089753  2e-06  0.108669  0.115108  -0.0  0.991488  0.0
H  H94  1  0.31680838  0.87876297  0.69654229  1  0.089905  -2e-06  0.108646  0.11503  0.0  0.991578  0.0
H  H95  1  0.18318546  0.37875260  0.80345539  1  0.089823  -1e-06  0.108681  0.11512  -0.0  0.991514  0.0
H  H96  1  0.28601648  0.48249437  0.30522719  1  0.094017  -0.0  0.104776  0.116366  0.0  1.001571  0.0
H  H97  1  0.21399553  0.98254483  0.19478849  1  0.094492  1e-06  0.104954  0.116588  1e-06  1.001413  0.0
H  H98  1  0.71398789  0.01750615  0.30522762  1  0.093997  0.0  0.104783  0.116369  -1e-06  1.001591  0.0
H  H99  1  0.78601621  0.51745673  0.19478888  1  0.094664  1e-06  0.104953  0.116538  0.0  1.001372  0.0
H  H100  1  0.71400061  0.51746493  0.69479807  1  0.094739  -0.0  0.104971  0.116577  -0.0  1.001383  0.0
H  H101  1  0.78600735  0.01744871  0.80517731  1  0.09419  -0.0  0.104842  0.116249  -1e-06  1.001474  0.0
H  H102  1  0.28600790  0.98253559  0.69479526  1  0.094643  1e-06  0.104955  0.116568  1e-06  1.001414  0.0
H  H103  1  0.21399582  0.48255245  0.80517455  1  0.094264  0.0  0.104831  0.116263  -0.0  1.001499  0.0
H  H104  1  0.59667897  0.71269595  0.92469876  1  0.117265  0.000138  0.120644  0.100708  5.2e-05  1.001518  0.0
H  H105  1  0.90381036  0.21258119  0.57531439  1  0.1201  7.5e-05  0.120361  0.100377  1.1e-05  1.001389  0.0
H  H106  1  0.40331732  0.78729764  0.92469932  1  0.116895  0.000138  0.120642  0.100732  5.2e-05  1.001438  0.0
H  H107  1  0.09617859  0.28742479  0.57531674  1  0.120334  -7.5e-05  0.120376  0.100474  -1.2e-05  1.001272  0.0
H  H108  1  0.40362894  0.28738515  0.07530747  1  0.119325  -7.6e-05  0.120378  0.100179  -1.2e-05  1.001861  0.0
H  H109  1  0.09618541  0.78742039  0.42468589  1  0.120088  -7.5e-05  0.120378  0.100458  -1.2e-05  1.001367  0.0
H  H110  1  0.59636426  0.21261173  0.07530612  1  0.119635  7.6e-05  0.120406  0.10028  1.1e-05  1.001848  0.0
H  H111  1  0.90380905  0.71257974  0.42468592  1  0.120356  7.5e-05  0.120391  0.100403  1.1e-05  1.001399  0.0
H  H112  1  0.38651475  0.65619686  0.93554368  1  0.103708  0.000164  0.106109  0.119819  0.000178  1.033174  0.0
H  H113  1  0.11383696  0.15612728  0.56446332  1  0.103417  -8.2e-05  0.106054  0.120081  -0.000124  1.03376  0.0
H  H114  1  0.61348251  0.84379591  0.93554108  1  0.103703  0.000164  0.106128  0.11982  0.000178  1.033242  0.0
H  H115  1  0.88615000  0.34387739  0.56446093  1  0.103381  8.2e-05  0.106079  0.120162  0.000122  1.033723  0.0
H  H116  1  0.61379113  0.34389057  0.06443600  1  0.103848  8.2e-05  0.106013  0.11997  0.000122  1.034303  0.0
H  H117  1  0.88615677  0.84387345  0.43553737  1  0.103387  8.2e-05  0.106076  0.120151  0.000122  1.033731  0.0
H  H118  1  0.38620110  0.15610627  0.06443226  1  0.103799  -8.2e-05  0.106056  0.120046  -0.000124  1.034204  0.0
H  H119  1  0.11383967  0.65612671  0.43553659  1  0.103408  -8.2e-05  0.106077  0.120132  -0.000124  1.033774  0.0
H  H120  1  0.59337798  0.56323576  0.05968507  1  0.039369  7.5e-05  0.102219  0.10754  3.9e-05  1.001895  0.0
H  H121  1  0.90683803  0.06318584  0.44030182  1  0.039493  4.6e-05  0.102278  0.107715  2.4e-05  1.001783  0.0
H  H122  1  0.40663335  0.93676074  0.05968007  1  0.03953  7.5e-05  0.102233  0.107579  3.9e-05  1.001936  0.0
H  H123  1  0.09316371  0.43681551  0.44030140  1  0.039415  -4.6e-05  0.102294  0.107721  -2.4e-05  1.001759  0.0
H  H124  1  0.40691873  0.43681616  0.94032037  1  0.039516  -4.6e-05  0.102267  0.107621  -2.4e-05  1.001777  0.0
H  H125  1  0.09315774  0.93681573  0.55969846  1  0.039533  -4.6e-05  0.102278  0.107674  -2.4e-05  1.001854  0.0
H  H126  1  0.59309095  0.06318372  0.94031585  1  0.039442  4.6e-05  0.102319  0.107726  2.4e-05  1.001855  0.0
H  H127  1  0.90684120  0.56318480  0.55969850  1  0.039605  4.6e-05  0.102271  0.107677  2.4e-05  1.001844  0.0
H  H128  1  0.79211319  0.62761727  0.04571563  1  0.108228  0.000205  0.112431  0.087219  0.000131  1.024654  0.0
H  H129  1  0.70820945  0.12753718  0.45426708  1  0.107224  0.000126  0.112634  0.087649  6.9e-05  1.02475  0.0
H  H130  1  0.20788905  0.87238215  0.04571694  1  0.107787  0.000205  0.112423  0.087213  0.000131  1.024655  0.0
H  H131  1  0.29178511  0.37246294  0.45426912  1  0.107012  -0.000126  0.112641  0.087704  -7.1e-05  1.02477  0.0
H  H132  1  0.20812353  0.37241731  0.95429893  1  0.109075  -0.000127  0.112765  0.087852  -7.1e-05  1.024638  0.0
H  H133  1  0.29178326  0.87246270  0.54573480  1  0.107252  -0.000126  0.112631  0.087678  -7.1e-05  1.024767  0.0
H  H134  1  0.79187999  0.12758388  0.95429921  1  0.109018  0.000126  0.112776  0.087884  6.9e-05  1.024661  0.0
H  H135  1  0.70821371  0.62753695  0.54573394  1  0.107221  0.000126  0.112651  0.087666  6.9e-05  1.024761  0.0
H  H136  1  0.37177764  0.53356941  0.03732858  1  0.025169  0.0  0.096813  0.092741  1e-06  1.020217  0.0
H  H137  1  0.12822311  0.03353537  0.46264668  1  0.024331  3e-06  0.096938  0.093115  2e-06  1.020235  0.0
H  H138  1  0.62822667  0.96642702  0.03731994  1  0.025492  -1e-06  0.096793  0.092692  0.0  1.020339  0.0
H  H139  1  0.87176837  0.46646774  0.46264304  1  0.024308  -3e-06  0.096916  0.093105  -2e-06  1.020186  0.0
H  H140  1  0.62836557  0.46648756  0.96266101  1  0.024615  -3e-06  0.097102  0.093196  -2e-06  1.02036  0.0
H  H141  1  0.87177469  0.96646663  0.53735598  1  0.024297  -3e-06  0.096899  0.093076  -2e-06  1.020254  0.0
H  H142  1  0.37163893  0.03350900  0.96265498  1  0.024743  2e-06  0.097019  0.093127  2e-06  1.020387  0.0
H  H143  1  0.12822537  0.53353595  0.53735289  1  0.024323  3e-06  0.096938  0.093128  2e-06  1.02028  0.0
H  H144  1  0.21797862  0.47108061  0.04175633  1  0.051587  -2e-06  0.097981  0.096598  -1e-06  1.019725  0.0
H  H145  1  0.28203681  0.97104962  0.45820700  1  0.049438  -2e-06  0.097855  0.096309  -2e-06  1.019668  0.0
H  H146  1  0.78202489  0.02891320  0.04175318  1  0.051406  4e-06  0.09799  0.096602  2e-06  1.019737  0.0
H  H147  1  0.71796258  0.52895187  0.45820667  1  0.049474  2e-06  0.09786  0.096341  2e-06  1.019669  0.0
H  H148  1  0.78207611  0.52891336  0.95825585  1  0.05163  2e-06  0.097941  0.096561  1e-06  1.019829  0.0
H  H149  1  0.71796201  0.02895195  0.54179408  1  0.049453  2e-06  0.097865  0.096327  2e-06  1.019677  0.0
H  H150  1  0.21792919  0.97108033  0.95825424  1  0.052031  3e-06  0.097935  0.096547  1e-06  1.019774  0.0
H  H151  1  0.28204030  0.47105139  0.54179085  1  0.049521  -2e-06  0.097881  0.096396  -2e-06  1.019688  0.0
H  H152  1  0.01256421  0.41510805  0.05739012  1  0.087784  2.1e-05  0.100554  0.106954  1.9e-05  1.042767  0.0
H  H153  1  0.48729323  0.91511643  0.44260318  1  0.087732  2.1e-05  0.100588  0.106977  1.9e-05  1.042756  0.0
H  H154  1  0.98743821  0.08488538  0.05738857  1  0.088015  -2.1e-05  0.100546  0.107037  -1.8e-05  1.04267  0.0
H  H155  1  0.51270826  0.58488291  0.44260234  1  0.087643  -2.1e-05  0.100617  0.107073  -1.9e-05  1.042838  0.0
H  H156  1  0.98743156  0.58489901  0.94262285  1  0.088131  -4.5e-05  0.1006  0.107384  -3.2e-05  1.042879  0.0
H  H157  1  0.51270660  0.08488261  0.55739869  1  0.087672  -2.1e-05  0.10058  0.107  -1.9e-05  1.042819  0.0
H  H158  1  0.01257482  0.91509421  0.94262083  1  0.087875  -4.4e-05  0.100607  0.107293  -3.1e-05  1.042923  0.0
H  H159  1  0.48728751  0.41511739  0.55739834  1  0.087729  2.1e-05  0.100606  0.107023  1.9e-05  1.042716  0.0
H  H160  1  0.12753086  0.62615091  0.26705557  1  0.056389  0.000176  0.099648  0.106419  8.9e-05  1.028608  0.0
H  H161  1  0.37258220  0.12621607  0.23290646  1  0.055225  0.00018  0.099679  0.106506  9.3e-05  1.028441  0.0
H  H162  1  0.87247548  0.87385086  0.26705485  1  0.056395  -0.000181  0.099708  0.106516  -9.5e-05  1.028534  0.0
H  H163  1  0.62741843  0.37378508  0.23290749  1  0.055226  -0.00018  0.099667  0.106486  -9.4e-05  1.028463  0.0
H  H164  1  0.87252689  0.37382403  0.73295146  1  0.055695  -0.000179  0.099717  0.106558  -9.3e-05  1.028361  0.0
H  H165  1  0.62718497  0.87397996  0.76684134  1  0.04874  0.000255  0.100196  0.106797  0.000119  1.028174  0.0
H  H166  1  0.12746948  0.12617565  0.73295059  1  0.055652  0.00018  0.099737  0.106591  9.2e-05  1.028387  0.0
H  H167  1  0.37281407  0.62602203  0.76683991  1  0.048745  0.000257  0.100202  0.106786  0.000121  1.028151  0.0
H  H168  1  0.22149995  0.60127386  0.95116636  1  0.052536  -2.1e-05  0.101266  0.100227  -1.1e-05  1.031347  0.0
H  H169  1  0.27867895  0.10121240  0.54884248  1  0.051406  1e-05  0.101248  0.100054  -7e-06  1.031362  0.0
H  H170  1  0.77850640  0.89872277  0.95115864  1  0.052717  -2.1e-05  0.101244  0.100184  -1e-05  1.031292  0.0
H  H171  1  0.72132129  0.39879138  0.54884311  1  0.051506  -1e-05  0.10126  0.100051  7e-06  1.031348  0.0
H  H172  1  0.77851820  0.39875393  0.04884621  1  0.05253  -1e-05  0.101175  0.099875  7e-06  1.031731  0.0
H  H173  1  0.72131987  0.89878959  0.45115821  1  0.051395  -1.1e-05  0.101264  0.100082  7e-06  1.031269  0.0
H  H174  1  0.22148629  0.10124202  0.04884086  1  0.052326  1e-05  0.101151  0.099844  -7e-06  1.03173  0.0
H  H175  1  0.27867956  0.60121315  0.45115757  1  0.051389  1e-05  0.101277  0.100133  -8e-06  1.031332  0.0
C  C176  1  0.42019007  0.68539893  0.40236995  1  1.534212  0.00046  0.209131  0.560775  0.000438  4.187802  0.001
C  C177  1  0.07983034  0.18539660  0.09764535  1  1.535987  0.000475  0.208866  0.560432  0.000449  4.188694  0.001
C  C178  1  0.57982278  0.81460029  0.40237086  1  1.534311  -0.000471  0.208961  0.560472  -0.000537  4.188489  -0.001
C  C179  1  0.92016072  0.31460287  0.09764405  1  1.535914  -0.000476  0.208842  0.560415  -0.000544  4.18863  -0.001
C  C180  1  0.57980875  0.31461575  0.59763747  1  1.534221  -0.000464  0.208849  0.560552  -0.000534  4.188129  -0.001
C  C181  1  0.92025601  0.81476649  0.90211633  1  1.536386  -0.001441  0.208461  0.560207  0.001086  4.186734  -0.004
C  C182  1  0.42018213  0.18539198  0.59763855  1  1.534491  0.000465  0.209002  0.560566  0.000441  4.188072  0.001
C  C183  1  0.07974140  0.68523253  0.90211684  1  1.536566  -0.001444  0.208464  0.560145  0.001085  4.186815  -0.004
C  C184  1  0.38332758  0.64967364  0.35572259  1  -0.085909  -0.000214  -0.020247  -0.039473  -0.000158  3.966514  0.0
C  C185  1  0.11670525  0.14967604  0.14428904  1  -0.086905  -0.000209  -0.020247  -0.039447  -0.000154  3.966815  0.0
C  C186  1  0.61668039  0.85032333  0.35572357  1  -0.086398  0.000154  -0.020237  -0.039368  7.3e-05  3.966552  0.0
C  C187  1  0.88329577  0.35032400  0.14428825  1  -0.086892  0.00021  -0.020224  -0.039446  0.000109  3.966789  0.0
C  C188  1  0.61670173  0.35033217  0.64428483  1  -0.08696  0.000205  -0.020315  -0.039526  0.000107  3.966796  0.0
C  C189  1  0.88296926  0.85030139  0.85547700  1  -0.083479  0.015531  -0.021208  -0.040896  0.010758  3.967945  0.012
C  C190  1  0.38329606  0.14967401  0.64428504  1  -0.08724  -0.000206  -0.020249  -0.039484  -0.000152  3.966741  0.0
C  C191  1  0.11702938  0.64969749  0.85547778  1  -0.08362  0.015494  -0.021235  -0.040916  0.010733  3.967943  0.012
C  C192  1  0.25668510  0.65539784  0.33079450  1  -0.040821  0.000976  -0.083427  -0.082224  0.00061  3.967758  0.001
C  C193  1  0.24338620  0.15543317  0.16919059  1  -0.011201  0.000975  -0.083206  -0.081867  0.000614  3.967497  0.001
C  C194  1  0.74332095  0.84460031  0.33079380  1  -0.040368  -0.000972  -0.08336  -0.082036  -0.000627  3.967722  -0.001
C  C195  1  0.75661370  0.34456948  0.16918948  1  -0.011307  -0.000973  -0.083107  -0.081742  -0.000633  3.967497  -0.001
C  C196  1  0.74333607  0.34459866  0.66921133  1  -0.041138  -0.000979  -0.083425  -0.082087  -0.000632  3.967721  -0.001
C  C197  1  0.75627714  0.84456033  0.83056752  1  -0.011064  0.001284  -0.083124  -0.082967  0.000917  3.968444  0.001
C  C198  1  0.25665652  0.15540379  0.66921046  1  -0.041017  0.000979  -0.083417  -0.082095  0.000612  3.967555  0.001
C  C199  1  0.24372060  0.65543932  0.83056824  1  -0.011075  0.001296  -0.083129  -0.082962  0.000925  3.968483  0.001
C  C200  1  0.47821555  0.61067398  0.33604104  1  -0.014405  -0.000622  -0.08281  -0.075871  -0.000357  3.976791  -0.001
C  C201  1  0.02180176  0.11064740  0.16399387  1  -0.012796  -0.000621  -0.082771  -0.075647  -0.000355  3.977351  -0.001
C  C202  1  0.52178845  0.88932292  0.33604179  1  -0.01384  0.000642  -0.082844  -0.076082  0.000352  3.976764  0.001
C  C203  1  0.97819918  0.38935227  0.16399392  1  -0.012826  0.000625  -0.082749  -0.075576  0.000342  3.977334  0.001
C  C204  1  0.52184426  0.38933267  0.66398461  1  -0.011471  0.000627  -0.082804  -0.076107  0.000343  3.977198  0.001
C  C205  1  0.97781080  0.88940909  0.83586927  1  -0.015112  0.001136  -0.082963  -0.075896  0.000835  3.977572  0.001
C  C206  1  0.47815750  0.11067315  0.66398307  1  -0.011276  -0.000627  -0.082689  -0.075742  -0.00036  3.97679  -0.001
C  C207  1  0.02218692  0.61059100  0.83586764  1  -0.015036  0.001147  -0.082924  -0.07588  0.000842  3.977509  0.001
C  C208  1  0.44722844  0.57723459  0.29248890  1  -0.01032  -0.000623  -0.09626  -0.178405  -0.000459  3.99748  0.0
C  C209  1  0.05274755  0.07723626  0.20756337  1  -0.007124  -0.000621  -0.096176  -0.178358  -0.000459  3.997178  0.0
C  C210  1  0.55277169  0.92276134  0.29248853  1  -0.009983  0.000589  -0.096193  -0.178185  0.000434  3.997221  0.0
C  C211  1  0.94725116  0.42276566  0.20756114  1  -0.00712  0.000633  -0.096254  -0.178431  0.000463  3.997259  0.0
C  C212  1  0.55281306  0.42274289  0.70756252  1  -0.04674  0.000626  -0.096123  -0.178323  0.000454  3.996712  0.0
C  C213  1  0.94703781  0.92281264  0.79228709  1  -0.04514  0.000811  -0.095616  -0.178301  0.000476  3.997166  0.001
C  C214  1  0.44718852  0.07726263  0.70755972  1  -0.04697  -0.000624  -0.096165  -0.178469  -0.00046  3.996693  0.0
C  C215  1  0.05296314  0.57718774  0.79228535  1  -0.045358  0.00079  -0.095625  -0.178272  0.000464  3.997266  0.001
C  C216  1  0.10034670  0.68577363  0.04899981  1  1.5538  -0.001169  0.210312  0.572756  0.001165  4.177916  -0.004
C  C217  1  0.39974653  0.18593387  0.45128026  1  1.542169  0.000262  0.210781  0.57224  6.4e-05  4.179356  0.001
C  C218  1  0.89965248  0.81422749  0.04899733  1  1.553617  -0.001171  0.210311  0.572743  0.001163  4.178059  -0.004
C  C219  1  0.60024296  0.31406497  0.45127917  1  1.5423  -0.000262  0.210654  0.572304  -0.000157  4.179471  -0.001
C  C220  1  0.89973333  0.31405630  0.95126247  1  1.542881  -0.000255  0.210722  0.572774  -0.00015  4.178491  -0.001
C  C221  1  0.60023703  0.81405332  0.54871607  1  1.542255  -0.00026  0.210787  0.57215  -0.000155  4.179101  -0.001
C  C222  1  0.10026513  0.18594403  0.95126218  1  1.542421  0.000253  0.210706  0.572699  5.7e-05  4.178465  0.001
C  C223  1  0.39976705  0.68594845  0.54871518  1  1.542748  0.000264  0.210817  0.572305  6.4e-05  4.178811  0.001
C  C224  1  0.15188920  0.64912087  0.09268266  1  -0.017154  0.0149  -0.02003  -0.038226  0.010412  3.967829  0.012
C  C225  1  0.34802101  0.14929992  0.40751606  1  -0.024352  0.000124  -0.01836  -0.034513  4.9e-05  3.96325  0.0
C  C226  1  0.84811487  0.85088038  0.09268110  1  -0.017603  0.014816  -0.01998  -0.038017  0.010359  3.967578  0.012
C  C227  1  0.65196970  0.35070175  0.40751622  1  -0.024391  -0.000125  -0.0183  -0.034602  -8.9e-05  3.963305  0.0
C  C228  1  0.84801699  0.35069889  0.90751383  1  -0.024284  -0.000121  -0.01832  -0.034799  -8.6e-05  3.963057  0.0
C  C229  1  0.65194324  0.85069404  0.59247789  1  -0.022017  8e-06  -0.018172  -0.034029  -2e-06  3.963217  0.0
C  C230  1  0.15198878  0.14930047  0.90751261  1  -0.02394  0.000123  -0.018428  -0.034908  4.7e-05  3.963145  0.0
C  C231  1  0.34806369  0.64930490  0.59247535  1  -0.022912  0.000175  -0.018139  -0.034059  8.3e-05  3.963017  0.0
C  C232  1  0.27019095  0.66434964  0.12019825  1  0.010293  0.000579  -0.079416  -0.06952  0.000469  3.973138  0.0
C  C233  1  0.22985525  0.16449821  0.37991371  1  0.013482  0.000707  -0.080163  -0.071189  0.000395  3.973651  0.001
C  C234  1  0.72981401  0.83565042  0.12019633  1  0.010289  0.000603  -0.079526  -0.069705  0.000484  3.973152  0.0
C  C235  1  0.77013456  0.33550254  0.37991454  1  0.01358  -0.000707  -0.080353  -0.071413  -0.000411  3.973871  -0.001
C  C236  1  0.72981080  0.33548028  0.87991580  1  0.013573  -0.000705  -0.080413  -0.071366  -0.000409  3.973761  -0.001
C  C237  1  0.77012323  0.83550421  0.62007667  1  0.013404  -0.000745  -0.080466  -0.072013  -0.000435  3.974141  -0.001
C  C238  1  0.27019407  0.16451858  0.87991533  1  0.013513  0.000706  -0.08034  -0.07122  0.000394  3.973832  0.001
C  C239  1  0.22987849  0.66449566  0.62007346  1  0.013425  0.000692  -0.080404  -0.071959  0.000385  3.973907  0.001
C  C240  1  0.31649947  0.63118809  0.16186519  1  -0.027651  0.00094  -0.096647  -0.181693  0.000543  4.00082  0.001
C  C241  1  0.18359012  0.13129586  0.33824549  1  -0.030815  0.000537  -0.096269  -0.180615  0.000398  3.999574  0.0
C  C242  1  0.68350429  0.86881252  0.16186379  1  -0.027508  0.000863  -0.096585  -0.181556  0.000493  4.000689  0.001
C  C243  1  0.81640292  0.36870476  0.33824717  1  -0.030816  -0.000537  -0.096217  -0.180392  -0.000404  3.999463  0.0
C  C244  1  0.68355517  0.36868834  0.83826154  1  -0.034439  -0.000537  -0.096222  -0.180573  -0.000404  3.999644  0.0
C  C245  1  0.81642397  0.86874123  0.66171001  1  -0.030181  -0.000414  -0.096297  -0.180457  -0.000322  3.999683  0.0
C  C246  1  0.31644988  0.13131039  0.83826135  1  -0.034396  0.000537  -0.096364  -0.180858  0.000398  3.99987  0.0
C  C247  1  0.18358265  0.63125750  0.66170793  1  -0.029939  0.000584  -0.096285  -0.180397  0.000429  3.999698  0.0
C  C248  1  0.24522144  0.58211463  0.17643907  1  0.282208  -0.001018  0.091959  0.178774  -0.000699  4.039363  -0.001
C  C249  1  0.25480818  0.08224405  0.32366871  1  0.277315  0.000137  0.091694  0.178389  9.2e-05  4.038667  0.0
C  C250  1  0.75478225  0.91788518  0.17643894  1  0.282177  -0.001021  0.091951  0.178794  -0.000706  4.039286  -0.001
C  C251  1  0.74518798  0.41775652  0.32366819  1  0.27757  -0.000136  0.091684  0.178306  -9.4e-05  4.038535  0.0
C  C252  1  0.75482812  0.41776603  0.82369123  1  0.278396  -0.000136  0.091668  0.178259  -9.4e-05  4.038211  0.0
C  C253  1  0.74518355  0.91780276  0.67623288  1  0.277078  -0.000114  0.091794  0.178343  -7.5e-05  4.039217  0.0
C  C254  1  0.24517903  0.08223223  0.82368977  1  0.277895  0.000136  0.091736  0.178397  9.2e-05  4.038272  0.0
C  C255  1  0.25481588  0.58219812  0.67623102  1  0.276852  0.000158  0.091683  0.178263  0.000105  4.03936  0.0
C  C256  1  0.12848464  0.56604553  0.14827701  1  -0.037836  0.001057  -0.095006  -0.177475  0.000638  3.992789  0.001
C  C257  1  0.37149121  0.06625286  0.35187393  1  -0.036222  -0.000598  -0.094652  -0.177631  -0.000418  3.99242  0.0
C  C258  1  0.87151816  0.93395546  0.14827645  1  0.033743  0.000961  -0.095031  -0.177529  0.000585  3.992853  0.001
C  C259  1  0.62850381  0.43374992  0.35187433  1  -0.036471  0.000598  -0.094638  -0.177617  0.000411  3.992342  0.0
C  C260  1  0.87154658  0.43377932  0.85189055  1  -0.037373  0.000598  -0.094599  -0.177659  0.000412  3.99212  0.0
C  C261  1  0.62848729  0.93377662  0.64805620  1  -0.070093  0.000714  -0.094735  -0.17809  0.000483  3.993337  0.001
C  C262  1  0.12845536  0.06622030  0.85188873  1  -0.037177  -0.000599  -0.094512  -0.177462  -0.000419  3.992113  0.0
C  C263  1  0.37151939  0.56622375  0.64805581  1  -0.070155  -0.000576  -0.094758  -0.178068  -0.000398  3.993077  0.0
C  C264  1  0.08223844  0.59965567  0.10683559  1  0.039426  0.000588  -0.079951  -0.071647  0.000481  3.976296  0.001
C  C265  1  0.41761023  0.09985091  0.39336299  1  0.039048  -0.000898  -0.080519  -0.072709  -0.000591  3.976956  -0.001
C  C266  1  0.91776455  0.90034689  0.10683492  1  -0.031819  0.000631  -0.079923  -0.071698  0.000497  3.976446  0.001
C  C267  1  0.58238054  0.40015071  0.39336214  1  0.039023  0.000898  -0.080436  -0.072474  0.000575  3.976703  0.001
C  C268  1  0.91765555  0.40017423  0.89336367  1  0.039658  0.000899  -0.080459  -0.072469  0.000576  3.976494  0.001
C  C269  1  0.58232251  0.90014473  0.60660757  1  0.072756  0.000859  -0.080302  -0.072417  0.000555  3.976997  0.001
C  C270  1  0.08235028  0.09982508  0.89336276  1  0.040253  -0.000897  -0.08046  -0.072569  -0.000591  3.976742  -0.001
C  C271  1  0.41768232  0.59985383  0.60660445  1  0.072912  -0.000894  -0.080256  -0.072327  -0.000594  3.976775  -0.001
C  C272  1  0.30744506  0.49262097  0.22028395  1  0.349548  -7e-06  0.106327  0.204388  -1.3e-05  4.029168  0.0
C  C273  1  0.19261050  0.99269362  0.27975435  1  0.352396  -3e-06  0.106545  0.204724  -6e-06  4.028104  0.0
C  C274  1  0.69255461  0.00737887  0.22028596  1  0.349526  -3.8e-05  0.106363  0.204512  -2.7e-05  4.02919  0.0
C  C275  1  0.80738867  0.50730819  0.27975628  1  0.352477  6e-06  0.106629  0.204689  6e-06  4.028081  0.0
C  C276  1  0.69264824  0.50730662  0.77977262  1  0.351461  7e-06  0.106481  0.204506  8e-06  4.027538  0.0
C  C277  1  0.80734159  0.00735530  0.72019600  1  0.348962  1e-06  0.106426  0.203914  -1e-06  4.029386  0.0
C  C278  1  0.30735582  0.99269287  0.77976942  1  0.351395  -3e-06  0.106566  0.204787  -6e-06  4.027433  0.0
C  C279  1  0.19265484  0.49264477  0.72019605  1  0.348952  -3.2e-05  0.10638  0.203952  -2.2e-05  4.029356  0.0
C  C280  1  0.32973005  0.46396295  0.17188902  1  0.000433  -6.6e-05  -0.101112  -0.192525  -4e-05  3.983017  0.0
C  C281  1  0.17031314  0.96398221  0.32813137  1  -0.003725  -2.7e-05  -0.101333  -0.192669  -1.4e-05  3.983068  0.0
C  C282  1  0.67026475  0.03603548  0.17189072  1  0.000501  7.6e-05  -0.101099  -0.192601  4.5e-05  3.98325  0.0
C  C283  1  0.82968378  0.53601974  0.32813376  1  -0.003737  2.7e-05  -0.10137  -0.192579  1.4e-05  3.983075  0.0
C  C284  1  0.67034499  0.53601242  0.82814575  1  -0.004249  3.5e-05  -0.101234  -0.192718  1.7e-05  3.982716  0.0
C  C285  1  0.82966843  0.03606164  0.67183483  1  -0.000536  3.4e-05  -0.10117  -0.192457  1.8e-05  3.983608  0.0
C  C286  1  0.32966394  0.96398765  0.82814207  1  -0.003741  -1.9e-05  -0.101337  -0.192985  -1.6e-05  3.983047  0.0
C  C287  1  0.17032314  0.46393828  0.67183324  1  -0.014121  0.000118  -0.101206  -0.192557  7.9e-05  3.983552  0.0
C  C288  1  0.34578723  0.40580524  0.17117112  1  -0.066341  9e-06  -0.076634  -0.060021  1.2e-05  3.981751  0.0
C  C289  1  0.15423520  0.90581390  0.32884000  1  -0.067523  6e-06  -0.076701  -0.060092  1e-05  3.982181  0.0
C  C290  1  0.65420453  0.09419276  0.17117180  1  -0.066226  -2.2e-05  -0.076626  -0.059941  -2e-05  3.981754  0.0
C  C291  1  0.84576883  0.59418848  0.32884094  1  -0.066546  -5e-06  -0.076643  -0.059995  -9e-06  3.982006  0.0
C  C292  1  0.65424817  0.59417477  0.82884344  1  -0.06599  -8e-06  -0.076278  -0.05922  -1.4e-05  3.981384  0.0
C  C293  1  0.84579719  0.09422235  0.67113770  1  -0.060367  -1.1e-05  -0.076509  -0.060115  -1.3e-05  3.981696  0.0
C  C294  1  0.34575771  0.90582572  0.82883999  1  -0.066107  1.7e-05  -0.076338  -0.059444  3e-06  3.98162  0.0
C  C295  1  0.15419946  0.40577715  0.67113636  1  -0.060352  -4.1e-05  -0.076553  -0.060101  -2e-05  3.981894  0.0
C  C296  1  0.34084491  0.37415877  0.21835389  1  0.044031  -0.0001  -0.03455  -0.083531  -6.4e-05  4.029769  0.0
C  C297  1  0.15916510  0.87416974  0.28166032  1  0.045378  -4.3e-05  -0.034554  -0.083316  -2.6e-05  4.029493  0.0
C  C298  1  0.65915375  0.12584064  0.21835306  1  0.044065  0.000103  -0.03461  -0.083651  6.5e-05  4.029777  0.0
C  C299  1  0.84083304  0.62583208  0.28166214  1  0.044235  4.3e-05  -0.034454  -0.083231  2.7e-05  4.02945  0.0
C  C300  1  0.65917218  0.62581448  0.78166067  1  0.045825  4.2e-05  -0.034777  -0.083586  2.5e-05  4.030006  0.0
C  C301  1  0.84084999  0.12584495  0.71833165  1  0.043884  4.7e-05  -0.034407  -0.083175  2.9e-05  4.029814  0.0
C  C302  1  0.34082780  0.87418503  0.78165714  1  0.045829  -2.4e-05  -0.034801  -0.083629  -1.7e-05  4.030095  0.0
C  C303  1  0.15914543  0.37415469  0.71833022  1  0.043808  0.00014  -0.034465  -0.083366  9.2e-05  4.029934  0.0
C  C304  1  0.32057163  0.40267202  0.26663744  1  -0.069821  2e-06  -0.081933  -0.072007  1e-06  3.994697  0.0
C  C305  1  0.17944545  0.90271136  0.23339031  1  -0.06935  -1.1e-05  -0.081688  -0.072093  -7e-06  3.994928  0.0
C  C306  1  0.67942580  0.09732839  0.26663771  1  -0.069938  -1e-05  -0.081933  -0.071952  -7e-06  3.994577  0.0
C  C307  1  0.82055900  0.59729031  0.23339208  1  -0.069535  1.4e-05  -0.081817  -0.072235  9e-06  3.994821  0.0
C  C308  1  0.67945663  0.59727798  0.73339495  1  -0.069827  1.2e-05  -0.081838  -0.072284  8e-06  3.995094  0.0
C  C309  1  0.82056252  0.09729570  0.76660046  1  -0.069184  4e-06  -0.081764  -0.072216  2e-06  3.994602  0.0
C  C310  1  0.32055374  0.90272307  0.73339151  1  -0.070057  -1.1e-05  -0.081781  -0.072039  -6e-06  3.99509  0.0
C  C311  1  0.17943472  0.40270450  0.76659949  1  -0.069153  -3.7e-05  -0.08182  -0.072199  -2.4e-05  3.994475  0.0
C  C312  1  0.30362600  0.46087021  0.26771563  1  -0.040328  -6.9e-05  -0.102532  -0.196208  -4.7e-05  3.996537  0.0
C  C313  1  0.19642614  0.96092545  0.23231426  1  -0.041698  -3.1e-05  -0.103147  -0.196859  -2.2e-05  3.995862  0.0
C  C314  1  0.69637245  0.03913020  0.26771693  1  -0.040371  9.6e-05  -0.102549  -0.19627  6.3e-05  3.996623  0.0
C  C315  1  0.80357730  0.53907580  0.23231588  1  -0.041808  3.8e-05  -0.103147  -0.196734  2.7e-05  3.995697  0.0
C  C316  1  0.69644292  0.53907176  0.73232667  1  -0.042099  4e-05  -0.103033  -0.196758  2.8e-05  3.995757  0.0
C  C317  1  0.80355235  0.03908458  0.76765947  1  -0.039503  5e-05  -0.102867  -0.195995  3.5e-05  3.995773  0.0
C  C318  1  0.30355830  0.96092929  0.73232379  1  -0.042357  -2.1e-05  -0.103014  -0.196845  -1.6e-05  3.995698  0.0
C  C319  1  0.19644896  0.46091563  0.76765706  1  -0.039703  0.000144  -0.102771  -0.195978  9.6e-05  3.995786  0.0
C  C320  1  0.35545700  0.31230019  0.21497757  1  1.434265  -2.3e-05  0.220037  0.552638  -1.7e-05  4.153739  0.0
C  C321  1  0.14456371  0.81229837  0.28502181  1  1.433778  -5e-06  0.219981  0.552859  -4e-06  4.152784  0.0
C  C322  1  0.64454168  0.18769752  0.21497889  1  1.434005  3e-06  0.220097  0.552633  3e-06  4.153465  0.0
C  C323  1  0.85543442  0.68770430  0.28502339  1  1.433837  5e-06  0.220032  0.552828  5e-06  4.152934  0.0
C  C324  1  0.64454790  0.68767474  0.78501241  1  1.434218  -3e-06  0.220277  0.55299  -4e-06  4.152377  0.0
C  C325  1  0.85544528  0.18771546  0.71498125  1  1.433795  -2e-06  0.219751  0.552459  -0.0  4.153994  0.0
C  C326  1  0.35544902  0.81232519  0.78500633  1  1.434116  -9e-06  0.220437  0.553103  -7e-06  4.15199  0.0
C  C327  1  0.14455727  0.31228374  0.71498047  1  1.433928  1e-05  0.219768  0.552493  4e-06  4.154031  0.0
C  C328  1  0.59053725  0.67975134  0.95485451  1  0.459233  -0.00059  0.044676  0.088707  -0.000357  3.959599  0.0
C  C329  1  0.90988502  0.17965444  0.54515103  1  0.462298  -0.000552  0.045285  0.089451  -0.000333  3.960196  0.0
C  C330  1  0.40946095  0.82024318  0.95485436  1  0.459205  -0.000583  0.044742  0.088792  -0.000352  3.959518  0.0
C  C331  1  0.09010609  0.32034849  0.54515030  1  0.46236  0.000552  0.045267  0.089323  0.000326  3.960096  0.0
C  C332  1  0.40977066  0.32032172  0.04515529  1  0.462954  0.000555  0.045344  0.089567  0.000328  3.959838  0.0
C  C333  1  0.09010973  0.82034629  0.45485045  1  0.462421  0.000552  0.045319  0.089407  0.000326  3.960215  0.0
C  C334  1  0.59022979  0.17967760  0.04515267  1  0.46271  -0.000548  0.045321  0.089413  -0.000331  3.959754  0.0
C  C335  1  0.90988662  0.67965393  0.45484920  1  0.462443  -0.000552  0.045328  0.089519  -0.000333  3.960083  0.0
C  C336  1  0.47431331  0.64695334  0.96040123  1  0.000749  0.000798  -0.083442  -0.169801  0.000517  3.897966  0.001
C  C337  1  0.02601336  0.14686986  0.53961367  1  -0.005337  0.000249  -0.083844  -0.170531  0.000187  3.898886  0.0
C  C338  1  0.52568587  0.85303951  0.96039831  1  0.000595  0.000752  -0.083483  -0.169851  0.000487  3.898122  0.001
C  C339  1  0.97397574  0.35313262  0.53961165  1  -0.005201  -0.000248  -0.083858  -0.170552  -0.00019  3.898806  0.0
C  C340  1  0.52595495  0.35312267  0.03960421  1  -0.003654  -0.000254  -0.083748  -0.170204  -0.000194  3.899081  0.0
C  C341  1  0.97398038  0.85313086  0.46038701  1  -0.005214  -0.000248  -0.083934  -0.170693  -0.00019  3.898985  0.0
C  C342  1  0.47404349  0.14687663  0.03960000  1  -0.003202  0.000205  -0.083684  -0.170138  0.000159  3.899033  0.0
C  C343  1  0.02601494  0.64686979  0.46038626  1  -0.005377  0.000248  -0.083853  -0.170586  0.000187  3.898895  0.0
C  C344  1  0.47174232  0.60304957  0.99825237  1  -0.036768  -0.000673  0.001984  0.145392  -0.000444  4.045711  0.0
C  C345  1  0.02851426  0.10298434  0.50174497  1  -0.022491  -0.000589  0.001913  0.144892  -0.000378  4.045636  0.0
C  C346  1  0.52826178  0.89694508  0.99824798  1  -0.036446  -0.000662  0.001982  0.14543  -0.000436  4.045601  0.0
C  C347  1  0.97148111  0.39701845  0.50174227  1  -0.022895  0.000589  0.001991  0.14502  0.000372  4.04574  0.0
C  C348  1  0.52846697  0.39701375  0.00174316  1  -0.027012  0.000592  0.001828  0.144986  0.000374  4.04636  0.0
C  C349  1  0.97148354  0.89701807  0.49825492  1  -0.022707  0.000588  0.002004  0.145103  0.000372  4.045632  0.0
C  C350  1  0.47153164  0.10298459  0.00173922  1  -0.027763  -0.000581  0.001819  0.144981  -0.000373  4.046436  0.0
C  C351  1  0.02851364  0.60298354  0.49825445  1  -0.022461  -0.000589  0.001934  0.144954  -0.000378  4.045541  0.0
C  C352  1  0.58894643  0.59642263  0.02965616  1  0.020102  0.000545  -0.092007  -0.195032  0.000364  3.970839  0.0
C  C353  1  0.91131056  0.09636794  0.47033320  1  0.003932  0.000272  -0.091704  -0.194419  0.000187  3.971711  0.0
C  C354  1  0.41106300  0.90357294  0.02965266  1  0.019945  0.000503  -0.092047  -0.195146  0.000337  3.97104  0.0
C  C355  1  0.08868596  0.40363434  0.47033150  1  0.003831  -0.000272  -0.091752  -0.194454  -0.00019  3.971698  0.0
C  C356  1  0.41128217  0.40362632  0.97033976  1  0.008498  -0.000274  -0.091699  -0.194468  -0.000191  3.971656  0.0
C  C357  1  0.08868622  0.90363236  0.52966907  1  0.003893  -0.000271  -0.091739  -0.194423  -0.000189  3.97181  0.0
C  C358  1  0.58872027  0.09637238  0.97033415  1  0.008745  0.000233  -0.091703  -0.194483  0.000162  3.971575  0.0
C  C359  1  0.91131082  0.59636724  0.52966721  1  0.00356  0.000272  -0.09173  -0.194411  0.000187  3.971778  0.0
C  C360  1  0.69990220  0.63178803  0.02209196  1  0.435165  -0.000618  0.040133  0.094997  -0.000376  3.974634  0.0
C  C361  1  0.80042421  0.13172205  0.47788957  1  0.43844  -0.000638  0.040022  0.094375  -0.000407  3.975878  0.0
C  C362  1  0.30010421  0.86820751  0.02209121  1  0.435665  -0.000611  0.040135  0.094993  -0.000371  3.974845  0.0
C  C363  1  0.19956719  0.36827772  0.47788810  1  0.438997  0.000638  0.040065  0.094361  0.000399  3.975991  0.0
C  C364  1  0.30034164  0.36825458  0.97790635  1  0.437043  0.000643  0.039757  0.094238  0.000402  3.975996  0.0
C  C365  1  0.19956749  0.86827741  0.52211270  1  0.438608  0.000638  0.040006  0.094285  0.000398  3.976089  0.0
C  C366  1  0.69965771  0.13174499  0.97790313  1  0.437016  -0.000636  0.039683  0.094005  -0.000406  3.97595  0.0
C  C367  1  0.80042654  0.63172259  0.52211140  1  0.438647  -0.000638  0.039976  0.094294  -0.000407  3.976053  0.0
C  C368  1  0.35700960  0.56542664  0.00644432  1  -0.034575  0.000337  -0.093171  -0.143081  0.000205  3.996083  0.0
C  C369  1  0.14313192  0.06536410  0.49354371  1  -0.039914  0.00028  -0.092897  -0.143143  0.000181  3.995974  0.0
C  C370  1  0.64299688  0.93456928  0.00643876  1  -0.034915  0.000167  -0.093098  -0.142919  9.5e-05  3.996139  0.0
C  C371  1  0.85686043  0.43463741  0.49354237  1  -0.039285  -0.00028  -0.092952  -0.143241  -0.000184  3.996103  0.0
C  C372  1  0.64313768  0.43463964  0.99354527  1  -0.039717  -0.000287  -0.092859  -0.143214  -0.000188  3.996642  0.0
C  C373  1  0.85686282  0.93463620  0.50645737  1  -0.039538  -0.000277  -0.092975  -0.143347  -0.000182  3.996191  0.0
C  C374  1  0.35686668  0.06535786  0.99354092  1  -0.039737  0.000111  -0.092926  -0.143335  7.2e-05  3.996772  0.0
C  C375  1  0.14313432  0.56536501  0.50645633  1  -0.039893  0.000281  -0.092967  -0.14329  0.000181  3.996068  0.0
C  C376  1  0.23635453  0.56813728  0.98075768  1  -0.016696  -0.00055  -0.080705  -0.102711  -0.00037  3.968297  0.0
C  C377  1  0.26378855  0.06808993  0.51923522  1  -0.011369  -0.000437  -0.080675  -0.102355  -0.00028  3.968028  0.0
C  C378  1  0.76364762  0.93185901  0.98075243  1  -0.016775  -0.000488  -0.080735  -0.102745  -0.00033  3.968393  0.0
C  C379  1  0.73620573  0.43191334  0.51923434  1  -0.011758  0.000437  -0.080627  -0.102257  0.000275  3.967986  0.0
C  C380  1  0.76374800  0.43189728  0.01925370  1  -0.014437  0.000444  -0.080766  -0.102358  0.000279  3.968674  0.0
C  C381  1  0.73620823  0.93191206  0.48076626  1  -0.011532  0.000437  -0.080589  -0.102165  0.000275  3.967914  0.0
C  C382  1  0.23625256  0.06809942  0.01924984  1  -0.013912  -0.000377  -0.080722  -0.102283  -0.000242  3.968645  0.0
C  C383  1  0.26379106  0.56809119  0.48076515  1  -0.01137  -0.000437  -0.080654  -0.102322  -0.00028  3.968161  0.0
C  C384  1  0.11921361  0.53238471  0.99044204  1  -0.015003  0.000252  -0.012724  0.099478  0.000169  4.044161  0.0
C  C385  1  0.38086664  0.03236747  0.50954957  1  -0.015103  0.000239  -0.01283  0.099478  0.00016  4.045172  0.0
C  C386  1  0.88078544  0.96760823  0.99043839  1  -0.015868  2.2e-05  -0.012877  0.099302  1.8e-05  4.044508  0.0
C  C387  1  0.61912463  0.46763577  0.50954887  1  -0.015106  -0.000239  -0.01287  0.099433  -0.000163  4.045237  0.0
C  C388  1  0.88087873  0.46762702  0.00956736  1  -0.01549  -0.000248  -0.013044  0.099306  -0.000168  4.045431  0.0
C  C389  1  0.61912608  0.96763368  0.49045270  1  -0.016144  -0.000238  -0.01287  0.099376  -0.000162  4.045184  0.0
C  C390  1  0.11911983  0.03236627  0.00956546  1  -0.014832  4e-06  -0.012883  0.099557  6e-06  4.045626  0.0
C  C391  1  0.38086910  0.53236876  0.49045102  1  -0.016047  0.000238  -0.012832  0.099472  0.00016  4.04523  0.0
C  C392  1  0.12269269  0.48437190  0.02357436  1  -0.106695  -0.000243  -0.089417  -0.126716  -0.000164  3.979479  0.0
C  C393  1  0.37732595  0.98435827  0.47641001  1  -0.105188  -0.000208  -0.089233  -0.126143  -0.000141  3.979161  0.0
C  C394  1  0.87730785  0.01562229  0.02356992  1  -0.106136  -5.4e-05  -0.089341  -0.126564  -3.9e-05  3.979534  0.0
C  C395  1  0.62266523  0.51564244  0.47640694  1  -0.105203  0.000208  -0.089245  -0.126289  0.000139  3.979207  0.0
C  C396  1  0.87739254  0.51563265  0.97642831  1  -0.104465  0.000218  -0.089275  -0.126614  0.000144  3.980152  0.0
C  C397  1  0.62266676  0.01564161  0.52359384  1  -0.104759  0.000208  -0.089199  -0.126118  0.000138  3.979141  0.0
C  C398  1  0.12260963  0.98436152  0.97642600  1  -0.105168  -1.1e-05  -0.089358  -0.126768  -1.2e-05  3.980135  0.0
C  C399  1  0.37733156  0.48436040  0.52359097  1  -0.104594  -0.000208  -0.089242  -0.126278  -0.000141  3.97933  0.0
C  C400  1  0.00641988  0.45292810  0.03293807  1  0.016872  0.000175  -0.08711  -0.117823  0.000102  3.950403  0.0
C  C401  1  0.49355614  0.95293338  0.46706089  1  0.017566  0.00013  -0.087182  -0.118157  7.2e-05  3.950419  0.0
C  C402  1  0.99357859  0.04706357  0.03293681  1  0.016148  9.3e-05  -0.087093  -0.117969  6.6e-05  3.950412  0.0
C  C403  1  0.50643915  0.54707152  0.46706035  1  0.017475  -0.00013  -0.087203  -0.118189  -7.4e-05  3.950508  0.0
C  C404  1  0.99365823  0.54707560  0.96706381  1  0.015721  -0.000155  -0.087042  -0.117914  -8.9e-05  3.950651  0.0
C  C405  1  0.50643657  0.04706946  0.53294059  1  0.01698  -0.00013  -0.087173  -0.118182  -7.4e-05  3.950517  0.0
C  C406  1  0.00634295  0.95291727  0.96706110  1  0.016437  2.5e-05  -0.087003  -0.117712  2.4e-05  3.950455  0.0
C  C407  1  0.49355662  0.45293428  0.53294073  1  0.01683  0.00013  -0.087203  -0.118152  7.2e-05  3.950573  0.0
C  C408  1  0.32057073  0.58299473  0.26764087  1  0.320473  -0.000114  0.093815  0.182624  -7.9e-05  4.035035  0.0
C  C409  1  0.17943159  0.08304835  0.23241696  1  0.316445  -9.3e-05  0.093601  0.182404  -6.3e-05  4.033794  0.0
C  C410  1  0.67942645  0.91700282  0.26763961  1  0.320426  0.000113  0.093907  0.182679  6.9e-05  4.035049  0.0
C  C411  1  0.82056396  0.41695364  0.23241480  1  0.316446  9.7e-05  0.093598  0.182363  6e-05  4.033813  0.0
C  C412  1  0.67946261  0.41695442  0.73243551  1  0.315561  9.8e-05  0.093661  0.182612  6.1e-05  4.033901  0.0
C  C413  1  0.82037410  0.91699167  0.76742201  1  0.302706  2.3e-05  0.093928  0.182018  -5e-06  4.035755  0.0
C  C414  1  0.32053682  0.08304780  0.73243282  1  0.315577  -9.8e-05  0.093666  0.182758  -6.5e-05  4.033628  0.0
C  C415  1  0.17962493  0.58300905  0.76742099  1  0.302752  5.3e-05  0.093897  0.181984  1.5e-05  4.035769  0.0
C  C416  1  0.22563007  0.62223537  0.28685709  1  0.026118  0.000627  -0.09685  -0.176867  0.000448  3.985136  0.001
C  C417  1  0.27440436  0.12228924  0.21314654  1  -0.001193  0.000639  -0.096993  -0.177261  0.000452  3.985099  0.001
C  C418  1  0.77437211  0.87776477  0.28685645  1  0.025928  -0.000664  -0.096989  -0.177138  -0.000481  3.985187  -0.001
C  C419  1  0.72559534  0.37771143  0.21314633  1  -0.001038  -0.000637  -0.097087  -0.177391  -0.000458  3.985246  -0.001
C  C420  1  0.77438498  0.37773238  0.71317490  1  0.026529  -0.000631  -0.096865  -0.177143  -0.000458  3.985238  -0.001
C  C421  1  0.72532003  0.87777699  0.78665755  1  0.001705  0.000857  -0.09802  -0.177059  0.000523  3.986397  0.001
C  C422  1  0.22561249  0.12226978  0.71317475  1  0.026598  0.000632  -0.096881  -0.177181  0.000452  3.985034  0.001
C  C423  1  0.27467689  0.62222380  0.78665697  1  0.001763  0.00083  -0.097993  -0.176992  0.000505  3.986335  0.001
N  N424  1  0.70260803  0.67251603  0.98488857  1  -1.210112  0.005037  -0.3392  -0.241324  0.003894  3.498812  0.006
N  N425  1  0.79780318  0.17243112  0.51511140  1  -1.207538  0.00264  -0.339531  -0.24178  0.00203  3.499768  0.003
N  N426  1  0.29739816  0.82748069  0.98488931  1  -1.210156  0.00499  -0.339224  -0.241353  0.003863  3.498953  0.006
N  N427  1  0.20219111  0.32757172  0.51511299  1  -1.207627  -0.002633  -0.33957  -0.241881  -0.002077  3.500006  -0.003
N  N428  1  0.29769174  0.32755238  0.01513035  1  -1.209452  -0.002662  -0.339627  -0.241435  -0.002096  3.501206  -0.003
N  N429  1  0.20219259  0.82757045  0.48488928  1  -1.207614  -0.002633  -0.339545  -0.241755  -0.002076  3.499837  -0.003
N  N430  1  0.70231088  0.17244812  0.01512803  1  -1.209377  0.002615  -0.339692  -0.241376  0.002016  3.501035  0.003
N  N431  1  0.79780465  0.67243028  0.48488888  1  -1.207666  0.002631  -0.339588  -0.241805  0.002024  3.499879  0.003
N  N432  1  0.28980423  0.55103428  0.22141407  1  -1.259961  3.8e-05  -0.251591  -0.153003  5.4e-05  3.681592  0.0
N  N433  1  0.21021881  0.05113176  0.27868094  1  -1.255474  -2.6e-05  -0.251326  -0.15303  -1.9e-05  3.67975  0.0
N  N434  1  0.71019621  0.94896524  0.22141445  1  -1.259907  0.000195  -0.25161  -0.153027  0.00015  3.681553  0.0
N  N435  1  0.78978568  0.44886868  0.27868087  1  -1.255378  2.7e-05  -0.251394  -0.153035  1.8e-05  3.679615  0.0
N  N436  1  0.71026466  0.44887386  0.77870196  1  -1.255927  2.9e-05  -0.251332  -0.152767  2e-05  3.678681  0.0
N  N437  1  0.78963569  0.94893321  0.72120797  1  -1.254828  0.00012  -0.251841  -0.152213  7.9e-05  3.681338  0.0
N  N438  1  0.28974371  0.05112596  0.77869920  1  -1.255569  -2.6e-05  -0.251386  -0.153025  -1.8e-05  3.678774  0.0
N  N439  1  0.21036558  0.55106653  0.72120764  1  -1.254784  0.000222  -0.251787  -0.152279  0.000137  3.681225  0.0
O  O440  1  0.32632285  0.71283071  0.42562312  1  -1.114007  -0.07876  -0.303472  -0.510159  -0.051865  2.335027  -0.071
O  O441  1  0.17369704  0.21285373  0.07437718  1  -1.114605  -0.078756  -0.303243  -0.50999  -0.051853  2.334767  -0.071
O  O442  1  0.67369092  0.78716773  0.42562310  1  -1.11412  0.078751  -0.303307  -0.509955  0.050962  2.335401  0.071
O  O443  1  0.82629311  0.28714441  0.07437825  1  -1.114725  0.078757  -0.303259  -0.509998  0.050956  2.334695  0.071
O  O444  1  0.67366377  0.28717974  0.57438113  1  -1.113911  0.078757  -0.303435  -0.510201  0.05097  2.334931  0.071
O  O445  1  0.82694620  0.78701643  0.92554740  1  -1.110597  0.086226  -0.304186  -0.511215  0.055321  2.330606  0.078
O  O446  1  0.32632721  0.21282919  0.57438432  1  -1.114197  -0.078762  -0.303542  -0.510195  -0.051867  2.33496  -0.071
O  O447  1  0.17305518  0.71298350  0.92554712  1  -1.110575  0.086234  -0.304208  -0.511214  0.055327  2.330527  0.079
O  O448  1  0.17102737  0.72957059  0.03786558  1  -1.103491  0.102576  -0.316294  -0.51321  0.065788  2.358624  0.092
O  O449  1  0.32909819  0.22972876  0.46225368  1  -1.0973  -0.087111  -0.316374  -0.512249  -0.057125  2.363682  -0.078
O  O450  1  0.82897287  0.77043050  0.03786581  1  -1.103518  0.102569  -0.316281  -0.513195  0.065784  2.358678  0.092
O  O451  1  0.67089431  0.27027139  0.46225045  1  -1.09727  0.087105  -0.316318  -0.512267  0.056141  2.363801  0.078
O  O452  1  0.82907195  0.27023271  0.96223856  1  -1.097539  0.087228  -0.316162  -0.512327  0.056207  2.363123  0.078
O  O453  1  0.67090469  0.77026478  0.53774344  1  -1.096867  0.08708  -0.316379  -0.512177  0.056123  2.363634  0.078
O  O454  1  0.17092747  0.22976766  0.96223754  1  -1.09743  -0.087226  -0.316197  -0.512322  -0.057189  2.363093  -0.078
O  O455  1  0.32910045  0.72973737  0.53774429  1  -1.096873  -0.087052  -0.316452  -0.512309  -0.057086  2.363703  -0.078
O  O456  1  0.99023415  0.67113224  0.02633935  1  -1.131727  0.080682  -0.307371  -0.534195  0.051661  2.392928  0.074
O  O457  1  0.50967016  0.17114386  0.47385909  1  -1.128056  0.072727  -0.307754  -0.534595  0.047079  2.396888  0.066
O  O458  1  0.00976310  0.82886966  0.02633513  1  -1.131551  0.080684  -0.307337  -0.534217  0.051664  2.393093  0.074
O  O459  1  0.49032330  0.32885463  0.47385930  1  -1.128219  -0.072725  -0.307734  -0.534643  -0.047906  2.396889  -0.066
O  O460  1  0.00967521  0.32887271  0.97383930  1  -1.128077  -0.072651  -0.307658  -0.5348  -0.047851  2.39641  -0.066
O  O461  1  0.49032154  0.82885010  0.52613723  1  -1.128324  -0.072717  -0.30778  -0.534593  -0.047903  2.397251  -0.066
O  O462  1  0.99032619  0.17112769  0.97383956  1  -1.128128  0.072647  -0.307655  -0.534751  0.047022  2.396473  0.066
O  O463  1  0.50968365  0.67115286  0.52613504  1  -1.12839  0.072738  -0.307736  -0.5346  0.047091  2.397153  0.066
O  O464  1  0.54614356  0.68437944  0.41502938  1  -1.089845  0.082734  -0.315184  -0.514267  0.053531  2.408347  0.074
O  O465  1  0.95386451  0.18436680  0.08500024  1  -1.089994  0.082807  -0.315063  -0.514022  0.053565  2.407964  0.074
O  O466  1  0.45386721  0.81562023  0.41503157  1  -1.089736  -0.08275  -0.315234  -0.514244  -0.054478  2.408438  -0.074
O  O467  1  0.04612762  0.31563222  0.08499913  1  -1.08982  -0.082805  -0.315034  -0.514001  -0.054501  2.407894  -0.074
O  O468  1  0.45385120  0.31563228  0.58498042  1  -1.08947  -0.08274  -0.314957  -0.51399  -0.054466  2.407991  -0.074
O  O469  1  0.04610416  0.81614635  0.91498816  1  -1.092171  0.097671  -0.315132  -0.514779  0.062603  2.402961  0.088
O  O470  1  0.54613872  0.18437457  0.58497744  1  -1.089639  0.082741  -0.315029  -0.514109  0.053533  2.408063  0.074
O  O471  1  0.95389625  0.68385397  0.91498768  1  -1.092226  0.097659  -0.315112  -0.514721  0.062594  2.403068  0.088
O  O472  1  0.36697041  0.28528006  0.17377863  1  -1.140399  -6.9e-05  -0.278076  -0.474386  -4.2e-05  2.158482  0.0
O  O473  1  0.13306767  0.78526334  0.32621750  1  -1.14026  -4.9e-05  -0.278151  -0.474641  -2.9e-05  2.157868  0.0
O  O474  1  0.63302438  0.21471965  0.17377845  1  -1.140423  6.1e-05  -0.278111  -0.474427  3.7e-05  2.158064  0.0
O  O475  1  0.86692722  0.71473903  0.32621875  1  -1.140173  4.9e-05  -0.278238  -0.474698  2.9e-05  2.157984  0.0
O  O476  1  0.63299789  0.71470376  0.82621650  1  -1.139961  2.4e-05  -0.278356  -0.474903  8e-06  2.157764  0.0
O  O477  1  0.86694335  0.21474542  0.67378358  1  -1.140752  4.5e-05  -0.278108  -0.474543  2.7e-05  2.158409  0.0
O  O478  1  0.36700494  0.78529503  0.82621391  1  -1.139846  1e-06  -0.278442  -0.47501  -7e-06  2.157312  0.0
O  O479  1  0.13306955  0.28525155  0.67378511  1  -1.140567  2e-06  -0.278066  -0.474496  2e-06  2.158599  0.0
O  O480  1  0.35625838  0.28655363  0.26376245  1  -1.117759  -7e-06  -0.348859  -0.499629  -2e-06  2.2297  0.0
O  O481  1  0.14374895  0.78654766  0.23623884  1  -1.117467  -4e-06  -0.348758  -0.499617  -3e-06  2.229633  0.0
O  O482  1  0.64374109  0.21344635  0.26376225  1  -1.117914  2e-06  -0.348873  -0.499598  -1e-06  2.229705  0.0
O  O483  1  0.85625753  0.71345318  0.23624010  1  -1.117598  -5e-06  -0.348749  -0.499592  -6e-06  2.229562  0.0
O  O484  1  0.64375974  0.71343569  0.73623626  1  -1.11751  -3e-06  -0.348812  -0.499688  -3e-06  2.229467  0.0
O  O485  1  0.85624987  0.21345941  0.76376778  1  -1.1175  -2e-06  -0.348784  -0.499676  -3e-06  2.229554  0.0
O  O486  1  0.35624349  0.78656199  0.73623367  1  -1.118029  -4e-06  -0.348878  -0.49968  -2e-06  2.229485  0.0
O  O487  1  0.14375247  0.28653994  0.76376812  1  -1.117327  7e-06  -0.348804  -0.49969  5e-06  2.229552  0.0
