# generated using pymatgen
data_CoH16C20N2O5
_symmetry_space_group_name_H-M   'P 1'
_cell_length_a   11.32297039
_cell_length_b   15.70706028
_cell_length_c   24.09469005
_cell_angle_alpha   89.99996529
_cell_angle_beta   89.99921015
_cell_angle_gamma   90.00052685
_symmetry_Int_Tables_number   1
_chemical_formula_structural   CoH16C20N2O5
_chemical_formula_sum   'Co8 H128 C160 N16 O40'
_cell_volume   4285.25455987
_cell_formula_units_Z   8
loop_
 _symmetry_equiv_pos_site_id
 _symmetry_equiv_pos_as_xyz
  1  'x, y, z'
loop_
 _atom_site_type_symbol
 _atom_site_label
 _atom_site_symmetry_multiplicity
 _atom_site_fract_x
 _atom_site_fract_y
 _atom_site_fract_z
 _atom_site_occupancy
 _atom_site_pbe_bader_charge
 _atom_site_pbe_bader_spin_density
 _atom_site_pbe_cm5_charge
 _atom_site_pbe_ddec_charge
 _atom_site_pbe_ddec_spin_density
 _atom_site_pbe_ddec_sum_bond_order
 _atom_site_pbe_magmom
Co  Co0  1  0.80260931  0.34674090  0.20302878  1  1.29225  2.595354  0.673982  0.861619  2.830859  2.525753  2.574
Co  Co1  1  0.19739725  0.34673604  0.79697323  1  1.292575  2.595357  0.67395  0.861598  2.830858  2.525583  2.574
Co  Co2  1  0.30260946  0.65325995  0.29697097  1  1.292278  2.595364  0.673935  0.861505  2.830863  2.525751  2.574
Co  Co3  1  0.69739216  0.65326041  0.70303053  1  1.292306  2.595358  0.674004  0.861658  2.830849  2.525628  2.574
Co  Co4  1  0.71456698  0.15113107  0.30344376  1  1.299139  2.598656  0.67718  0.866142  2.837661  2.562416  2.578
Co  Co5  1  0.28543444  0.15112435  0.69655459  1  1.299062  2.598658  0.677249  0.866199  2.837649  2.562289  2.578
Co  Co6  1  0.21457078  0.84887174  0.19655491  1  1.299063  2.598656  0.677214  0.86614  2.837657  2.562472  2.578
Co  Co7  1  0.78542979  0.84887014  0.80344362  1  1.299031  2.598676  0.677236  0.866215  2.837662  2.562221  2.578
H  H8  1  0.00154485  0.40119460  0.28163252  1  0.138896  0.001198  0.117859  0.093947  0.000172  1.01263  0.001
H  H9  1  0.99845709  0.40119769  0.71836907  1  0.138929  0.001199  0.117872  0.093943  0.000172  1.012629  0.001
H  H10  1  0.50154393  0.59880743  0.21836588  1  0.138841  0.001199  0.117856  0.093919  0.000172  1.012696  0.001
H  H11  1  0.49845435  0.59880585  0.78163398  1  0.138879  0.001199  0.117873  0.093945  0.000173  1.012665  0.001
H  H12  1  0.99565754  0.29680162  0.12442952  1  0.09927  0.001422  0.118206  0.08961  0.000326  1.005794  0.001
H  H13  1  0.00434573  0.29679857  0.87557003  1  0.099235  0.001422  0.118176  0.089611  0.000326  1.005804  0.001
H  H14  1  0.49566045  0.70319287  0.37557189  1  0.099317  0.001422  0.118241  0.089694  0.000326  1.005783  0.001
H  H15  1  0.50434269  0.70319341  0.62442918  1  0.099315  0.001422  0.118214  0.089642  0.000326  1.005864  0.001
H  H16  1  0.85804965  0.20946530  0.08646519  1  0.112822  0.000166  0.105174  0.113026  3e-06  1.011133  0.0
H  H17  1  0.14193661  0.20945612  0.91352983  1  0.112874  0.000166  0.105192  0.112995  3e-06  1.011147  0.0
H  H18  1  0.35805345  0.79053719  0.41353006  1  0.112823  0.000166  0.105199  0.113026  3e-06  1.011152  0.0
H  H19  1  0.64194551  0.79053614  0.58646724  1  0.112829  0.000166  0.105175  0.113036  3e-06  1.011135  0.0
H  H20  1  0.91502825  0.08222773  0.23099230  1  0.098331  0.001341  0.117725  0.084495  0.000264  1.02113  0.001
H  H21  1  0.08497229  0.08221896  0.76900524  1  0.098361  0.001341  0.11775  0.084466  0.000264  1.021255  0.001
H  H22  1  0.41503170  0.91777578  0.26900465  1  0.09846  0.00134  0.117746  0.084497  0.000263  1.021245  0.001
H  H23  1  0.58497064  0.91777801  0.73099468  1  0.098422  0.001341  0.117784  0.084507  0.000264  1.021257  0.001
H  H24  1  0.60736790  0.44074699  0.26028932  1  0.10421  0.001346  0.116758  0.086577  0.000238  1.010431  0.001
H  H25  1  0.39263897  0.44073584  0.73970851  1  0.10446  0.001346  0.116784  0.08655  0.000238  1.010409  0.001
H  H26  1  0.10737029  0.55925383  0.23970672  1  0.104141  0.001346  0.11676  0.086511  0.000238  1.010504  0.001
H  H27  1  0.89263101  0.55925872  0.76029564  1  0.104172  0.001346  0.116748  0.086526  0.000238  1.010464  0.001
H  H28  1  0.21425392  0.28779161  0.12062749  1  0.057337  0.000888  0.106335  0.10869  0.000431  1.014754  0.0
H  H29  1  0.78575012  0.28778802  0.87937372  1  0.057002  0.000888  0.106342  0.108714  0.000431  1.014745  0.0
H  H30  1  0.71425415  0.71220228  0.37936994  1  0.057403  0.000888  0.106317  0.108608  0.000431  1.014897  0.0
H  H31  1  0.28574557  0.71220455  0.62063030  1  0.057444  0.000888  0.10632  0.108626  0.000431  1.014868  0.0
H  H32  1  0.90721269  0.21270844  0.38004423  1  0.114176  0.00136  0.120584  0.094101  0.000203  1.001382  0.001
H  H33  1  0.09279039  0.21269924  0.61995285  1  0.114008  0.001359  0.120524  0.093937  0.000203  1.001551  0.001
H  H34  1  0.40721443  0.78729947  0.11995318  1  0.114145  0.00136  0.120547  0.094007  0.000203  1.001472  0.001
H  H35  1  0.59278095  0.78729588  0.88004619  1  0.114249  0.001359  0.120574  0.094046  0.000203  1.001473  0.001
H  H36  1  0.39158669  0.24413857  0.13948585  1  0.068098  0.000836  0.103859  0.107513  0.000391  1.044774  0.0
H  H37  1  0.60841414  0.24414210  0.86052202  1  0.067892  0.000836  0.103909  0.10751  0.000391  1.044819  0.0
H  H38  1  0.89158891  0.75586032  0.36051250  1  0.067948  0.000836  0.103855  0.107524  0.000391  1.044817  0.0
H  H39  1  0.10841931  0.75585757  0.63948564  1  0.068086  0.000836  0.103885  0.107523  0.000391  1.044814  0.0
H  H40  1  0.74857506  0.42498877  0.58858651  1  0.04424  0.000611  0.107322  0.056878  0.00025  0.961445  0.0
H  H41  1  0.25142277  0.42498658  0.41141424  1  0.044295  0.000611  0.107281  0.056804  0.00025  0.961457  0.0
H  H42  1  0.24857618  0.57501374  0.91141650  1  0.044361  0.000611  0.107269  0.056798  0.00025  0.961434  0.0
H  H43  1  0.75142268  0.57501075  0.08858585  1  0.044257  0.00061  0.107319  0.05684  0.00025  0.961439  0.0
H  H44  1  0.86298824  0.05465170  0.92906662  1  0.060091  -0.000195  0.113488  0.067382  -0.000257  0.955214  0.0
H  H45  1  0.13701901  0.05465164  0.07092928  1  0.060166  -0.000195  0.113517  0.067492  -0.000257  0.955189  0.0
H  H46  1  0.36297575  0.94534140  0.57093067  1  0.060496  -0.000195  0.113493  0.067434  -0.000257  0.955287  0.0
H  H47  1  0.63701369  0.94535002  0.42906699  1  0.060144  -0.000195  0.113501  0.067384  -0.000257  0.955258  0.0
H  H48  1  0.12536308  0.22107087  0.38356498  1  0.070016  0.000911  0.10698  0.109675  0.000461  1.006374  0.0
H  H49  1  0.87463922  0.22106687  0.61643501  1  0.06987  0.000911  0.106985  0.109664  0.000461  1.006343  0.0
H  H50  1  0.62536566  0.77893008  0.11643220  1  0.069712  0.000911  0.107005  0.109791  0.000461  1.006366  0.0
H  H51  1  0.37462873  0.77893330  0.88356677  1  0.069794  0.000911  0.106984  0.109689  0.000461  1.006338  0.0
H  H52  1  0.30286557  0.25650076  0.36623277  1  0.055593  0.00106  0.104075  0.105711  0.000507  1.017124  0.0
H  H53  1  0.69713983  0.25649492  0.63376471  1  0.050698  0.001061  0.104092  0.105726  0.000507  1.01712  0.0
H  H54  1  0.80286454  0.74349564  0.13376698  1  0.055777  0.00106  0.10408  0.105688  0.000507  1.017061  0.0
H  H55  1  0.19713028  0.74350471  0.86623656  1  0.05603  0.001059  0.104068  0.10565  0.000507  1.017104  0.0
H  H56  1  0.22060127  0.39981888  0.28488937  1  0.132623  0.001057  0.106762  0.122268  0.000608  1.040086  0.0
H  H57  1  0.77940065  0.39982051  0.71511388  1  0.132683  0.001057  0.106774  0.122322  0.000608  1.040137  0.0
H  H58  1  0.72060046  0.60018334  0.21510760  1  0.132485  0.001057  0.106774  0.122243  0.000608  1.040109  0.0
H  H59  1  0.27940049  0.60018794  0.78489350  1  0.132475  0.001057  0.106793  0.122289  0.000608  1.040215  0.0
H  H60  1  0.38918306  0.44335592  0.26400454  1  0.145998  0.000695  0.110863  0.134721  0.000225  1.048861  0.0
H  H61  1  0.61082030  0.44334368  0.73599288  1  0.146252  0.000695  0.110881  0.134689  0.000225  1.048931  0.0
H  H62  1  0.88918815  0.55664932  0.23599092  1  0.146034  0.000695  0.11089  0.134802  0.000225  1.048853  0.0
H  H63  1  0.11081401  0.55665601  0.76401477  1  0.146095  0.000695  0.110919  0.134816  0.000225  1.048832  0.0
H  H64  1  0.60898466  0.25405713  0.13918383  1  0.100716  0.001537  0.118697  0.088844  0.000259  1.007215  0.001
H  H65  1  0.39101453  0.25406112  0.86082362  1  0.10117  0.001537  0.118679  0.088843  0.000259  1.007219  0.001
H  H66  1  0.10898678  0.74594116  0.36081594  1  0.100748  0.001537  0.118697  0.088883  0.000259  1.007167  0.001
H  H67  1  0.89102132  0.74593406  0.63918137  1  0.101066  0.001537  0.118747  0.088888  0.000259  1.007184  0.001
H  H68  1  0.52195824  0.24911245  0.36420548  1  0.094875  0.001564  0.117869  0.090797  0.000383  1.008006  0.001
H  H69  1  0.47804530  0.24910643  0.63579616  1  0.094952  0.001564  0.117838  0.090702  0.000383  1.00816  0.001
H  H70  1  0.02195728  0.75088590  0.13579818  1  0.094916  0.001563  0.117877  0.090775  0.000383  1.008091  0.001
H  H71  1  0.97803675  0.75089124  0.86420660  1  0.094809  0.001564  0.117847  0.090771  0.000383  1.008027  0.001
H  H72  1  0.13101675  0.08611701  0.22639259  1  0.140201  0.000933  0.109311  0.128876  0.000466  1.040328  0.0
H  H73  1  0.86898384  0.08611281  0.77360910  1  0.1402  0.000933  0.109291  0.128833  0.000466  1.040423  0.0
H  H74  1  0.63101822  0.91388334  0.27360620  1  0.140308  0.000932  0.109327  0.128872  0.000466  1.040302  0.0
H  H75  1  0.36898142  0.91388860  0.72639354  1  0.140282  0.000933  0.109298  0.128896  0.000466  1.0403  0.0
H  H76  1  0.30035970  0.05631058  0.24226069  1  0.131722  0.000658  0.110086  0.127615  0.00023  1.038142  0.0
H  H77  1  0.69964227  0.05631546  0.75774475  1  0.1317  0.000658  0.110116  0.127621  0.00023  1.038149  0.0
H  H78  1  0.80035583  0.94369089  0.25773742  1  0.131703  0.000658  0.110159  0.127657  0.00023  1.038169  0.0
H  H79  1  0.19964330  0.94369119  0.74226024  1  0.131684  0.000658  0.110122  0.127644  0.00023  1.038123  0.0
H  H80  1  0.51908499  0.06147905  0.24435878  1  0.100232  0.00134  0.116253  0.087534  0.000173  1.028234  0.001
H  H81  1  0.48091881  0.06148502  0.75564956  1  0.097273  0.00134  0.116327  0.087564  0.000173  1.028361  0.001
H  H82  1  0.01908204  0.93852119  0.25564033  1  0.100301  0.00134  0.116261  0.087504  0.000173  1.028241  0.001
H  H83  1  0.98091791  0.93851904  0.74435733  1  0.100269  0.00134  0.11626  0.087539  0.000173  1.028241  0.001
H  H84  1  0.70230770  0.34167644  0.51565069  1  0.041871  0.000198  0.100634  0.110476  8e-05  1.024586  0.0
H  H85  1  0.29769172  0.34167575  0.48434884  1  0.041918  0.000198  0.100623  0.110441  8e-05  1.024586  0.0
H  H86  1  0.20230686  0.65832577  0.98435221  1  0.04191  0.000198  0.100614  0.110472  8e-05  1.024607  0.0
H  H87  1  0.79769217  0.65832125  0.01565302  1  0.041878  0.000198  0.100604  0.11042  8e-05  1.024632  0.0
H  H88  1  0.63319318  0.94045558  0.06137811  1  0.079683  0.000119  0.104941  0.119926  2.1e-05  1.00048  0.0
H  H89  1  0.36681651  0.94045615  0.93862080  1  0.07917  0.000119  0.104901  0.119888  2.1e-05  1.000459  0.0
H  H90  1  0.13319047  0.05954223  0.43861902  1  0.07893  0.000119  0.104963  0.119882  2.1e-05  1.000543  0.0
H  H91  1  0.86681066  0.05954333  0.56137729  1  0.079658  0.000119  0.104927  0.119919  2.1e-05  1.000473  0.0
H  H92  1  0.79392502  0.51061360  0.34637157  1  0.087329  0.000221  0.097378  0.097173  -3.8e-05  1.048057  0.0
H  H93  1  0.20608008  0.51060958  0.65362790  1  0.087385  0.000221  0.097366  0.097113  -3.8e-05  1.048143  0.0
H  H94  1  0.29391844  0.48939356  0.15363073  1  0.087084  0.000222  0.097346  0.09712  -3.8e-05  1.048062  0.0
H  H95  1  0.70606696  0.48939011  0.84637539  1  0.087485  0.000222  0.097395  0.097197  -3.8e-05  1.048166  0.0
H  H96  1  0.76864545  0.58448853  0.43796734  1  0.068564  0.000172  0.103976  0.116815  7.6e-05  1.003845  0.0
H  H97  1  0.23135176  0.58448541  0.56203211  1  0.068638  0.000172  0.103949  0.116804  7.6e-05  1.003918  0.0
H  H98  1  0.26864326  0.41551591  0.06203596  1  0.068648  0.000172  0.103997  0.116851  7.6e-05  1.003902  0.0
H  H99  1  0.73134650  0.41551318  0.93796936  1  0.068565  0.000172  0.103956  0.116799  7.6e-05  1.003941  0.0
H  H100  1  0.64379618  0.00973908  0.15479301  1  0.096338  0.000223  0.098583  0.099101  2.5e-05  1.035247  0.0
H  H101  1  0.35620696  0.00973713  0.84520581  1  0.096245  0.000223  0.098574  0.099121  2.5e-05  1.035228  0.0
H  H102  1  0.14379833  0.99025880  0.34520446  1  0.096324  0.000223  0.098552  0.099106  2.6e-05  1.03515  0.0
H  H103  1  0.85620493  0.99026101  0.65479152  1  0.096369  0.000223  0.098599  0.099153  2.5e-05  1.035225  0.0
H  H104  1  0.72001948  0.27047417  0.42463225  1  0.11355  7.6e-05  0.10694  0.119771  -6.7e-05  1.008574  0.0
H  H105  1  0.27998875  0.27047581  0.57536648  1  0.113738  7.6e-05  0.106927  0.119686  -6.7e-05  1.0087  0.0
H  H106  1  0.22001471  0.72952613  0.07536971  1  0.113714  7.6e-05  0.106929  0.119777  -6.7e-05  1.008557  0.0
H  H107  1  0.77997728  0.72952500  0.92463633  1  0.113544  7.6e-05  0.106934  0.11976  -6.7e-05  1.008724  0.0
H  H108  1  0.85284650  0.14035958  0.99432500  1  0.061544  0.000169  0.101183  0.111231  5.9e-05  1.022482  0.0
H  H109  1  0.14714771  0.14034756  0.00567087  1  0.061117  0.000169  0.101185  0.111275  5.9e-05  1.022575  0.0
H  H110  1  0.35284631  0.85964427  0.50567111  1  0.061736  0.000169  0.101206  0.111263  5.9e-05  1.022509  0.0
H  H111  1  0.64715087  0.85964461  0.49432741  1  0.061585  0.000169  0.101183  0.111237  5.9e-05  1.022531  0.0
H  H112  1  0.54051514  0.41550188  0.62286860  1  0.036074  0.000225  0.094909  0.138723  6.9e-05  1.002766  0.0
H  H113  1  0.45947551  0.41550302  0.37712841  1  0.036166  0.000225  0.094896  0.138713  6.9e-05  1.002827  0.0
H  H114  1  0.04052091  0.58450052  0.87713410  1  0.035747  0.000225  0.094889  0.138728  6.9e-05  1.002799  0.0
H  H115  1  0.95948072  0.58450206  0.12286659  1  0.036092  0.000225  0.094913  0.1388  6.9e-05  1.002743  0.0
H  H116  1  0.49572333  0.49637558  0.57571478  1  0.051809  2e-06  0.093877  0.140924  -6.2e-05  0.997674  0.0
H  H117  1  0.50427365  0.49637760  0.42428097  1  0.051801  2e-06  0.093868  0.140973  -6.2e-05  0.997664  0.0
H  H118  1  0.99572136  0.50362794  0.92428746  1  0.051854  2e-06  0.093847  0.14096  -6.2e-05  0.997652  0.0
H  H119  1  0.00428013  0.50363145  0.07571243  1  0.051895  2e-06  0.09386  0.140965  -6.2e-05  0.997635  0.0
H  H120  1  0.54098327  0.39549372  0.55009074  1  0.021649  4.2e-05  0.086628  0.121639  1.9e-05  1.036208  0.0
H  H121  1  0.45901507  0.39549414  0.44990586  1  0.021857  4.2e-05  0.086604  0.121684  1.9e-05  1.036144  0.0
H  H122  1  0.04098451  0.60450932  0.94991154  1  0.021824  4.2e-05  0.086678  0.121782  1.8e-05  1.036212  0.0
H  H123  1  0.95901119  0.60451157  0.05008955  1  0.021696  4.2e-05  0.086683  0.121807  1.8e-05  1.036175  0.0
H  H124  1  0.72215822  0.12731476  0.86465287  1  0.065891  0.000579  0.093093  0.131428  0.000326  1.027004  0.0
H  H125  1  0.27784907  0.12731366  0.13534259  1  0.065723  0.000579  0.093155  0.13149  0.000326  1.026951  0.0
H  H126  1  0.22213321  0.87268694  0.63534367  1  0.06608  0.00058  0.093129  0.13145  0.000326  1.027028  0.0
H  H127  1  0.77784382  0.87268575  0.36465360  1  0.065947  0.000579  0.093097  0.131412  0.000326  1.027007  0.0
H  H128  1  0.60041286  0.07632390  0.89771990  1  0.046217  -3e-06  0.095966  0.142692  -7e-05  0.985299  0.0
H  H129  1  0.39959290  0.07632364  0.10227558  1  0.046143  -3e-06  0.095983  0.142709  -7e-05  0.985213  0.0
H  H130  1  0.10039830  0.92368273  0.60227495  1  0.046657  -3e-06  0.095932  0.142658  -7e-05  0.985139  0.0
H  H131  1  0.89958910  0.92367722  0.39771940  1  0.046164  -3e-06  0.09597  0.142704  -7e-05  0.985281  0.0
H  H132  1  0.68557420  0.15256822  0.93515773  1  0.023717  0.000502  0.088723  0.121961  0.000193  1.019143  0.0
H  H133  1  0.31443430  0.15256743  0.06483730  1  0.023445  0.000502  0.088751  0.12201  0.000193  1.019059  0.0
H  H134  1  0.18555181  0.84743325  0.56483739  1  0.023449  0.000502  0.088739  0.121911  0.000193  1.019125  0.0
H  H135  1  0.81442579  0.84743413  0.43515906  1  0.023681  0.000502  0.08872  0.121988  0.000193  1.019129  0.0
C  C136  1  0.36897837  0.34233062  0.20243836  1  0.030056  -0.014061  0.007292  0.097444  -0.015173  3.985889  -0.008
C  C137  1  0.63102636  0.34232927  0.79756283  1  0.029903  -0.014058  0.007268  0.097373  -0.015171  3.986099  -0.008
C  C138  1  0.86898118  0.65766558  0.29755847  1  0.03001  -0.014059  0.007222  0.097216  -0.01517  3.986023  -0.008
C  C139  1  0.13101873  0.65767120  0.70244178  1  0.030545  -0.01406  0.007238  0.097355  -0.015171  3.985843  -0.008
C  C140  1  0.15018063  0.15562017  0.30457655  1  -0.081943  -0.013465  0.009252  0.097725  -0.014217  3.990825  -0.008
C  C141  1  0.84982349  0.15561529  0.69542222  1  -0.081884  -0.013465  0.009251  0.097862  -0.014216  3.990508  -0.008
C  C142  1  0.65017908  0.84438221  0.19542088  1  -0.081881  -0.013468  0.009257  0.097799  -0.01422  3.990747  -0.008
C  C143  1  0.34981614  0.84438408  0.80457889  1  -0.081857  -0.013466  0.009302  0.097774  -0.014218  3.990782  -0.008
C  C144  1  0.75921785  0.34482882  0.32410664  1  1.538843  -0.000112  0.214525  0.575154  -0.001472  4.199466  0.002
C  C145  1  0.24078956  0.34482118  0.67589330  1  1.538854  -0.000116  0.214202  0.57457  -0.001472  4.200096  0.002
C  C146  1  0.25921362  0.65517748  0.17589506  1  1.538882  -0.00011  0.214334  0.57479  -0.001469  4.199911  0.002
C  C147  1  0.74077920  0.65517619  0.82411017  1  1.539314  -0.000117  0.214575  0.575103  -0.001471  4.199633  0.002
C  C148  1  0.78080428  0.96034925  0.87920512  1  1.578516  -0.00396  0.197452  0.541197  -0.00561  4.168496  -0.005
C  C149  1  0.21919418  0.96035224  0.12079212  1  1.578572  -0.003961  0.197514  0.541252  -0.00561  4.168264  -0.005
C  C150  1  0.28080442  0.03964648  0.62079354  1  1.578529  -0.003961  0.197476  0.541174  -0.005611  4.168495  -0.005
C  C151  1  0.71919380  0.03964042  0.37919988  1  1.578542  -0.003961  0.197566  0.541339  -0.005613  4.168074  -0.005
C  C152  1  0.69872441  0.54396693  0.62541178  1  1.553231  -0.004055  0.195952  0.538027  -0.005648  4.177261  -0.005
C  C153  1  0.30127494  0.54396765  0.37458768  1  1.553529  -0.004053  0.195986  0.538179  -0.005647  4.177041  -0.005
C  C154  1  0.19872331  0.45603462  0.87458948  1  1.553174  -0.004054  0.195907  0.53797  -0.005648  4.177178  -0.005
C  C155  1  0.80127845  0.45604019  0.12541540  1  1.553397  -0.004055  0.19592  0.538162  -0.005649  4.176923  -0.005
C  C156  1  0.75771911  0.15519378  0.18205422  1  1.525605  0.003677  0.210592  0.563774  0.00202  4.22317  0.004
C  C157  1  0.24227970  0.15518537  0.81794164  1  1.525525  0.003675  0.21054  0.563759  0.002018  4.223719  0.004
C  C158  1  0.25772197  0.84480868  0.31794459  1  1.5255  0.003674  0.210524  0.563678  0.002018  4.223537  0.004
C  C159  1  0.74227767  0.84480819  0.68205518  1  1.525577  0.003679  0.210595  0.563767  0.002021  4.223252  0.004
C  C160  1  0.05284446  0.37628497  0.24699900  1  0.425751  -0.00798  0.046324  0.09518  -0.008623  3.943064  -0.005
C  C161  1  0.94715982  0.37628577  0.75300301  1  0.425562  -0.007978  0.046341  0.095182  -0.00862  3.943377  -0.005
C  C162  1  0.55284549  0.62371676  0.25299865  1  0.425805  -0.007978  0.046376  0.095259  -0.008622  3.943241  -0.005
C  C163  1  0.44715576  0.62371807  0.74699995  1  0.42585  -0.007978  0.046319  0.095191  -0.008621  3.943331  -0.005
C  C164  1  0.04935511  0.31728861  0.15947808  1  0.494446  -0.008639  0.045067  0.097471  -0.009251  3.948683  -0.005
C  C165  1  0.95064665  0.31728807  0.84052312  1  0.494375  -0.008637  0.045073  0.097451  -0.009249  3.948669  -0.005
C  C166  1  0.54935787  0.68270610  0.34052374  1  0.494413  -0.008638  0.044959  0.097333  -0.009251  3.948809  -0.005
C  C167  1  0.45064501  0.68270625  0.65947733  1  0.494446  -0.008636  0.04498  0.097392  -0.009249  3.948926  -0.005
C  C168  1  0.81111202  0.14946729  0.08107412  1  -0.025261  0.000761  -0.084126  -0.059924  0.000187  3.987792  0.001
C  C169  1  0.18888584  0.14945969  0.91892216  1  -0.025166  0.00076  -0.084219  -0.059896  0.000186  3.987932  0.001
C  C170  1  0.31111730  0.85053489  0.41892351  1  -0.025231  0.00076  -0.084166  -0.059898  0.000186  3.987655  0.001
C  C171  1  0.68888771  0.85053479  0.58107585  1  -0.025183  0.000762  -0.084145  -0.059939  0.000188  3.987804  0.001
C  C172  1  0.96461743  0.11394037  0.26362588  1  0.487664  -0.008329  0.047719  0.109937  -0.008887  3.944144  -0.005
C  C173  1  0.03538351  0.11393003  0.73637124  1  0.487674  -0.00833  0.047654  0.109864  -0.008888  3.944287  -0.005
C  C174  1  0.46461967  0.88606602  0.23637116  1  0.487705  -0.008334  0.047717  0.109942  -0.008892  3.944125  -0.005
C  C175  1  0.53537962  0.88606661  0.76362818  1  0.487596  -0.00833  0.047655  0.109875  -0.008888  3.944253  -0.005
C  C176  1  0.55570841  0.39776171  0.23442737  1  0.379192  -0.009693  0.046018  0.104361  -0.010243  3.940127  -0.006
C  C177  1  0.44429526  0.39775469  0.76557173  1  0.377789  -0.009691  0.046007  0.104389  -0.010246  3.94013  -0.006
C  C178  1  0.05571237  0.60223941  0.26556901  1  0.379134  -0.009695  0.046034  0.104561  -0.010245  3.940327  -0.006
C  C179  1  0.94428861  0.60224339  0.73443333  1  0.379173  -0.009694  0.046013  0.104419  -0.010244  3.940127  -0.006
C  C180  1  0.17175938  0.31224988  0.15794622  1  -0.054056  0.002078  -0.085209  -0.179084  0.000624  3.959267  0.002
C  C181  1  0.82824497  0.31224852  0.84205374  1  -0.053544  0.002077  -0.085242  -0.17917  0.000623  3.959409  0.002
C  C182  1  0.67175950  0.68774692  0.34205107  1  -0.054194  0.002078  -0.085113  -0.179043  0.000624  3.959546  0.002
C  C183  1  0.32824255  0.68774943  0.65794834  1  -0.054024  0.002079  -0.085179  -0.179088  0.000624  3.959559  0.002
C  C184  1  0.96062303  0.18658153  0.34652216  1  0.505077  -0.00865  0.045779  0.099145  -0.00946  3.940285  -0.005
C  C185  1  0.03938148  0.18657258  0.65347577  1  0.505151  -0.008649  0.045834  0.099353  -0.009459  3.940187  -0.005
C  C186  1  0.46062235  0.81342546  0.15347616  1  0.505088  -0.00865  0.045805  0.099265  -0.00946  3.940421  -0.005
C  C187  1  0.53937336  0.81342282  0.84652321  1  0.505073  -0.008651  0.045756  0.099196  -0.009461  3.940381  -0.005
C  C188  1  0.43463447  0.28951766  0.16696271  1  -0.07294  0.00214  -0.085812  -0.175673  0.000621  3.944224  0.002
C  C189  1  0.56537135  0.28951711  0.83304348  1  -0.07276  0.00214  -0.085872  -0.175642  0.000621  3.944249  0.002
C  C190  1  0.93463691  0.71048279  0.33303577  1  -0.072684  0.002139  -0.08573  -0.175526  0.000621  3.944202  0.002
C  C191  1  0.06536808  0.71048483  0.66696363  1  -0.072956  0.002141  -0.085846  -0.175699  0.000621  3.944243  0.002
C  C192  1  0.68489699  0.47664177  0.58012841  1  0.447852  0.003507  0.007839  0.108145  0.001985  3.870376  0.002
C  C193  1  0.31510149  0.47664062  0.41987107  1  0.447788  0.003505  0.007883  0.108201  0.001985  3.870316  0.002
C  C194  1  0.18489632  0.52335905  0.91987377  1  0.447905  0.003506  0.007919  0.108345  0.001985  3.870129  0.002
C  C195  1  0.81510365  0.52335840  0.08012902  1  0.447562  0.003506  0.007888  0.108271  0.001984  3.870361  0.002
C  C196  1  0.77226110  0.03034131  0.92309880  1  0.433293  0.003162  0.009175  0.108617  0.001802  3.861829  0.002
C  C197  1  0.22774320  0.03033930  0.07689586  1  0.433266  0.003162  0.009074  0.108434  0.001801  3.861893  0.002
C  C198  1  0.27225227  0.96965818  0.57689742  1  0.433357  0.003162  0.009185  0.108476  0.001801  3.861884  0.002
C  C199  1  0.72774101  0.96966168  0.42309898  1  0.433667  0.00316  0.009138  0.108509  0.001801  3.861832  0.002
C  C200  1  0.08311125  0.19120901  0.34788215  1  -0.081817  0.001916  -0.083761  -0.177912  0.000544  3.959655  0.002
C  C201  1  0.91689509  0.19120526  0.65211618  1  -0.081565  0.001917  -0.083687  -0.177928  0.000545  3.959496  0.002
C  C202  1  0.58310963  0.80879165  0.15211322  1  -0.08159  0.001918  -0.083725  -0.178089  0.000545  3.95967  0.002
C  C203  1  0.41688425  0.80879456  0.84788407  1  -0.081756  0.001916  -0.083763  -0.177999  0.000544  3.959651  0.002
C  C204  1  0.34611493  0.21078899  0.33894157  1  -0.068149  0.002279  -0.085372  -0.177125  0.000711  3.959198  0.003
C  C205  1  0.65388989  0.21078475  0.66105801  1  -0.063418  0.00228  -0.085463  -0.177154  0.000712  3.959092  0.003
C  C206  1  0.84611457  0.78921088  0.16105791  1  -0.068372  0.002279  -0.0854  -0.177062  0.000711  3.959284  0.003
C  C207  1  0.15388172  0.78921650  0.83894520  1  -0.068742  0.002279  -0.085363  -0.176944  0.000711  3.959256  0.003
C  C208  1  0.75601232  0.38640626  0.37937276  1  -0.073299  0.009389  -0.038573  -0.083855  0.004794  4.030835  0.007
C  C209  1  0.24399209  0.38640316  0.62062800  1  -0.073109  0.00939  -0.038551  -0.08372  0.004794  4.030648  0.007
C  C210  1  0.25601359  0.61359747  0.12062937  1  -0.073267  0.009388  -0.038476  -0.083624  0.004793  4.030546  0.007
C  C211  1  0.74397870  0.61359678  0.87937587  1  -0.073231  0.009389  -0.038587  -0.083749  0.004794  4.030597  0.007
C  C212  1  0.17535556  0.37415576  0.24861223  1  0.004179  0.001467  -0.082895  -0.170689  0.000161  3.928187  0.002
C  C213  1  0.82464869  0.37415830  0.75139061  1  0.004241  0.001467  -0.082942  -0.17081  0.00016  3.928422  0.002
C  C214  1  0.67535578  0.62584551  0.25138545  1  0.004257  0.001467  -0.082919  -0.170708  0.000161  3.928255  0.002
C  C215  1  0.32464196  0.62584791  0.74861564  1  0.004231  0.001467  -0.082898  -0.170729  0.000161  3.928337  0.002
C  C216  1  0.43330941  0.39838013  0.23647967  1  0.026165  0.00212  -0.083204  -0.177192  0.000562  3.913373  0.002
C  C217  1  0.56669692  0.39836948  0.76352067  1  0.026151  0.00212  -0.083238  -0.177116  0.000562  3.913529  0.002
C  C218  1  0.93331161  0.60162350  0.26351716  1  0.026106  0.00212  -0.083207  -0.177298  0.000562  3.913576  0.002
C  C219  1  0.06669023  0.60162865  0.73648726  1  0.025519  0.002122  -0.083202  -0.177196  0.000563  3.913325  0.002
C  C220  1  0.55709706  0.29370408  0.16713787  1  0.530482  -0.009546  0.048407  0.108676  -0.010388  3.936876  -0.006
C  C221  1  0.44290617  0.29370272  0.83286791  1  0.529924  -0.009543  0.048479  0.108646  -0.010385  3.936922  -0.006
C  C222  1  0.05709684  0.70629450  0.33286307  1  0.530442  -0.00954  0.048386  0.108647  -0.010382  3.936885  -0.006
C  C223  1  0.94290546  0.70629409  0.66713799  1  0.530236  -0.009544  0.048412  0.108715  -0.010386  3.936818  -0.006
C  C224  1  0.46868524  0.20761439  0.33801067  1  0.52882  -0.008414  0.046731  0.099609  -0.008975  3.94543  -0.005
C  C225  1  0.53131336  0.20761124  0.66199057  1  0.528967  -0.008417  0.046683  0.099532  -0.008978  3.945517  -0.005
C  C226  1  0.96868842  0.79238502  0.16198842  1  0.528772  -0.008416  0.046699  0.099608  -0.008977  3.945306  -0.005
C  C227  1  0.03130967  0.79238728  0.83801137  1  0.528828  -0.008415  0.046667  0.099497  -0.008975  3.945575  -0.005
C  C228  1  0.08689285  0.11622496  0.26150213  1  -0.032957  0.001523  -0.082166  -0.173207  0.000261  3.91094  0.002
C  C229  1  0.91310724  0.11621854  0.73849665  1  -0.033033  0.001524  -0.082106  -0.173136  0.000263  3.910945  0.002
C  C230  1  0.58689584  0.88377700  0.23849405  1  -0.03308  0.001525  -0.082085  -0.173079  0.000263  3.911031  0.002
C  C231  1  0.41310518  0.88378189  0.76150487  1  -0.032999  0.001524  -0.082124  -0.173171  0.000262  3.910958  0.002
C  C232  1  0.34447345  0.10118544  0.26987285  1  0.033151  0.001895  -0.082311  -0.173927  0.000501  3.917536  0.002
C  C233  1  0.65552998  0.10118687  0.73013133  1  0.033861  0.001897  -0.082238  -0.173645  0.000503  3.917253  0.002
C  C234  1  0.84447158  0.89881569  0.23012664  1  0.033176  0.001894  -0.082365  -0.173976  0.000501  3.917462  0.002
C  C235  1  0.15552522  0.89881758  0.76987311  1  0.033112  0.001894  -0.082295  -0.173902  0.000501  3.917427  0.002
C  C236  1  0.28025075  0.15639477  0.30451595  1  0.04729  -0.013384  0.007575  0.09772  -0.014476  3.987136  -0.008
C  C237  1  0.71974897  0.15639412  0.69548531  1  0.046665  -0.013383  0.007515  0.097539  -0.014474  3.987046  -0.008
C  C238  1  0.78025272  0.84360338  0.19548146  1  0.04726  -0.013381  0.0075  0.097611  -0.014472  3.987109  -0.008
C  C239  1  0.21974691  0.84361011  0.80451872  1  0.047601  -0.013384  0.007531  0.097654  -0.014475  3.987158  -0.008
C  C240  1  0.46692717  0.10268772  0.27113497  1  0.385467  -0.009085  0.045802  0.098086  -0.009823  3.947632  -0.006
C  C241  1  0.53307362  0.10269088  0.72887087  1  0.388357  -0.009084  0.045671  0.097826  -0.009823  3.947692  -0.006
C  C242  1  0.96692621  0.89731359  0.22886331  1  0.385437  -0.009082  0.04583  0.098227  -0.00982  3.94767  -0.006
C  C243  1  0.03307234  0.89731275  0.77113562  1  0.385418  -0.009084  0.045753  0.098058  -0.009822  3.947798  -0.006
C  C244  1  0.72099351  0.37965307  0.47888443  1  -0.029986  0.000852  -0.115633  -0.236769  0.000408  4.022512  0.001
C  C245  1  0.27900375  0.37965222  0.52111467  1  -0.030127  0.000852  -0.115589  -0.236634  0.000408  4.022355  0.001
C  C246  1  0.22099424  0.62034787  0.02111752  1  -0.029978  0.000851  -0.115641  -0.236765  0.000408  4.022574  0.001
C  C247  1  0.77900520  0.62034604  0.97888731  1  -0.030161  0.000852  -0.115597  -0.236703  0.000408  4.02238  0.001
C  C248  1  0.73080683  0.46878627  0.48207886  1  0.478772  0.000165  0.091234  0.275203  -2e-05  4.056343  0.0
C  C249  1  0.26919421  0.46878472  0.51792146  1  0.478961  0.000163  0.091159  0.275045  -2.1e-05  4.056399  0.0
C  C250  1  0.23080386  0.53121410  0.01792385  1  0.478866  0.000166  0.091204  0.275044  -1.9e-05  4.056481  0.0
C  C251  1  0.76919356  0.53121348  0.98207976  1  0.478903  0.000165  0.091251  0.275207  -2e-05  4.05637  0.0
C  C252  1  0.75302477  0.11352782  0.12680389  1  -0.006458  0.009533  -0.039568  -0.086796  0.005015  4.028902  0.007
C  C253  1  0.24697175  0.11352511  0.87319157  1  -0.006509  0.009534  -0.0394  -0.086731  0.005016  4.02916  0.007
C  C254  1  0.25303008  0.88647525  0.37319245  1  -0.006513  0.009534  -0.039482  -0.086834  0.005015  4.028909  0.007
C  C255  1  0.74697186  0.88647294  0.62680606  1  -0.006499  0.009533  -0.039475  -0.086694  0.005015  4.028794  0.007
C  C256  1  0.68352300  0.99879321  0.06776482  1  -0.008205  0.000878  -0.105876  -0.20532  0.000377  3.991959  0.001
C  C257  1  0.31648125  0.99879090  0.93223283  1  -0.007797  0.000878  -0.105881  -0.205281  0.000377  3.99208  0.001
C  C258  1  0.18352416  0.00120812  0.43223240  1  -0.007309  0.000878  -0.105847  -0.205221  0.000377  3.991953  0.001
C  C259  1  0.81647888  0.00120761  0.56776476  1  -0.008246  0.000877  -0.105816  -0.205199  0.000376  3.991985  0.001
C  C260  1  0.77274253  0.47477803  0.38371805  1  0.023691  0.000643  -0.08855  -0.07152  -8.5e-05  4.006821  0.0
C  C261  1  0.22725859  0.47477483  0.61628310  1  0.023747  0.000642  -0.088521  -0.071479  -8.5e-05  4.006821  0.0
C  C262  1  0.27273838  0.52522389  0.11628439  1  0.023851  0.000644  -0.088556  -0.071548  -8.4e-05  4.006796  0.0
C  C263  1  0.72724925  0.52522436  0.88371922  1  0.023872  0.000643  -0.088562  -0.071618  -8.5e-05  4.006838  0.0
C  C264  1  0.75922175  0.51570351  0.43415700  1  -0.054795  0.000836  -0.105356  -0.205392  0.000358  4.003049  0.001
C  C265  1  0.24077547  0.51570044  0.56584289  1  -0.0552  0.000836  -0.105248  -0.205271  0.000358  4.003108  0.001
C  C266  1  0.25922032  0.48430024  0.06584553  1  -0.054944  0.000835  -0.105284  -0.205293  0.000358  4.00334  0.001
C  C267  1  0.74077032  0.48429757  0.93415935  1  -0.055218  0.000836  -0.105301  -0.205329  0.000358  4.003109  0.001
C  C268  1  0.23875193  0.34174573  0.20316011  1  -0.108633  -0.013279  0.007668  0.094336  -0.013924  3.986239  -0.008
C  C269  1  0.76125014  0.34174207  0.79684191  1  -0.108849  -0.013277  0.007711  0.094396  -0.013921  3.986251  -0.008
C  C270  1  0.73875388  0.65825342  0.29683799  1  -0.108478  -0.013278  0.007664  0.094478  -0.013923  3.986181  -0.008
C  C271  1  0.26124692  0.65825863  0.70316351  1  -0.108627  -0.013276  0.007748  0.094452  -0.013921  3.986262  -0.008
C  C272  1  0.68923195  0.03751975  0.11931325  1  -0.077226  0.00092  -0.087742  -0.070954  0.000109  4.009555  0.001
C  C273  1  0.31077155  0.03751555  0.88068431  1  -0.077252  0.000919  -0.0878  -0.071041  0.000108  4.009316  0.001
C  C274  1  0.18923536  0.96247971  0.38068392  1  -0.077343  0.000919  -0.087755  -0.07099  0.000108  4.009348  0.001
C  C275  1  0.81076931  0.96248165  0.61931290  1  -0.077258  0.000921  -0.087809  -0.071141  0.000109  4.009402  0.001
C  C276  1  0.74233603  0.03516371  0.02209581  1  0.458338  0.000362  0.091159  0.280898  0.000107  4.051354  0.0
C  C277  1  0.25766567  0.03515651  0.97789885  1  0.459003  0.00036  0.091198  0.280869  0.000106  4.051212  0.0
C  C278  1  0.24233663  0.96483737  0.47789936  1  0.458632  0.000361  0.091241  0.281041  0.000106  4.050992  0.0
C  C279  1  0.75766366  0.96483842  0.52209788  1  0.458704  0.000363  0.091186  0.280877  0.000107  4.051129  0.0
C  C280  1  0.73158486  0.33937316  0.42753491  1  -0.054633  0.000414  -0.084743  -0.069832  -9.9e-05  3.98045  0.0
C  C281  1  0.26841630  0.33937282  0.57246337  1  -0.054871  0.000413  -0.084792  -0.069867  -0.0001  3.980393  0.0
C  C282  1  0.23158460  0.66062785  0.07246614  1  -0.05486  0.000415  -0.08479  -0.069941  -9.7e-05  3.98039  0.0
C  C283  1  0.76841181  0.66062792  0.92753868  1  -0.054615  0.000414  -0.08477  -0.069891  -9.8e-05  3.98037  0.0
C  C284  1  0.80686983  0.11091394  0.02906766  1  -0.076575  0.000832  -0.116484  -0.241098  0.000375  4.029973  0.001
C  C285  1  0.19312224  0.11090759  0.97092780  1  -0.076432  0.000832  -0.116475  -0.24113  0.000375  4.029813  0.001
C  C286  1  0.30687408  0.88908821  0.47092916  1  -0.076698  0.000832  -0.116517  -0.241151  0.000375  4.029853  0.001
C  C287  1  0.69312524  0.88908756  0.52906976  1  -0.076693  0.000832  -0.11654  -0.241149  0.000375  4.029847  0.001
C  C288  1  0.55787002  0.44365491  0.58198567  1  -0.04843  6.9e-05  -0.24755  -0.425995  -0.000158  3.914349  0.0
C  C289  1  0.44212717  0.44365461  0.41801175  1  -0.048509  7e-05  -0.247494  -0.426083  -0.000158  3.914333  0.0
C  C290  1  0.05787159  0.55634762  0.91801692  1  -0.04838  7e-05  -0.247519  -0.426218  -0.000157  3.914447  0.0
C  C291  1  0.94212792  0.55634971  0.08198378  1  -0.048202  6.9e-05  -0.247576  -0.42633  -0.000158  3.914423  0.0
C  C292  1  0.68991771  0.10147466  0.90411603  1  -0.071815  0.000893  -0.247238  -0.428284  0.000495  3.940301  0.0
C  C293  1  0.31008661  0.10147382  0.09587902  1  -0.071255  0.000892  -0.247334  -0.428409  0.000495  3.940114  0.0
C  C294  1  0.18990125  0.89852810  0.59587989  1  -0.072657  0.000892  -0.247257  -0.428161  0.000495  3.940061  0.0
C  C295  1  0.81008495  0.89852708  0.40411612  1  -0.072166  0.000892  -0.247273  -0.428323  0.000495  3.940249  0.0
N  N296  1  0.90062677  0.14872385  0.30491236  1  -1.198871  0.043305  -0.3247  -0.248824  0.022992  3.571703  0.042
N  N297  1  0.09937726  0.14871271  0.69508641  1  -1.1989  0.043307  -0.324736  -0.24888  0.022992  3.5717  0.042
N  N298  1  0.40062182  0.85128401  0.19508510  1  -1.198929  0.043304  -0.324816  -0.248968  0.022991  3.571831  0.042
N  N299  1  0.59937348  0.85127990  0.80491218  1  -1.198852  0.043303  -0.324728  -0.248837  0.022991  3.57165  0.042
N  N300  1  0.61825311  0.34586807  0.20092104  1  -1.166032  0.044445  -0.325232  -0.246763  0.023392  3.59048  0.043
N  N301  1  0.38175343  0.34586634  0.79908347  1  -1.164686  0.044445  -0.325214  -0.246666  0.023393  3.590355  0.043
N  N302  1  0.11825057  0.65412901  0.29907785  1  -1.165968  0.04445  -0.325274  -0.24688  0.023394  3.590692  0.043
N  N303  1  0.88174665  0.65413070  0.70092241  1  -1.165996  0.044447  -0.325295  -0.246847  0.023393  3.590497  0.043
N  N304  1  0.98926263  0.34873044  0.20323030  1  -1.212486  0.044671  -0.322301  -0.234738  0.023377  3.550445  0.042
N  N305  1  0.01073953  0.34873070  0.79677006  1  -1.212616  0.044667  -0.32228  -0.234659  0.023374  3.550507  0.042
N  N306  1  0.48926807  0.65126783  0.29676825  1  -1.21247  0.044672  -0.322265  -0.234681  0.023377  3.550497  0.042
N  N307  1  0.51073618  0.65126706  0.70323284  1  -1.212609  0.044671  -0.322286  -0.234692  0.023376  3.550712  0.042
N  N308  1  0.52934438  0.15452001  0.30462429  1  -1.205534  0.049248  -0.323792  -0.233926  0.025941  3.566212  0.046
N  N309  1  0.47065531  0.15451898  0.69537987  1  -1.205562  0.049251  -0.323668  -0.233686  0.025941  3.566189  0.046
N  N310  1  0.02934730  0.84548220  0.19537683  1  -1.205533  0.049246  -0.323756  -0.234003  0.025939  3.566116  0.046
N  N311  1  0.97065059  0.84548311  0.80462460  1  -1.205611  0.049248  -0.323667  -0.233829  0.02594  3.566302  0.046
O  O312  1  0.70609755  0.11783268  0.22261686  1  -1.154153  0.091801  -0.309494  -0.548986  0.048089  2.412182  0.076
O  O313  1  0.29389726  0.11782529  0.77738026  1  -1.154366  0.091803  -0.309457  -0.548924  0.048089  2.412248  0.076
O  O314  1  0.20610384  0.88216625  0.27738311  1  -1.154134  0.091805  -0.30948  -0.548898  0.048091  2.412129  0.076
O  O315  1  0.79390334  0.88216352  0.72261540  1  -1.154051  0.091793  -0.3095  -0.548941  0.048092  2.41204  0.076
O  O316  1  0.80614190  0.38511915  0.28349380  1  -1.153726  0.08913  -0.307852  -0.54652  0.046725  2.393594  0.073
O  O317  1  0.19387221  0.38511689  0.71650696  1  -1.153613  0.089138  -0.307705  -0.546364  0.046725  2.39345  0.073
O  O318  1  0.30614392  0.61488363  0.21650552  1  -1.153665  0.089143  -0.307828  -0.546434  0.046731  2.393509  0.073
O  O319  1  0.69385368  0.61488462  0.78349765  1  -1.154033  0.089139  -0.30781  -0.546434  0.046726  2.393497  0.073
O  O320  1  0.81528035  0.22460097  0.18701445  1  -1.167845  0.096516  -0.315924  -0.57416  0.049872  2.522209  0.08
O  O321  1  0.18472553  0.22459537  0.81298429  1  -1.167628  0.096525  -0.315927  -0.574214  0.049873  2.522475  0.08
O  O322  1  0.31527806  0.77540187  0.31298357  1  -1.167801  0.096516  -0.315891  -0.574076  0.049871  2.522352  0.08
O  O323  1  0.68471452  0.77540227  0.68701664  1  -1.167875  0.096514  -0.315953  -0.574225  0.049871  2.522321  0.079
O  O324  1  0.79635497  0.98393236  0.82897574  1  -1.163651  0.071811  -0.316173  -0.554753  0.037134  2.239502  0.061
O  O325  1  0.20364732  0.98393200  0.17102191  1  -1.163674  0.071811  -0.316165  -0.554679  0.037133  2.239493  0.061
O  O326  1  0.29635246  0.01606475  0.67102240  1  -1.163779  0.07181  -0.31619  -0.554705  0.037132  2.239625  0.061
O  O327  1  0.70364635  0.01606692  0.32897642  1  -1.164009  0.071763  -0.316125  -0.55463  0.037109  2.239946  0.061
O  O328  1  0.70093847  0.51748201  0.67547716  1  -1.160126  0.071717  -0.313509  -0.555563  0.036893  2.252066  0.061
O  O329  1  0.29905259  0.51747831  0.32452189  1  -1.160224  0.071721  -0.313508  -0.555601  0.036894  2.251751  0.061
O  O330  1  0.20094271  0.48252210  0.82452367  1  -1.160093  0.071711  -0.313477  -0.555543  0.036889  2.25191  0.061
O  O331  1  0.79906027  0.48252252  0.17547955  1  -1.160289  0.071703  -0.313505  -0.555566  0.036884  2.252032  0.061
O  O332  1  0.77275624  0.88256191  0.89225948  1  -1.144687  0.077354  -0.309655  -0.534204  0.039809  2.232963  0.067
O  O333  1  0.22723947  0.88256050  0.10773820  1  -1.144627  0.077367  -0.309696  -0.534276  0.039816  2.232682  0.067
O  O334  1  0.27276482  0.11743823  0.60774088  1  -1.144531  0.077369  -0.309662  -0.534214  0.039817  2.232802  0.067
O  O335  1  0.72724235  0.11744430  0.39225831  1  -1.144397  0.077409  -0.3098  -0.534421  0.039839  2.232069  0.067
O  O336  1  0.71068956  0.27217152  0.31914514  1  -1.172481  0.099988  -0.315809  -0.575981  0.052109  2.560887  0.084
O  O337  1  0.28931075  0.27216548  0.68085193  1  -1.172727  0.099962  -0.315691  -0.575635  0.052097  2.561277  0.084
O  O338  1  0.21068610  0.72782935  0.18085729  1  -1.172661  0.099963  -0.315683  -0.575731  0.052097  2.561256  0.084
O  O339  1  0.78930587  0.72783031  0.81914916  1  -1.172602  0.099972  -0.31589  -0.576022  0.052101  2.561111  0.084
O  O340  1  0.70063093  0.62256217  0.61385237  1  -1.12024  0.080351  -0.310068  -0.528969  0.041292  2.217784  0.07
O  O341  1  0.29937913  0.62256032  0.38614665  1  -1.12046  0.080342  -0.310053  -0.528998  0.041287  2.21795  0.07
O  O342  1  0.20061967  0.37743875  0.88614722  1  -1.120197  0.080359  -0.31007  -0.528994  0.041295  2.21792  0.07
O  O343  1  0.79938197  0.37743860  0.11385645  1  -1.120214  0.080378  -0.310021  -0.529089  0.041306  2.217615  0.07
O  O344  1  0.73089571  0.99181132  0.97353104  1  -1.065469  0.002418  -0.170391  -0.208082  0.001228  2.53423  0.002
O  O345  1  0.26910757  0.99180519  0.02646661  1  -1.06597  0.002417  -0.17034  -0.207994  0.001228  2.533977  0.002
O  O346  1  0.23089732  0.00819044  0.52646587  1  -1.065872  0.002417  -0.17051  -0.208183  0.001228  2.53398  0.002
O  O347  1  0.76910404  0.00819162  0.47353088  1  -1.06586  0.002419  -0.170366  -0.207993  0.001229  2.533844  0.002
O  O348  1  0.71399020  0.51669395  0.52835674  1  -1.058523  0.002308  -0.170788  -0.20665  0.001179  2.542513  0.001
O  O349  1  0.28600880  0.51669064  0.47164232  1  -1.0585  0.002307  -0.170782  -0.2066  0.001178  2.54259  0.001
O  O350  1  0.21398573  0.48330834  0.97164525  1  -1.05847  0.002309  -0.170819  -0.206633  0.001179  2.542471  0.001
O  O351  1  0.78601461  0.48330500  0.02835796  1  -1.05847  0.002308  -0.170887  -0.206731  0.001179  2.542535  0.001
