# generated using pymatgen
data_ZnH21C20Br(NO)4
_symmetry_space_group_name_H-M   'P 1'
_cell_length_a   8.83298272
_cell_length_b   20.42222571
_cell_length_c   26.26066796
_cell_angle_alpha   89.99992374
_cell_angle_beta   89.99962462
_cell_angle_gamma   90.00018547
_symmetry_Int_Tables_number   1
_chemical_formula_structural   ZnH21C20Br(NO)4
_chemical_formula_sum   'Zn8 H168 C160 Br8 N32 O32'
_cell_volume   4737.14001066
_cell_formula_units_Z   8
loop_
 _symmetry_equiv_pos_site_id
 _symmetry_equiv_pos_as_xyz
  1  'x, y, z'
loop_
 _atom_site_type_symbol
 _atom_site_label
 _atom_site_symmetry_multiplicity
 _atom_site_fract_x
 _atom_site_fract_y
 _atom_site_fract_z
 _atom_site_occupancy
 _atom_site_pbe_bader_charge
 _atom_site_pbe_bader_spin_density
 _atom_site_pbe_cm5_charge
 _atom_site_pbe_ddec_charge
 _atom_site_pbe_ddec_spin_density
 _atom_site_pbe_ddec_sum_bond_order
 _atom_site_pbe_magmom
Zn  Zn0  1  0.40789165  0.74999940  0.50000550  1  1.256648  0  0.685381  0.794858  0  2.367108  0
Zn  Zn1  1  0.09210660  0.75000657  0.99999884  1  1.256553  0  0.68534  0.794707  0  2.367328  0
Zn  Zn2  1  0.59212660  0.25000066  0.49999870  1  1.256913  0  0.685263  0.794616  0  2.367236  0
Zn  Zn3  1  0.90790033  0.24999985  0.00000613  1  1.256497  0  0.685397  0.794834  0  2.36699  0
Zn  Zn4  1  0.25000012  0.08219429  0.74999927  1  1.256546  0  0.684226  0.79218  0  2.334397  0
Zn  Zn5  1  0.25000743  0.41781681  0.25000078  1  1.256362  0  0.684362  0.792458  0  2.334071  0
Zn  Zn6  1  0.74999549  0.91780822  0.24999846  1  1.256342  0  0.684162  0.792092  0  2.334338  0
Zn  Zn7  1  0.75001422  0.58219206  0.74999315  1  1.256332  0  0.684223  0.792167  0  2.334257  0
H  H8  1  0.39075718  0.33085453  0.55851415  1  0.103256  0  0.102199  0.156745  0  1.021006  0
H  H9  1  0.39076343  0.16914307  0.44148522  1  0.103151  0  0.102194  0.156748  0  1.021034  0
H  H10  1  0.10924172  0.16914565  0.05851811  1  0.102911  0  0.102187  0.156665  0  1.020988  0
H  H11  1  0.10924597  0.33085595  0.94149024  1  0.103203  0  0.102197  0.156689  0  1.021025  0
H  H12  1  0.60923843  0.66913966  0.44149120  1  0.103045  0  0.102207  0.156766  0  1.021038  0
H  H13  1  0.60925369  0.83085601  0.55851823  1  0.102942  0  0.102182  0.156661  0  1.020985  0
H  H14  1  0.89074936  0.83085490  0.94147848  1  0.102964  0  0.102163  0.156657  0  1.021002  0
H  H15  1  0.89076435  0.66914999  0.05851130  1  0.103219  0  0.102206  0.156727  0  1.021024  0
H  H16  1  0.20356918  0.31810849  0.53562994  1  0.070218  0  0.096247  0.143435  0  1.01956  0
H  H17  1  0.20357506  0.18189030  0.46436945  1  0.070285  0  0.096242  0.14345  0  1.019587  0
H  H18  1  0.29643924  0.18189515  0.03563844  1  0.070429  0  0.096312  0.143536  0  1.019554  0
H  H19  1  0.29644068  0.31810672  0.96436760  1  0.070201  0  0.096253  0.143417  0  1.019557  0
H  H20  1  0.79644115  0.68188716  0.46436817  1  0.07017  0  0.096224  0.143422  0  1.019544  0
H  H21  1  0.79644546  0.81810291  0.53563781  1  0.070348  0  0.096254  0.143455  0  1.019613  0
H  H22  1  0.70355411  0.81810247  0.96436044  1  0.070401  0  0.096254  0.143444  0  1.01964  0
H  H23  1  0.70356399  0.68189334  0.03563432  1  0.070338  0  0.096247  0.143437  0  1.019541  0
H  H24  1  0.23853633  0.31927435  0.60192639  1  0.071109  0  0.101117  0.150815  0  0.981543  0
H  H25  1  0.23853559  0.18072205  0.39807102  1  0.070973  0  0.101148  0.150847  0  0.981572  0
H  H26  1  0.26145945  0.18072085  0.10193610  1  0.070827  0  0.101192  0.150858  0  0.981655  0
H  H27  1  0.26145882  0.31927557  0.89807153  1  0.07103  0  0.101108  0.15079  0  0.981595  0
H  H28  1  0.76145362  0.68071347  0.39807096  1  0.070709  0  0.101166  0.150867  0  0.981548  0
H  H29  1  0.76147247  0.81927850  0.60193623  1  0.070965  0  0.101203  0.150841  0  0.981727  0
H  H30  1  0.73853276  0.81927333  0.89806239  1  0.071005  0  0.101159  0.150857  0  0.981647  0
H  H31  1  0.73855377  0.68072449  0.10193153  1  0.070743  0  0.101119  0.150842  0  0.981481  0
H  H32  1  0.54112037  0.02090394  0.72567440  1  0.149304  0  0.107688  0.176793  0  0.998773  0
H  H33  1  0.54113104  0.47910513  0.27432883  1  0.149037  0  0.1077  0.176851  0  0.998801  0
H  H34  1  0.95888735  0.47910939  0.22566625  1  0.149045  0  0.107703  0.176873  0  0.998807  0
H  H35  1  0.95887798  0.02089931  0.77432427  1  0.149115  0  0.107708  0.176877  0  0.998636  0
H  H36  1  0.45887071  0.97909367  0.27432867  1  0.149431  0  0.107753  0.176823  0  0.998851  0
H  H37  1  0.45886683  0.52090717  0.72568337  1  0.149034  0  0.10771  0.176802  0  0.998638  0
H  H38  1  0.04112297  0.52089752  0.77432805  1  0.149136  0  0.107696  0.176833  0  0.99879  0
H  H39  1  0.04110971  0.97909439  0.22566508  1  0.149463  0  0.107721  0.176822  0  0.998841  0
H  H40  1  0.72583515  0.04910229  0.70816930  1  0.04389  0  0.097505  0.141171  0  1.014608  0
H  H41  1  0.72583961  0.45090558  0.29183048  1  0.04351  0  0.097518  0.141174  0  1.014666  0
H  H42  1  0.77417745  0.45090765  0.20816653  1  0.044027  0  0.097525  0.141215  0  1.014683  0
H  H43  1  0.77416340  0.04910079  0.79183087  1  0.043536  0  0.097515  0.141156  0  1.014618  0
H  H44  1  0.27416272  0.95088944  0.29183415  1  0.043967  0  0.097515  0.141199  0  1.014515  0
H  H45  1  0.27416732  0.54910476  0.70817144  1  0.04371  0  0.097504  0.141161  0  1.014584  0
H  H46  1  0.22583061  0.54909388  0.79183120  1  0.043963  0  0.097529  0.141196  0  1.01468  0
H  H47  1  0.22582654  0.95089095  0.20816725  1  0.044034  0  0.097477  0.141114  0  1.014648  0
H  H48  1  0.59356651  0.02471019  0.66076243  1  0.099882  0  0.096245  0.145931  0  1.005596  0
H  H49  1  0.59357133  0.47529799  0.33923916  1  0.10008  0  0.096261  0.145974  0  1.005594  0
H  H50  1  0.90643911  0.47529298  0.16075631  1  0.100404  0  0.096272  0.146015  0  1.005466  0
H  H51  1  0.90643074  0.02470928  0.83923814  1  0.099884  0  0.096253  0.14594  0  1.005687  0
H  H52  1  0.40642344  0.97528498  0.33923949  1  0.100023  0  0.096252  0.145966  0  1.005674  0
H  H53  1  0.40644579  0.52470991  0.66077038  1  0.0999  0  0.096207  0.145943  0  1.005711  0
H  H54  1  0.09355990  0.52470463  0.83923952  1  0.100495  0  0.096281  0.145991  0  1.005524  0
H  H55  1  0.09357619  0.97528099  0.16075579  1  0.100452  0  0.096234  0.145926  0  1.005671  0
H  H56  1  0.30236387  0.23283759  0.71197992  1  0.105382  0  0.113886  0.100136  0  1.039755  0
H  H57  1  0.30236595  0.26717065  0.28802230  1  0.105889  0  0.113929  0.100202  0  1.039755  0
H  H58  1  0.19763085  0.26716770  0.21198741  1  0.105437  0  0.113929  0.100128  0  1.039757  0
H  H59  1  0.19762726  0.23283891  0.78802037  1  0.105751  0  0.113914  0.100197  0  1.03976  0
H  H60  1  0.69765212  0.76716492  0.28802124  1  0.105609  0  0.113931  0.100206  0  1.039716  0
H  H61  1  0.69764212  0.73283920  0.71198419  1  0.105287  0  0.113959  0.100232  0  1.039618  0
H  H62  1  0.80237948  0.73283823  0.78801909  1  0.105839  0  0.113916  0.100168  0  1.039734  0
H  H63  1  0.80235363  0.76716213  0.21198536  1  0.105276  0  0.113953  0.100208  0  1.0397  0
H  H64  1  0.56151594  0.26953803  0.65950914  1  0.147816  0  0.132855  0.14141  0  0.98335  0
H  H65  1  0.56151671  0.23047107  0.34049252  1  0.148126  0  0.132816  0.141424  0  0.983041  0
H  H66  1  0.93847498  0.23046710  0.15952109  1  0.147838  0  0.132815  0.141353  0  0.983188  0
H  H67  1  0.93847401  0.26953717  0.84049118  1  0.147811  0  0.132806  0.14139  0  0.983273  0
H  H68  1  0.43850231  0.73045713  0.34048974  1  0.14786  0  0.132826  0.141236  0  0.983437  0
H  H69  1  0.43848456  0.76954074  0.65951968  1  0.14764  0  0.132843  0.141282  0  0.983418  0
H  H70  1  0.06153081  0.76953199  0.84049111  1  0.147931  0  0.132818  0.141434  0  0.983226  0
H  H71  1  0.06150235  0.73045212  0.15951683  1  0.147755  0  0.132843  0.141307  0  0.983296  0
H  H72  1  0.81566400  0.11765125  0.65683955  1  0.049496  0  0.111904  0.091094  0  1.004488  0
H  H73  1  0.81565902  0.38236018  0.34316842  1  0.049363  0  0.111828  0.09098  0  1.004737  0
H  H74  1  0.68433264  0.38235535  0.15684276  1  0.049139  0  0.111908  0.091054  0  1.004552  0
H  H75  1  0.68433052  0.11764903  0.84315864  1  0.049373  0  0.111898  0.091058  0  1.004597  0
H  H76  1  0.18434406  0.88234245  0.34316389  1  0.049625  0  0.111914  0.091124  0  1.004375  0
H  H77  1  0.18433206  0.61765212  0.65685293  1  0.049165  0  0.111954  0.091121  0  1.004473  0
H  H78  1  0.31566297  0.61763932  0.84316335  1  0.049616  0  0.111844  0.091051  0  1.004624  0
H  H79  1  0.31564811  0.88234319  0.15683300  1  0.049555  0  0.111888  0.091121  0  1.004377  0
H  H80  1  0.74898392  0.16712382  0.60600426  1  0.150603  0  0.112938  0.109443  0  0.999277  0
H  H81  1  0.74897984  0.33287528  0.39399814  1  0.150653  0  0.112898  0.10938  0  0.999366  0
H  H82  1  0.75101260  0.33287406  0.10600851  1  0.150787  0  0.112911  0.109454  0  0.999103  0
H  H83  1  0.75100076  0.16712454  0.89399388  1  0.150777  0  0.112906  0.109427  0  0.999234  0
H  H84  1  0.25101508  0.83286009  0.39399462  1  0.150608  0  0.112949  0.109558  0  0.999296  0
H  H85  1  0.25101124  0.66712380  0.60601254  1  0.150898  0  0.112887  0.109452  0  0.998963  0
H  H86  1  0.24899320  0.66712159  0.89399608  1  0.150726  0  0.112923  0.109445  0  0.999422  0
H  H87  1  0.24897560  0.83285838  0.10600537  1  0.150564  0  0.112973  0.109551  0  0.999274  0
H  H88  1  0.86133928  0.22467728  0.70734045  1  0.035621  0  0.092897  0.087817  0  0.997405  0
H  H89  1  0.86134585  0.27534107  0.29265485  1  0.035459  0  0.09283  0.08775  0  0.997341  0
H  H90  1  0.63866315  0.27533364  0.20735300  1  0.035134  0  0.092718  0.087579  0  0.99755  0
H  H91  1  0.63865601  0.22467166  0.79265306  1  0.035283  0  0.092806  0.08774  0  0.997464  0
H  H92  1  0.13867444  0.77532376  0.29264929  1  0.035117  0  0.092768  0.087682  0  0.997515  0
H  H93  1  0.13866334  0.72468151  0.70735049  1  0.035197  0  0.092794  0.087699  0  0.997545  0
H  H94  1  0.36133699  0.72466348  0.79265501  1  0.035223  0  0.092824  0.087776  0  0.997405  0
H  H95  1  0.36133168  0.77532644  0.20734886  1  0.035288  0  0.092808  0.087699  0  0.997517  0
H  H96  1  0.83411025  0.26710560  0.64914011  1  0.058236  0  0.095104  0.093288  0  0.986033  0
H  H97  1  0.83411763  0.23290488  0.35085221  1  0.05636  0  0.095104  0.093321  0  0.986206  0
H  H98  1  0.66589220  0.23289808  0.14915493  1  0.056199  0  0.095103  0.093294  0  0.986179  0
H  H99  1  0.66588534  0.26710334  0.85085146  1  0.056121  0  0.095071  0.093278  0  0.986143  0
H  H100  1  0.16590121  0.73288565  0.35084925  1  0.05584  0  0.095051  0.093288  0  0.986073  0
H  H101  1  0.16589044  0.76710889  0.64914819  1  0.057968  0  0.095069  0.09329  0  0.986116  0
H  H102  1  0.33412492  0.76709708  0.85085309  1  0.057855  0  0.095115  0.093345  0  0.986145  0
H  H103  1  0.33410574  0.73288497  0.14915046  1  0.057899  0  0.095057  0.093261  0  0.986083  0
H  H104  1  0.10510713  0.24843030  0.66541772  1  0.003184  0  0.089816  0.080296  0  1.003763  0
H  H105  1  0.10511269  0.25159185  0.33457617  1  0.003578  0  0.089833  0.080345  0  1.003809  0
H  H106  1  0.39489644  0.25157899  0.16543241  1  0.002874  0  0.089836  0.080345  0  1.003622  0
H  H107  1  0.39488751  0.24842938  0.83457571  1  0.003071  0  0.089865  0.080394  0  1.003662  0
H  H108  1  0.89490773  0.75155997  0.33457316  1  0.002805  0  0.089885  0.080473  0  1.003625  0
H  H109  1  0.89489877  0.74843269  0.66542728  1  0.002931  0  0.089846  0.080399  0  1.003622  0
H  H110  1  0.60511162  0.74841422  0.83457180  1  0.003383  0  0.089852  0.080347  0  1.003684  0
H  H111  1  0.60510017  0.75157068  0.16542545  1  0.003086  0  0.089848  0.08035  0  1.003653  0
H  H112  1  0.07610182  0.16281816  0.67218495  1  0.054065  0  0.092231  0.095617  0  1.020283  0
H  H113  1  0.07609682  0.33720053  0.32782309  1  0.053716  0  0.092215  0.095563  0  1.020312  0
H  H114  1  0.42390501  0.33719014  0.17218959  1  0.053703  0  0.092187  0.095521  0  1.020259  0
H  H115  1  0.42388993  0.16281484  0.82781237  1  0.053865  0  0.092194  0.095594  0  1.020308  0
H  H116  1  0.92390058  0.83717162  0.32780822  1  0.053988  0  0.092252  0.09556  0  1.020289  0
H  H117  1  0.92389765  0.66282157  0.67219787  1  0.053678  0  0.092234  0.09562  0  1.020188  0
H  H118  1  0.57610306  0.66280355  0.82780777  1  0.05348  0  0.092273  0.095589  0  1.020205  0
H  H119  1  0.57609209  0.83718032  0.17218688  1  0.053957  0  0.092226  0.095574  0  1.020325  0
H  H120  1  0.01899214  0.24057515  0.57386797  1  0.082275  0  0.1142  0.103971  0  0.960012  0
H  H121  1  0.01899594  0.25941456  0.42612610  1  0.08229  0  0.114234  0.103908  0  0.960106  0
H  H122  1  0.48100420  0.25941618  0.07388285  1  0.082802  0  0.114266  0.103939  0  0.960227  0
H  H123  1  0.48100244  0.24057958  0.92612584  1  0.082399  0  0.114246  0.103987  0  0.960158  0
H  H124  1  0.98101026  0.75941316  0.42612253  1  0.082798  0  0.114228  0.104038  0  0.960123  0
H  H125  1  0.98101212  0.74056836  0.57387658  1  0.082858  0  0.1142  0.10388  0  0.960234  0
H  H126  1  0.51898462  0.74056136  0.92612326  1  0.082414  0  0.114179  0.10376  0  0.960348  0
H  H127  1  0.51899203  0.75941460  0.07387608  1  0.082789  0  0.114211  0.103984  0  0.960116  0
H  H128  1  0.99304892  0.15639502  0.58052826  1  0.117664  0  0.113727  0.105787  0  1.00553  0
H  H129  1  0.99304327  0.34359660  0.41948085  1  0.118164  0  0.113699  0.105725  0  1.005545  0
H  H130  1  0.50696848  0.34359458  0.08053112  1  0.117996  0  0.113768  0.105822  0  1.005543  0
H  H131  1  0.50695267  0.15639975  0.91946875  1  0.117786  0  0.113721  0.105802  0  1.005672  0
H  H132  1  0.00696141  0.84359035  0.41946491  1  0.118181  0  0.11371  0.105768  0  1.00549  0
H  H133  1  0.00694554  0.65639024  0.58054278  1  0.117938  0  0.113749  0.105852  0  1.005459  0
H  H134  1  0.49306449  0.65638149  0.91946356  1  0.117877  0  0.113743  0.105813  0  1.005508  0
H  H135  1  0.49302596  0.84359149  0.08053012  1  0.118012  0  0.113735  0.105733  0  1.005643  0
H  H136  1  0.22769557  0.08049235  0.58583592  1  0.144015  0  0.120888  0.124708  0  1.02621  0
H  H137  1  0.22768831  0.41950354  0.41416342  1  0.144065  0  0.120868  0.12469  0  1.026237  0
H  H138  1  0.27232203  0.41950729  0.08584156  1  0.145479  0  0.120917  0.124769  0  1.026229  0
H  H139  1  0.27230238  0.08049503  0.91415692  1  0.144181  0  0.120874  0.124739  0  1.026269  0
H  H140  1  0.77232155  0.91949988  0.41415572  1  0.145962  0  0.120932  0.124778  0  1.026225  0
H  H141  1  0.77228918  0.58049260  0.58585259  1  0.145635  0  0.120833  0.124627  0  1.026263  0
H  H142  1  0.72771433  0.58048788  0.91415769  1  0.143999  0  0.120862  0.124734  0  1.02606  0
H  H143  1  0.72766606  0.91950650  0.08584044  1  0.145711  0  0.120884  0.124675  0  1.02634  0
H  H144  1  0.51542220  0.10289466  0.54531873  1  0.122088  0  0.105272  0.100924  0  1.048529  0
H  H145  1  0.51542529  0.39710606  0.45467465  1  0.121955  0  0.105219  0.100834  0  1.048512  0
H  H146  1  0.98459478  0.39710725  0.04532546  1  0.122108  0  0.105193  0.100738  0  1.048624  0
H  H147  1  0.98458014  0.10289366  0.95467719  1  0.122046  0  0.105261  0.100899  0  1.048546  0
H  H148  1  0.48460058  0.89710247  0.45468091  1  0.122252  0  0.105242  0.100789  0  1.048603  0
H  H149  1  0.48456692  0.60289841  0.54533717  1  0.121701  0  0.1053  0.100966  0  1.048404  0
H  H150  1  0.01543366  0.60289771  0.95467798  1  0.12199  0  0.105283  0.100946  0  1.048513  0
H  H151  1  0.01539283  0.89711375  0.04532054  1  0.12234  0  0.10527  0.100815  0  1.048706  0
H  H152  1  0.94747209  0.90072675  0.50125272  1  0.095347  0  0.10284  0.111278  0  1.033747  0
H  H153  1  0.94747669  0.59927186  0.49875255  1  0.095119  0  0.10283  0.11124  0  1.033734  0
H  H154  1  0.55250408  0.59927788  0.00124621  1  0.095169  0  0.10281  0.111262  0  1.033665  0
H  H155  1  0.55251675  0.90072456  0.99874620  1  0.095155  0  0.102882  0.111299  0  1.033706  0
H  H156  1  0.05252352  0.09927673  0.49874920  1  0.095143  0  0.102836  0.111259  0  1.033757  0
H  H157  1  0.05253024  0.40071009  0.50124404  1  0.094899  0  0.102802  0.111294  0  1.033444  0
H  H158  1  0.44749719  0.40072903  0.99873895  1  0.095421  0  0.102958  0.11144  0  1.033525  0
H  H159  1  0.44746188  0.09927990  0.00125191  1  0.09498  0  0.102812  0.111247  0  1.033713  0
H  H160  1  0.90813210  0.02560407  0.63368929  1  0.101433  0  0.102065  0.111325  0  1.043733  0
H  H161  1  0.90810468  0.47442071  0.36630287  1  0.101353  0  0.102156  0.111385  0  1.043908  0
H  H162  1  0.59187746  0.47442118  0.13369374  1  0.10159  0  0.102118  0.111337  0  1.043889  0
H  H163  1  0.59186742  0.02560805  0.86631471  1  0.101491  0  0.102071  0.111379  0  1.043635  0
H  H164  1  0.09185898  0.97438375  0.36632139  1  0.101108  0  0.102144  0.111523  0  1.043546  0
H  H165  1  0.09189773  0.52560432  0.63367049  1  0.101364  0  0.102054  0.111288  0  1.043799  0
H  H166  1  0.40813627  0.52557301  0.86628647  1  0.101284  0  0.102169  0.111423  0  1.043714  0
H  H167  1  0.40809876  0.97440377  0.13368797  1  0.101315  0  0.102105  0.111385  0  1.043786  0
H  H168  1  0.29782631  0.90219909  0.61536742  1  0.139077  0  0.106889  0.118222  0  1.013351  0
H  H169  1  0.29782977  0.59780446  0.38463240  1  0.139095  0  0.106885  0.118273  0  1.013275  0
H  H170  1  0.20214677  0.59780217  0.11536402  1  0.139058  0  0.106834  0.118216  0  1.013337  0
H  H171  1  0.20216625  0.90220564  0.88463067  1  0.139034  0  0.106877  0.118231  0  1.013332  0
H  H172  1  0.70217836  0.09779510  0.38463069  1  0.139043  0  0.106869  0.11823  0  1.013315  0
H  H173  1  0.70215791  0.40222645  0.61535620  1  0.139503  0  0.106787  0.118278  0  1.013406  0
H  H174  1  0.79787488  0.40220229  0.88463218  1  0.138864  0  0.106804  0.118213  0  1.013331  0
H  H175  1  0.79782370  0.09778806  0.11536554  1  0.139246  0  0.106813  0.118231  0  1.013374  0
C  C176  1  0.28552303  0.30383437  0.56510207  1  -0.088923  0  -0.235063  -0.48047  0  3.969538  0
C  C177  1  0.28552620  0.19616356  0.43489523  1  -0.088633  0  -0.235041  -0.48055  0  3.969616  0
C  C178  1  0.21447801  0.19616726  0.06511073  1  -0.088448  0  -0.235181  -0.480492  0  3.969685  0
C  C179  1  0.21447993  0.30383498  0.93489701  1  -0.088769  0  -0.235017  -0.480328  0  3.969542  0
C  C180  1  0.71447597  0.69616079  0.43489718  1  -0.088268  0  -0.235082  -0.480585  0  3.969598  0
C  C181  1  0.71448526  0.80383210  0.56511126  1  -0.088523  0  -0.235169  -0.480437  0  3.969786  0
C  C182  1  0.78551534  0.80382987  0.93488776  1  -0.08856  0  -0.235071  -0.480403  0  3.969693  0
C  C183  1  0.78552700  0.69616851  0.06510453  1  -0.0885  0  -0.235087  -0.480462  0  3.969533  0
C  C184  1  0.60539236  0.04938083  0.69781592  1  -0.093111  0  -0.234793  -0.477181  0  3.946174  0
C  C185  1  0.60540227  0.45062980  0.30218603  1  -0.093413  0  -0.234869  -0.477412  0  3.946308  0
C  C186  1  0.89461366  0.45063109  0.19781175  1  -0.093883  0  -0.234876  -0.477446  0  3.946131  0
C  C187  1  0.89460733  0.04937801  0.80218348  1  -0.093001  0  -0.234842  -0.477298  0  3.946124  0
C  C188  1  0.39460212  0.95061629  0.30218676  1  -0.09364  0  -0.234888  -0.477333  0  3.946248  0
C  C189  1  0.39460693  0.54938103  0.69782123  1  -0.092964  0  -0.234768  -0.477186  0  3.946066  0
C  C190  1  0.10539328  0.54937387  0.80218636  1  -0.093866  0  -0.234907  -0.47744  0  3.946223  0
C  C191  1  0.10538828  0.95061421  0.19781044  1  -0.09381  0  -0.234787  -0.477199  0  3.946453  0
C  C192  1  0.54496004  0.11712218  0.69551327  1  0.96318  0  0.222794  0.347373  0  3.917295  0
C  C193  1  0.54496375  0.38288739  0.30448767  1  0.96358  0  0.222897  0.347626  0  3.916817  0
C  C194  1  0.95504263  0.38288827  0.19551475  1  0.963565  0  0.222827  0.347405  0  3.916843  0
C  C195  1  0.95503787  0.11712092  0.80448568  1  0.963442  0  0.22282  0.347495  0  3.91705  0
C  C196  1  0.45504236  0.88287641  0.30448865  1  0.963198  0  0.222912  0.347581  0  3.916989  0
C  C197  1  0.45503865  0.61712296  0.69552073  1  0.963546  0  0.222849  0.347488  0  3.916826  0
C  C198  1  0.04496431  0.61711620  0.80448641  1  0.963327  0  0.222894  0.347695  0  3.916555  0
C  C199  1  0.04494755  0.88287523  0.19550938  1  0.963477  0  0.222891  0.347579  0  3.917251  0
C  C200  1  0.40051531  0.20404796  0.70172686  1  0.369178  0  -0.012243  -0.050545  0  4.073927  0
C  C201  1  0.40051626  0.29595945  0.29827553  1  0.36832  0  -0.012245  -0.050613  0  4.074029  0
C  C202  1  0.09947961  0.29595686  0.20173224  1  0.368518  0  -0.012259  -0.050526  0  4.073979  0
C  C203  1  0.09947787  0.20404765  0.79827347  1  0.368768  0  -0.012271  -0.050739  0  4.073968  0
C  C204  1  0.59949162  0.79595015  0.29827354  1  0.369057  0  -0.012325  -0.050911  0  4.07417  0
C  C205  1  0.59948614  0.70405139  0.70173210  1  0.368975  0  -0.012312  -0.050811  0  4.073987  0
C  C206  1  0.90052619  0.70404565  0.79827464  1  0.368837  0  -0.012283  -0.050633  0  4.073744  0
C  C207  1  0.90050755  0.79594898  0.20172960  1  0.368976  0  -0.012307  -0.050756  0  4.074088  0
C  C208  1  0.52778295  0.22314981  0.67594404  1  0.303144  0  0.000474  -0.103777  0  3.948363  0
C  C209  1  0.52778325  0.27685925  0.32405693  1  0.302806  0  0.00044  -0.10378  0  3.94826  0
C  C210  1  0.97221104  0.27685529  0.17595435  1  0.303461  0  0.000531  -0.103687  0  3.94811  0
C  C211  1  0.97220893  0.22314804  0.82405632  1  0.303303  0  0.000512  -0.103631  0  3.948235  0
C  C212  1  0.47222624  0.77684585  0.32405483  1  0.303367  0  0.000623  -0.103263  0  3.948444  0
C  C213  1  0.47221576  0.72315306  0.67595375  1  0.303531  0  0.00064  -0.103234  0  3.948476  0
C  C214  1  0.02779362  0.72314477  0.82405633  1  0.30327  0  0.000548  -0.103698  0  3.948198  0
C  C215  1  0.02777309  0.77684369  0.17594864  1  0.303616  0  0.0006  -0.103378  0  3.948523  0
C  C216  1  0.76557247  0.16530274  0.64748338  1  0.249539  0  -0.052448  -0.061276  0  3.845559  0
C  C217  1  0.76556469  0.33470569  0.35251784  1  0.249553  0  -0.052335  -0.061168  0  3.845602  0
C  C218  1  0.73443908  0.33470437  0.14749110  1  0.249567  0  -0.052431  -0.061346  0  3.845342  0
C  C219  1  0.73441900  0.16530058  0.85251362  1  0.249158  0  -0.052397  -0.061181  0  3.845673  0
C  C220  1  0.23444579  0.83469047  0.35251435  1  0.249439  0  -0.05249  -0.061643  0  3.845807  0
C  C221  1  0.23443432  0.66530221  0.64749437  1  0.249583  0  -0.05244  -0.061349  0  3.845091  0
C  C222  1  0.26557238  0.66529275  0.85251577  1  0.249246  0  -0.052398  -0.061411  0  3.845947  0
C  C223  1  0.26555397  0.83468920  0.14748450  1  0.249521  0  -0.052456  -0.06149  0  3.845626  0
C  C224  1  0.87058457  0.22012101  0.66568575  1  -0.03641  0  -0.159148  -0.157205  0  3.920317  0
C  C225  1  0.87059828  0.27989099  0.33431144  1  -0.034551  0  -0.159161  -0.157315  0  3.920126  0
C  C226  1  0.62940396  0.27988460  0.16569565  1  -0.034024  0  -0.15893  -0.157029  0  3.920142  0
C  C227  1  0.62940955  0.22011824  0.83430815  1  -0.033681  0  -0.158981  -0.157142  0  3.920319  0
C  C228  1  0.12942009  0.77987268  0.33430551  1  -0.033523  0  -0.158872  -0.156984  0  3.920132  0
C  C229  1  0.12940752  0.72012425  0.66569429  1  -0.035865  0  -0.158977  -0.157132  0  3.920106  0
C  C230  1  0.37060070  0.72010959  0.83431046  1  -0.035752  0  -0.159108  -0.157271  0  3.92024  0
C  C231  1  0.37058153  0.77987398  0.16569263  1  -0.035609  0  -0.158947  -0.156978  0  3.920126  0
C  C232  1  0.03637495  0.20690541  0.65215120  1  -0.005172  0  -0.165276  -0.171431  0  3.941053  0
C  C233  1  0.03638281  0.29311028  0.34785159  1  -0.005529  0  -0.165259  -0.171482  0  3.940931  0
C  C234  1  0.46361757  0.29310146  0.15215885  1  -0.004453  0  -0.165221  -0.171205  0  3.940763  0
C  C235  1  0.46361713  0.20690456  0.84784417  1  -0.005152  0  -0.165321  -0.171421  0  3.940921  0
C  C236  1  0.96362746  0.79308633  0.34784120  1  -0.004893  0  -0.165388  -0.171418  0  3.940597  0
C  C237  1  0.96361733  0.70690545  0.65216176  1  -0.00453  0  -0.165261  -0.17138  0  3.940519  0
C  C238  1  0.53638823  0.70689028  0.84784269  1  -0.004964  0  -0.165335  -0.171425  0  3.940768  0
C  C239  1  0.53637169  0.79309256  0.15215509  1  -0.005437  0  -0.165341  -0.171436  0  3.940906  0
C  C240  1  0.05940507  0.19763175  0.59508257  1  0.262412  0  -0.055111  -0.056219  0  3.853399  0
C  C241  1  0.05939263  0.30236487  0.40491903  1  0.262436  0  -0.055132  -0.055989  0  3.853167  0
C  C242  1  0.44061235  0.30236395  0.09509330  1  0.261564  0  -0.055271  -0.056384  0  3.853606  0
C  C243  1  0.44059259  0.19763421  0.90491357  1  0.26232  0  -0.055179  -0.056483  0  3.853824  0
C  C244  1  0.94061318  0.80235558  0.40490679  1  0.261282  0  -0.055104  -0.056359  0  3.853265  0
C  C245  1  0.94060412  0.69763078  0.59509660  1  0.261333  0  -0.055167  -0.056347  0  3.853245  0
C  C246  1  0.55940137  0.69762240  0.90490748  1  0.262247  0  -0.055069  -0.056093  0  3.853283  0
C  C247  1  0.55938603  0.80236047  0.09508835  1  0.261546  0  -0.055098  -0.056203  0  3.85347  0
C  C248  1  0.28529360  0.12529898  0.57523519  1  0.282434  0  -0.003035  -0.104739  0  3.934827  0
C  C249  1  0.28528694  0.37469700  0.42476288  1  0.281351  0  -0.003069  -0.104958  0  3.934877  0
C  C250  1  0.21472875  0.37469970  0.07523948  1  0.280785  0  -0.003237  -0.105195  0  3.935273  0
C  C251  1  0.21470807  0.12530009  0.92476141  1  0.28232  0  -0.003047  -0.104935  0  3.935079  0
C  C252  1  0.71472465  0.87469325  0.42476140  1  0.280658  0  -0.003143  -0.105048  0  3.935231  0
C  C253  1  0.71469961  0.62529866  0.57524780  1  0.27928  0  -0.003033  -0.104795  0  3.934675  0
C  C254  1  0.78530083  0.62529742  0.92476016  1  0.281249  0  -0.003079  -0.105004  0  3.934768  0
C  C255  1  0.78526716  0.87470144  0.07523594  1  0.280499  0  -0.003104  -0.105024  0  3.935287  0
C  C256  1  0.42626547  0.13699958  0.55534825  1  0.396719  0  -0.010069  -0.039064  0  4.048586  0
C  C257  1  0.42626512  0.36299708  0.44464722  1  0.398139  0  -0.009877  -0.038741  0  4.048375  0
C  C258  1  0.07374934  0.36300109  0.05535286  1  0.397168  0  -0.009762  -0.038367  0  4.048228  0
C  C259  1  0.07373855  0.13699997  0.94465023  1  0.396764  0  -0.009906  -0.03877  0  4.048453  0
C  C260  1  0.57375165  0.86299362  0.44465062  1  0.39695  0  -0.009859  -0.038502  0  4.048498  0
C  C261  1  0.57372596  0.63700298  0.55536079  1  0.398658  0  -0.009942  -0.038796  0  4.048188  0
C  C262  1  0.92627344  0.63700093  0.94464906  1  0.397918  0  -0.010013  -0.038896  0  4.048346  0
C  C263  1  0.92624574  0.86300499  0.05534864  1  0.396881  0  -0.009954  -0.038645  0  4.048485  0
C  C264  1  0.31626778  0.23247636  0.56433134  1  0.995507  0  0.215239  0.328756  0  3.958668  0
C  C265  1  0.31626692  0.26752211  0.43566742  1  0.995834  0  0.215288  0.328925  0  3.958325  0
C  C266  1  0.18373894  0.26752528  0.06433923  1  0.994782  0  0.215238  0.328791  0  3.958493  0
C  C267  1  0.18373467  0.23247691  0.93566857  1  0.995467  0  0.215229  0.328761  0  3.958683  0
C  C268  1  0.68373802  0.76751979  0.43566601  1  0.996256  0  0.215232  0.328999  0  3.95862  0
C  C269  1  0.68373209  0.73247403  0.56434059  1  0.995319  0  0.215294  0.328833  0  3.95855  0
C  C270  1  0.81627026  0.73247283  0.93566078  1  0.994958  0  0.215246  0.328756  0  3.958557  0
C  C271  1  0.81626207  0.76752755  0.06433297  1  0.995053  0  0.215175  0.328672  0  3.958716  0
C  C272  1  0.21612866  0.84561076  0.52520951  1  1.56345  0  0.192235  0.554455  0  4.246615  0
C  C273  1  0.21613867  0.65438630  0.47479505  1  1.564025  0  0.192356  0.554682  0  4.246109  0
C  C274  1  0.28384847  0.65439164  0.02520588  1  1.563382  0  0.19228  0.554812  0  4.246216  0
C  C275  1  0.28385895  0.84561482  0.97478978  1  1.563548  0  0.192259  0.554603  0  4.246354  0
C  C276  1  0.78386581  0.15439126  0.47478670  1  1.563694  0  0.192212  0.554527  0  4.246625  0
C  C277  1  0.78385242  0.34561719  0.52520497  1  1.564017  0  0.192339  0.554857  0  4.246021  0
C  C278  1  0.71616073  0.34562017  0.97479337  1  1.563892  0  0.192368  0.554773  0  4.245934  0
C  C279  1  0.71612420  0.15438671  0.02520757  1  1.563851  0  0.192347  0.554641  0  4.246265  0
C  C280  1  0.13023343  0.89552002  0.55554506  1  0.028721  0  -0.020244  -0.023345  0  4.002107  0
C  C281  1  0.13023576  0.60448426  0.44445588  1  0.028295  0  -0.020296  -0.023358  0  4.001919  0
C  C282  1  0.36974083  0.60448282  0.05554053  1  0.02838  0  -0.020384  -0.023552  0  4.002098  0
C  C283  1  0.36975454  0.89552181  0.94445190  1  0.028461  0  -0.020385  -0.0235  0  4.002273  0
C  C284  1  0.86975765  0.10447612  0.44445419  1  0.028402  0  -0.020363  -0.023641  0  4.002317  0
C  C285  1  0.86976552  0.39552804  0.55553576  1  -0.027278  0  -0.020269  -0.02354  0  4.002142  0
C  C286  1  0.63025931  0.39551823  0.94445339  1  0.028444  0  -0.020446  -0.023649  0  4.002335  0
C  C287  1  0.63022408  0.10447874  0.05554355  1  0.028497  0  -0.020299  -0.02348  0  4.001959  0
C  C288  1  0.99077653  0.91860678  0.53746956  1  -0.03092  0  -0.091113  -0.158249  0  3.9853  0
C  C289  1  0.99077606  0.58139581  0.46253371  1  -0.030694  0  -0.091098  -0.158262  0  3.985358  0
C  C290  1  0.50920457  0.58139730  0.03746393  1  -0.030535  0  -0.090947  -0.15809  0  3.98499  0
C  C291  1  0.50921470  0.91860606  0.96253048  1  -0.030742  0  -0.091143  -0.158295  0  3.985301  0
C  C292  1  0.00921681  0.08139034  0.46253388  1  -0.030698  0  -0.091078  -0.158211  0  3.985189  0
C  C293  1  0.00922294  0.41860425  0.53745945  1  0.025415  0  -0.091054  -0.158208  0  3.984968  0
C  C294  1  0.49080009  0.41860668  0.96252352  1  -0.03122  0  -0.091088  -0.158113  0  3.985023  0
C  C295  1  0.49075940  0.08139743  0.03746839  1  -0.030805  0  -0.091156  -0.158308  0  3.985168  0
C  C296  1  0.91030302  0.96368945  0.56659265  1  -0.11643  0  -0.016522  0.11201  0  3.979631  0
C  C297  1  0.91029488  0.53632478  0.43340813  1  -0.116622  0  -0.016666  0.111972  0  3.979839  0
C  C298  1  0.58968430  0.53632438  0.06658841  1  -0.117154  0  -0.016576  0.111969  0  3.979612  0
C  C299  1  0.58969080  0.96369036  0.93340925  1  -0.116357  0  -0.016456  0.112105  0  3.979581  0
C  C300  1  0.08968693  0.03630474  0.43341422  1  -0.116572  0  -0.016435  0.112146  0  3.979618  0
C  C301  1  0.08970299  0.46368752  0.56657932  1  -0.117037  0  -0.016619  0.111882  0  3.979276  0
C  C302  1  0.41032037  0.46368058  0.93339713  1  -0.116041  0  -0.01652  0.111889  0  3.979689  0
C  C303  1  0.41028443  0.03631802  0.06659229  1  -0.11686  0  -0.016589  0.11204  0  3.979821  0
C  C304  1  0.96946275  0.98922731  0.61159295  1  -0.091473  0  -0.091573  -0.156804  0  3.96175  0
C  C305  1  0.96943721  0.51078945  0.38840199  1  -0.091219  0  -0.091588  -0.156925  0  3.961735  0
C  C306  1  0.53054518  0.51078888  0.11159382  1  -0.090914  0  -0.091601  -0.156855  0  3.96166  0
C  C307  1  0.53053578  0.98922969  0.88840931  1  -0.091423  0  -0.091613  -0.156921  0  3.961665  0
C  C308  1  0.03053286  0.01076100  0.38841392  1  -0.091438  0  -0.091797  -0.157209  0  3.961733  0
C  C309  1  0.03055048  0.48923069  0.61157860  1  -0.091201  0  -0.091542  -0.156714  0  3.96194  0
C  C310  1  0.46947307  0.48920726  0.88839097  1  -0.091002  0  -0.091704  -0.157011  0  3.961633  0
C  C311  1  0.46943605  0.01077576  0.11159185  1  -0.090964  0  -0.091589  -0.156896  0  3.961804  0
C  C312  1  0.11126202  0.96751748  0.62861516  1  -0.009113  0  -0.017636  -0.013276  0  3.975124  0
C  C313  1  0.11125509  0.53249412  0.37138201  1  -0.008787  0  -0.017572  -0.012935  0  3.974847  0
C  C314  1  0.38872437  0.53249502  0.12861599  1  -0.008682  0  -0.017556  -0.013024  0  3.975086  0
C  C315  1  0.38873440  0.96752286  0.87138629  1  -0.009498  0  -0.017611  -0.013104  0  3.975093  0
C  C316  1  0.88872906  0.03247083  0.37138981  1  -0.00922  0  -0.017556  -0.013023  0  3.97507  0
C  C317  1  0.88874278  0.46753484  0.62860087  1  -0.009353  0  -0.017565  -0.01288  0  3.974982  0
C  C318  1  0.61129388  0.46749868  0.87137374  1  -0.008734  0  -0.017532  -0.01293  0  3.974886  0
C  C319  1  0.61124536  0.03247965  0.12861258  1  -0.009217  0  -0.01763  -0.01334  0  3.975142  0
C  C320  1  0.18908861  0.91946844  0.60124337  1  -0.004573  0  -0.080253  -0.118207  0  3.939819  0
C  C321  1  0.18908714  0.58053543  0.39875745  1  -0.004762  0  -0.080308  -0.118497  0  3.940016  0
C  C322  1  0.31089267  0.58053529  0.10123937  1  -0.004811  0  -0.080343  -0.118451  0  3.940331  0
C  C323  1  0.31090520  0.91947366  0.89875509  1  -0.004397  0  -0.080144  -0.118191  0  3.939899  0
C  C324  1  0.81091153  0.08052232  0.39875741  1  -0.004147  0  -0.080121  -0.118093  0  3.939875  0
C  C325  1  0.81089828  0.41948862  0.60123115  1  -0.004513  0  -0.080198  -0.118389  0  3.939602  0
C  C326  1  0.68913124  0.41946575  0.89875722  1  -0.004957  0  -0.080273  -0.118427  0  3.940292  0
C  C327  1  0.68908022  0.08052543  0.10124112  1  -0.004202  0  -0.080158  -0.118123  0  3.939708  0
C  C328  1  0.18544046  0.99697560  0.67492044  1  1.576388  0  0.192575  0.553213  0  4.241398  0
C  C329  1  0.18543424  0.50303268  0.32507620  1  1.576229  0  0.192617  0.55303  0  4.241951  0
C  C330  1  0.31455973  0.50303388  0.17492413  1  1.576284  0  0.19272  0.553246  0  4.241888  0
C  C331  1  0.31455957  0.99698144  0.82508061  1  1.57793  0  0.192508  0.553212  0  4.241639  0
C  C332  1  0.81455628  0.00301271  0.32508491  1  1.577849  0  0.192381  0.55303  0  4.241532  0
C  C333  1  0.81457835  0.49699480  0.67490478  1  1.577318  0  0.192473  0.552819  0  4.241867  0
C  C334  1  0.68547098  0.49696079  0.82506447  1  1.576296  0  0.192655  0.553439  0  4.241832  0
C  C335  1  0.68542359  0.00301520  0.17491598  1  1.577438  0  0.192538  0.553226  0  4.241578  0
Br  Br336  1  0.71303928  0.99022610  0.54495745  1  -0.091154  0  0.045642  -0.051894  0  1.469762  0
Br  Br337  1  0.71303052  0.50979862  0.45503881  1  -0.091057  0  0.045713  -0.051839  0  1.469986  0
Br  Br338  1  0.78695980  0.50979805  0.04495777  1  -0.090797  0  0.045689  -0.051845  0  1.469773  0
Br  Br339  1  0.78696492  0.99021796  0.95504443  1  -0.091136  0  0.045631  -0.051915  0  1.469725  0
Br  Br340  1  0.28695520  0.00978131  0.45504447  1  -0.091084  0  0.045646  -0.051891  0  1.469874  0
Br  Br341  1  0.28698207  0.49020536  0.54495207  1  -0.091047  0  0.045709  -0.051868  0  1.46989  0
Br  Br342  1  0.21305053  0.49021082  0.95502550  1  -0.090625  0  0.045675  -0.051826  0  1.469736  0
Br  Br343  1  0.21302389  0.00979582  0.04495940  1  -0.091214  0  0.045722  -0.051826  0  1.470105  0
N  N344  1  0.41131878  0.13825982  0.71371096  1  -1.225334  0  -0.354966  -0.350282  0  3.509806  0
N  N345  1  0.41132610  0.36174955  0.28629141  1  -1.22486  0  -0.355076  -0.35051  0  3.509879  0
N  N346  1  0.08867590  0.36174742  0.21371211  1  -1.224921  0  -0.355016  -0.350408  0  3.509835  0
N  N347  1  0.08867506  0.13825904  0.78628829  1  -1.224996  0  -0.354973  -0.350264  0  3.509808  0
N  N348  1  0.58868023  0.86173877  0.28629172  1  -1.225231  0  -0.355009  -0.350246  0  3.509663  0
N  N349  1  0.58867630  0.63826324  0.71371585  1  -1.225092  0  -0.354971  -0.350338  0  3.509767  0
N  N350  1  0.91132989  0.63825705  0.78628791  1  -1.225192  0  -0.355043  -0.350477  0  3.509635  0
N  N351  1  0.91131262  0.86173760  0.21370906  1  -1.225468  0  -0.35502  -0.350351  0  3.50969  0
N  N352  1  0.61773089  0.16799820  0.67239304  1  -1.233276  0  -0.239846  -0.01035  0  3.728435  0
N  N353  1  0.61772925  0.33201148  0.32760736  1  -1.233187  0  -0.23976  -0.010216  0  3.728406  0
N  N354  1  0.88227224  0.33200985  0.17239777  1  -1.233283  0  -0.239909  -0.010264  0  3.728  0
N  N355  1  0.88226286  0.16799581  0.82760739  1  -1.233535  0  -0.239895  -0.010501  0  3.728423  0
N  N356  1  0.38227831  0.83199745  0.32760698  1  -1.233494  0  -0.240002  -0.010468  0  3.728654  0
N  N357  1  0.38227089  0.66800034  0.67240256  1  -1.233745  0  -0.24005  -0.010591  0  3.728392  0
N  N358  1  0.11773243  0.66799071  0.82760796  1  -1.233344  0  -0.239861  -0.010308  0  3.728313  0
N  N359  1  0.11771690  0.83199495  0.17239263  1  -1.233585  0  -0.240055  -0.010598  0  3.728743  0
N  N360  1  0.44412272  0.20362456  0.54845081  1  -1.243123  0  -0.360075  -0.354396  0  3.528124  0
N  N361  1  0.44412515  0.29637360  0.45154615  1  -1.243053  0  -0.360182  -0.354582  0  3.528081  0
N  N362  1  0.05588092  0.29637661  0.04845743  1  -1.242599  0  -0.360154  -0.354672  0  3.528008  0
N  N363  1  0.05588405  0.20362442  0.95155065  1  -1.24292  0  -0.360188  -0.354584  0  3.528351  0
N  N364  1  0.55588421  0.79637011  0.45154996  1  -1.243791  0  -0.360189  -0.354694  0  3.528229  0
N  N365  1  0.55587159  0.70362597  0.54845882  1  -1.242744  0  -0.360208  -0.354706  0  3.528095  0
N  N366  1  0.94412715  0.70362590  0.95154525  1  -1.243137  0  -0.360174  -0.354612  0  3.527993  0
N  N367  1  0.94411269  0.79638054  0.04844937  1  -1.242614  0  -0.360002  -0.354429  0  3.528022  0
N  N368  1  0.21667142  0.18594706  0.58022406  1  -1.234978  0  -0.242739  -0.013054  0  3.726808  0
N  N369  1  0.21666216  0.31404832  0.41977758  1  -1.23556  0  -0.242815  -0.013077  0  3.726448  0
N  N370  1  0.28334290  0.31405112  0.08023093  1  -1.234786  0  -0.242729  -0.012995  0  3.726611  0
N  N371  1  0.28332842  0.18594828  0.91977323  1  -1.235028  0  -0.242777  -0.012938  0  3.726734  0
N  N372  1  0.78334343  0.81404419  0.41977024  1  -1.235616  0  -0.242822  -0.013236  0  3.726795  0
N  N373  1  0.78333119  0.68594635  0.58023462  1  -1.234673  0  -0.242765  -0.012997  0  3.726527  0
N  N374  1  0.71667309  0.68594307  0.91976833  1  -1.234359  0  -0.242682  -0.012782  0  3.726398  0
N  N375  1  0.71665586  0.81405129  0.08022678  1  -1.234741  0  -0.242817  -0.012956  0  3.726395  0
O  O376  1  0.18180772  0.83475153  0.47967720  1  -1.187368  0  -0.321914  -0.566972  0  2.20301  0
O  O377  1  0.18183047  0.66524205  0.52032820  1  -1.187497  0  -0.322029  -0.56711  0  2.20289  0
O  O378  1  0.31816037  0.66525350  0.97967509  1  -1.187428  0  -0.321974  -0.567131  0  2.202945  0
O  O379  1  0.31817279  0.83475350  0.02032050  1  -1.187407  0  -0.321928  -0.567016  0  2.203014  0
O  O380  1  0.81817997  0.16525294  0.52031862  1  -1.187343  0  -0.321868  -0.566949  0  2.203193  0
O  O381  1  0.81815381  0.33475066  0.47967410  1  -1.187405  0  -0.321953  -0.567084  0  2.203022  0
O  O382  1  0.68181712  0.33475684  0.02032341  1  -1.187251  0  -0.322109  -0.567323  0  2.202745  0
O  O383  1  0.68181489  0.16524607  0.97967571  1  -1.187398  0  -0.321955  -0.567015  0  2.202971  0
O  O384  1  0.32418355  0.81534624  0.54890074  1  -1.162642  0  -0.335473  -0.55211  0  2.293752  0
O  O385  1  0.32418858  0.68465783  0.45110512  1  -1.162844  0  -0.335504  -0.552192  0  2.293556  0
O  O386  1  0.17579424  0.68465856  0.04889731  1  -1.16268  0  -0.335433  -0.55218  0  2.293682  0
O  O387  1  0.17581064  0.81534774  0.95109592  1  -1.16273  0  -0.335447  -0.55213  0  2.293559  0
O  O388  1  0.67582451  0.18465920  0.45109166  1  -1.162907  0  -0.335457  -0.552064  0  2.293697  0
O  O389  1  0.67581269  0.31535056  0.54890366  1  -1.163054  0  -0.335423  -0.552181  0  2.293454  0
O  O390  1  0.82420703  0.31534884  0.95110690  1  -1.162992  0  -0.335407  -0.552011  0  2.293513  0
O  O391  1  0.82417365  0.18465232  0.04890295  1  -1.162986  0  -0.335515  -0.55219  0  2.293483  0
O  O392  1  0.31022029  0.97567633  0.68965947  1  -1.165421  0  -0.320645  -0.532775  0  2.118339  0
O  O393  1  0.31022130  0.52433066  0.31034223  1  -1.165295  0  -0.320563  -0.532608  0  2.118548  0
O  O394  1  0.18977735  0.52433361  0.18966112  1  -1.165429  0  -0.320634  -0.532723  0  2.118485  0
O  O395  1  0.18978412  0.97567957  0.81033970  1  -1.166412  0  -0.320638  -0.532785  0  2.118318  0
O  O396  1  0.68977079  0.02430855  0.31034740  1  -1.166304  0  -0.32054  -0.532617  0  2.118169  0
O  O397  1  0.68980035  0.47569193  0.68964827  1  -1.165829  0  -0.320661  -0.532616  0  2.118313  0
O  O398  1  0.81026694  0.47566498  0.81033699  1  -1.166082  0  -0.320688  -0.532901  0  2.118381  0
O  O399  1  0.81020130  0.02431903  0.18965499  1  -1.165958  0  -0.32065  -0.532689  0  2.118345  0
O  O400  1  0.11409966  0.04592493  0.69578871  1  -1.171929  0  -0.342094  -0.575839  0  2.312981  0
O  O401  1  0.11408691  0.45408695  0.30420745  1  -1.171812  0  -0.342164  -0.575829  0  2.313036  0
O  O402  1  0.38591463  0.45409067  0.19579331  1  -1.171813  0  -0.342216  -0.575956  0  2.313135  0
O  O403  1  0.38590258  0.04592895  0.80421216  1  -1.172145  0  -0.34201  -0.575874  0  2.313185  0
O  O404  1  0.88590614  0.95407268  0.30421055  1  -1.172157  0  -0.34203  -0.575893  0  2.313182  0
O  O405  1  0.88592115  0.54594200  0.69577543  1  -1.172264  0  -0.341961  -0.575738  0  2.313108  0
O  O406  1  0.61410702  0.54589959  0.80419186  1  -1.171719  0  -0.342053  -0.57589  0  2.313167  0
O  O407  1  0.61408284  0.95406769  0.19578519  1  -1.172229  0  -0.342005  -0.57583  0  2.312952  0
