# generated using pymatgen
data_MnH4C8O5
_symmetry_space_group_name_H-M   'P 1'
_cell_length_a   19.58997926
_cell_length_b   19.58998795
_cell_length_c   19.58999131
_cell_angle_alpha   109.47155134
_cell_angle_beta   109.47149818
_cell_angle_gamma   109.47125281
_symmetry_Int_Tables_number   1
_chemical_formula_structural   MnH4C8O5
_chemical_formula_sum   'Mn24 H96 C192 O120'
_cell_volume   5787.31424921
_cell_formula_units_Z   24
loop_
 _symmetry_equiv_pos_site_id
 _symmetry_equiv_pos_as_xyz
  1  'x, y, z'
loop_
 _atom_site_type_symbol
 _atom_site_label
 _atom_site_symmetry_multiplicity
 _atom_site_fract_x
 _atom_site_fract_y
 _atom_site_fract_z
 _atom_site_occupancy
 _atom_site_pbe_bader_charge
 _atom_site_pbe_bader_spin_density
 _atom_site_pbe_cm5_charge
 _atom_site_pbe_ddec_charge
 _atom_site_pbe_ddec_spin_density
 _atom_site_pbe_ddec_sum_bond_order
 _atom_site_pbe_magmom
Mn  Mn0  1  0.93345300  0.55514603  0.86175308  1  1.553149  4.542824  0.62304  1.057608  4.6617  2.308152  4.481
Mn  Mn1  1  0.44485624  0.37830585  0.30660406  1  1.552227  4.542915  0.623029  1.057594  4.661636  2.308323  4.481
Mn  Mn2  1  0.62169018  0.06654714  0.92829622  1  1.553659  4.542764  0.623057  1.057653  4.661669  2.30815  4.481
Mn  Mn3  1  0.36175496  0.43345263  0.55514808  1  1.553144  4.542839  0.62302  1.057619  4.661713  2.308107  4.481
Mn  Mn4  1  0.05514562  0.86175089  0.43344824  1  1.553114  4.542784  0.622984  1.057611  4.661645  2.30824  4.481
Mn  Mn5  1  0.13824862  0.19339395  0.57170105  1  1.553343  4.542759  0.623037  1.057698  4.661676  2.308051  4.481
Mn  Mn6  1  0.42829999  0.12168953  0.06654587  1  1.553644  4.542743  0.623045  1.057685  4.661643  2.308118  4.481
Mn  Mn7  1  0.07170097  0.63824653  0.19339510  1  1.553317  4.542737  0.622989  1.05757  4.661664  2.308269  4.481
Mn  Mn8  1  0.87830371  0.30660363  0.94485328  1  1.552322  4.542926  0.623044  1.057627  4.661676  2.308156  4.481
Mn  Mn9  1  0.80660786  0.94485582  0.37830871  1  1.552345  4.542964  0.623067  1.057661  4.661711  2.308027  4.481
Mn  Mn10  1  0.56654864  0.92829980  0.12169373  1  1.553593  4.5428  0.623036  1.057585  4.661699  2.308148  4.481
Mn  Mn11  1  0.69339336  0.57170213  0.63824961  1  1.553357  4.542806  0.623023  1.057619  4.661724  2.308039  4.481
Mn  Mn12  1  0.06654896  0.44484939  0.13824500  1  1.553076  4.542838  0.623032  1.05761  4.661705  2.308143  4.481
Mn  Mn13  1  0.55514537  0.62169736  0.69339882  1  1.552269  4.54292  0.623035  1.057595  4.661654  2.308277  4.481
Mn  Mn14  1  0.37831101  0.93345313  0.07170389  1  1.553502  4.542846  0.623035  1.05759  4.661719  2.308116  4.481
Mn  Mn15  1  0.63824807  0.56654886  0.44485357  1  1.553104  4.54285  0.623041  1.057663  4.661706  2.308066  4.481
Mn  Mn16  1  0.94485702  0.13825147  0.56654986  1  1.553066  4.542823  0.623035  1.057644  4.661666  2.30811  4.481
Mn  Mn17  1  0.86175156  0.80660594  0.42829892  1  1.553335  4.54278  0.622987  1.057558  4.661703  2.308241  4.481
Mn  Mn18  1  0.57169792  0.87830747  0.93345313  1  1.553598  4.542786  0.623065  1.057681  4.661681  2.308032  4.481
Mn  Mn19  1  0.92829916  0.36175270  0.80660559  1  1.55327  4.54276  0.623013  1.057615  4.661669  2.308193  4.481
Mn  Mn20  1  0.12169698  0.69339990  0.05514714  1  1.552279  4.542981  0.623097  1.057613  4.661725  2.308056  4.481
Mn  Mn21  1  0.19339503  0.05514304  0.62169263  1  1.55227  4.543002  0.623077  1.057646  4.661726  2.308059  4.481
Mn  Mn22  1  0.43345004  0.07169859  0.87830311  1  1.5535  4.542831  0.623096  1.05766  4.66171  2.308045  4.481
Mn  Mn23  1  0.30660570  0.42829852  0.36175072  1  1.553306  4.542818  0.623055  1.05768  4.66172  2.308004  4.481
H  H24  1  0.65773778  0.63694448  0.92097595  1  0.129096  0.000457  0.111872  0.114826  -0.000105  0.985976  0.0
H  H25  1  0.36305866  0.02079534  0.28403055  1  0.128722  0.000457  0.111885  0.114824  -0.000106  0.986001  0.0
H  H26  1  0.97920773  0.34226365  0.26323733  1  0.107145  0.000469  0.111881  0.114864  -0.000106  0.985982  0.0
H  H27  1  0.42097198  0.15773646  0.63694333  1  0.128951  0.000457  0.11187  0.114842  -0.000106  0.985937  0.0
H  H28  1  0.13694565  0.92097163  0.15773803  1  0.129047  0.000457  0.111878  0.114866  -0.000106  0.985942  0.0
H  H29  1  0.07902459  0.21596397  0.23676057  1  0.106093  0.000472  0.111849  0.11483  -0.000106  0.985972  0.0
H  H30  1  0.76324273  0.47921364  0.34226555  1  0.10707  0.000469  0.111877  0.11481  -0.000106  0.985972  0.0
H  H31  1  0.73676318  0.57902518  0.21596925  1  0.106331  0.000472  0.111866  0.114836  -0.000106  0.98599  0.0
H  H32  1  0.52079280  0.28402846  0.86305738  1  0.128695  0.000457  0.111877  0.114843  -0.000106  0.985972  0.0
H  H33  1  0.78402875  0.86305388  0.02078539  1  0.128911  0.000457  0.111895  0.114866  -0.000106  0.985883  0.0
H  H34  1  0.84227055  0.26324213  0.47921330  1  0.106994  0.00047  0.111882  0.114842  -0.000106  0.985936  0.0
H  H35  1  0.71597293  0.23676332  0.57902988  1  0.106437  0.000472  0.111856  0.114811  -0.000106  0.985969  0.0
H  H36  1  0.34226354  0.36305343  0.07902792  1  0.129161  0.000457  0.111875  0.114854  -0.000105  0.985938  0.0
H  H37  1  0.63694098  0.97920401  0.71597050  1  0.128752  0.000457  0.111871  0.114815  -0.000106  0.985972  0.0
H  H38  1  0.02079246  0.65773689  0.73676351  1  0.107146  0.00047  0.111877  0.11487  -0.000106  0.985983  0.0
H  H39  1  0.57902462  0.84226299  0.36305300  1  0.129072  0.000457  0.111877  0.114867  -0.000106  0.985959  0.0
H  H40  1  0.86305435  0.07902808  0.84226230  1  0.129056  0.000457  0.111877  0.114871  -0.000106  0.985938  0.0
H  H41  1  0.92097576  0.78403611  0.76323904  1  0.106065  0.000473  0.111852  0.114868  -0.000106  0.985965  0.0
H  H42  1  0.23675793  0.52078548  0.65773318  1  0.107044  0.000469  0.111881  0.114843  -0.000106  0.985962  0.0
H  H43  1  0.26323880  0.42097526  0.78403297  1  0.106319  0.000472  0.111859  0.114834  -0.000106  0.985918  0.0
H  H44  1  0.47920544  0.71596887  0.13694250  1  0.128724  0.000457  0.111898  0.114853  -0.000106  0.986004  0.0
H  H45  1  0.21597230  0.13694563  0.97921103  1  0.129007  0.000457  0.111873  0.114815  -0.000105  0.985938  0.0
H  H46  1  0.15772818  0.73675819  0.52078616  1  0.107002  0.00047  0.11188  0.114849  -0.000106  0.985898  0.0
H  H47  1  0.28402842  0.76323775  0.42097235  1  0.106624  0.000472  0.111869  0.114823  -0.000106  0.985969  0.0
H  H48  1  0.85369183  0.63659901  0.10562750  1  0.131485  0.000303  0.103924  0.102118  -0.000226  1.034015  0.0
H  H49  1  0.36340526  0.21709123  0.46902878  1  0.134399  0.000302  0.103938  0.102128  -0.000226  1.034095  0.0
H  H50  1  0.78291057  0.14631572  0.25193902  1  0.107605  0.00032  0.103925  0.102108  -0.000226  1.034146  0.0
H  H51  1  0.60562567  0.35368944  0.63660420  1  0.131687  0.000303  0.103968  0.102197  -0.000226  1.034111  0.0
H  H52  1  0.13659563  0.10562306  0.35368424  1  0.131429  0.000304  0.10392  0.10209  -0.000226  1.034179  0.0
H  H53  1  0.89437384  0.03097097  0.24806354  1  0.107565  0.00032  0.103913  0.102141  -0.000226  1.034096  0.0
H  H54  1  0.75193775  0.28291581  0.14631166  1  0.107318  0.00032  0.103941  0.10216  -0.000226  1.034127  0.0
H  H55  1  0.74806133  0.39437394  0.03097122  1  0.107567  0.00032  0.103917  0.102142  -0.000226  1.034133  0.0
H  H56  1  0.71708194  0.46902069  0.86339407  1  0.134122  0.000302  0.10396  0.102199  -0.000226  1.034126  0.0
H  H57  1  0.96902445  0.86340066  0.21708828  1  0.134361  0.000302  0.103946  0.102148  -0.000226  1.034102  0.0
H  H58  1  0.64631810  0.25194120  0.28291457  1  0.107693  0.00032  0.103931  0.102109  -0.000226  1.034167  0.0
H  H59  1  0.53097452  0.24806360  0.39437706  1  0.107698  0.00032  0.103965  0.102192  -0.000226  1.034075  0.0
H  H60  1  0.14631275  0.36340028  0.89437327  1  0.131413  0.000304  0.103945  0.102174  -0.000226  1.034098  0.0
H  H61  1  0.63659572  0.78290883  0.53097329  1  0.134429  0.000302  0.103955  0.102183  -0.000226  1.034082  0.0
H  H62  1  0.21708784  0.85368492  0.74806044  1  0.107589  0.00032  0.10396  0.102142  -0.000226  1.034092  0.0
H  H63  1  0.39437466  0.64631061  0.36339700  1  0.131664  0.000303  0.103943  0.102159  -0.000226  1.034158  0.0
H  H64  1  0.86340506  0.89437734  0.64631624  1  0.131395  0.000304  0.10391  0.102073  -0.000226  1.034189  0.0
H  H65  1  0.10562593  0.96903102  0.75193781  1  0.107585  0.00032  0.103899  0.102088  -0.000226  1.0341  0.0
H  H66  1  0.24805946  0.71708237  0.85368380  1  0.107369  0.00032  0.103913  0.102113  -0.000226  1.034189  0.0
H  H67  1  0.25194022  0.60562795  0.96903151  1  0.107527  0.00032  0.103905  0.102101  -0.000226  1.034071  0.0
H  H68  1  0.28291170  0.53097517  0.13660115  1  0.134351  0.000302  0.103934  0.102115  -0.000226  1.034105  0.0
H  H69  1  0.03097630  0.13660106  0.78291235  1  0.134374  0.000302  0.10396  0.102172  -0.000226  1.034048  0.0
H  H70  1  0.35368161  0.74805886  0.71708417  1  0.107443  0.00032  0.103943  0.102109  -0.000226  1.034204  0.0
H  H71  1  0.46902630  0.75193631  0.60562378  1  0.107657  0.00032  0.103938  0.102163  -0.000226  1.034094  0.0
H  H72  1  0.71942779  0.63733617  0.05649358  1  0.037208  0.000215  0.103498  0.106587  8.4e-05  0.992651  0.0
H  H73  1  0.36266731  0.08209051  0.41915491  1  0.037352  0.000215  0.103523  0.106613  8.4e-05  0.99261  0.0
H  H74  1  0.91791236  0.28058027  0.33706824  1  0.028012  0.000215  0.10352  0.106601  8.3e-05  0.992652  0.0
H  H75  1  0.55648967  0.21942472  0.63733686  1  0.037192  0.000215  0.103555  0.106703  8.4e-05  0.99257  0.0
H  H76  1  0.13733362  0.05648681  0.21942052  1  0.037359  0.000215  0.103503  0.106615  8.4e-05  0.992541  0.0
H  H77  1  0.94350831  0.08083673  0.16293206  1  0.028692  0.000215  0.103532  0.106596  8.4e-05  0.992683  0.0
H  H78  1  0.83706923  0.41791517  0.28057596  1  0.028098  0.000215  0.103551  0.106674  8.3e-05  0.992666  0.0
H  H79  1  0.66293306  0.44350981  0.08084147  1  0.028714  0.000215  0.103524  0.106592  8.4e-05  0.99267  0.0
H  H80  1  0.58208466  0.41915182  0.86266244  1  0.037124  0.000215  0.103554  0.106674  8.4e-05  0.992571  0.0
H  H81  1  0.91915445  0.86266076  0.08208599  1  0.03722  0.000215  0.103544  0.106674  8.4e-05  0.992673  0.0
H  H82  1  0.78058357  0.33707147  0.41791621  1  0.027975  0.000215  0.1035  0.106561  8.3e-05  0.992742  0.0
H  H83  1  0.58084276  0.16293323  0.44351328  1  0.028717  0.000215  0.103522  0.106618  8.4e-05  0.992586  0.0
H  H84  1  0.28057712  0.36266470  0.94351141  1  0.037168  0.000215  0.103544  0.106677  8.4e-05  0.992578  0.0
H  H85  1  0.63733219  0.91790934  0.58084578  1  0.037372  0.000215  0.103532  0.106623  8.4e-05  0.992588  0.0
H  H86  1  0.08208731  0.71941912  0.66293122  1  0.028005  0.000215  0.103511  0.106599  8.3e-05  0.992662  0.0
H  H87  1  0.44350832  0.78057424  0.36266317  1  0.037186  0.000215  0.103535  0.106675  8.4e-05  0.992603  0.0
H  H88  1  0.86266585  0.94351175  0.78057843  1  0.037327  0.000215  0.103528  0.106639  8.4e-05  0.992623  0.0
H  H89  1  0.05649214  0.91916218  0.83706863  1  0.028736  0.000215  0.103522  0.106594  8.4e-05  0.992677  0.0
H  H90  1  0.16293036  0.58208226  0.71942248  1  0.027992  0.000215  0.103555  0.106696  8.3e-05  0.992652  0.0
H  H91  1  0.33706880  0.55649177  0.91916126  1  0.028678  0.000215  0.103508  0.106576  8.4e-05  0.992682  0.0
H  H92  1  0.41791111  0.58084491  0.13733591  1  0.037301  0.000215  0.103549  0.10665  8.4e-05  0.992629  0.0
H  H93  1  0.08084739  0.13733892  0.91791253  1  0.037318  0.000215  0.103544  0.106694  8.4e-05  0.992564  0.0
H  H94  1  0.21941513  0.66292882  0.58208484  1  0.027994  0.000215  0.103509  0.106589  8.3e-05  0.992785  0.0
H  H95  1  0.41915857  0.83706719  0.55648807  1  0.028788  0.000215  0.103525  0.106629  8.4e-05  0.992656  0.0
H  H96  1  0.83059306  0.63444992  0.82785648  1  0.641701  0.001079  0.309473  0.355097  -0.000118  0.975676  0.001
H  H97  1  0.36555240  0.19614398  0.19340638  1  0.641129  0.001076  0.309409  0.355002  -0.000117  0.975852  0.001
H  H98  1  0.80385465  0.16940546  0.99726076  1  0.641174  0.001078  0.309433  0.355028  -0.000117  0.975828  0.001
H  H99  1  0.32785248  0.33059085  0.63445002  1  0.641734  0.001079  0.309467  0.35513  -0.000117  0.975756  0.001
H  H100  1  0.13444708  0.82785306  0.33059163  1  0.641654  0.00108  0.309409  0.354997  -0.000117  0.975856  0.001
H  H101  1  0.17214782  0.30659684  0.50273700  1  0.64136  0.001074  0.309444  0.355091  -0.000117  0.97585  0.001
H  H102  1  0.49726453  0.30385772  0.16941019  1  0.641124  0.001078  0.309446  0.355052  -0.000117  0.975899  0.001
H  H103  1  0.00273848  0.67214520  0.30659662  1  0.641321  0.001075  0.309441  0.355063  -0.000117  0.975831  0.001
H  H104  1  0.69614373  0.19340605  0.86555239  1  0.641126  0.001076  0.309445  0.355058  -0.000117  0.975768  0.001
H  H105  1  0.69340519  0.86555403  0.19613770  1  0.64114  0.001075  0.309482  0.355098  -0.000118  0.975745  0.001
H  H106  1  0.66941061  0.99726535  0.30386161  1  0.64103  0.001079  0.309446  0.355092  -0.000117  0.975686  0.001
H  H107  1  0.80659806  0.50273979  0.67214915  1  0.641358  0.001074  0.309472  0.355104  -0.000117  0.975783  0.001
H  H108  1  0.16940654  0.36554815  0.17214282  1  0.641776  0.001079  0.309466  0.355067  -0.000118  0.975741  0.001
H  H109  1  0.63444884  0.80385822  0.80659636  1  0.641106  0.001076  0.309445  0.35508  -0.000117  0.97581  0.001
H  H110  1  0.19614665  0.83059367  0.00273885  1  0.641175  0.001078  0.309438  0.355037  -0.000117  0.97583  0.001
H  H111  1  0.67214678  0.66941063  0.36555082  1  0.641747  0.001079  0.309458  0.355117  -0.000118  0.975754  0.001
H  H112  1  0.86555355  0.17214603  0.66940870  1  0.641669  0.00108  0.309439  0.355035  -0.000117  0.975839  0.001
H  H113  1  0.82785248  0.69340504  0.49726239  1  0.641395  0.001074  0.309451  0.355073  -0.000117  0.975835  0.001
H  H114  1  0.50273382  0.69614160  0.83058912  1  0.641201  0.001078  0.309436  0.355022  -0.000117  0.97585  0.001
H  H115  1  0.99726323  0.32785623  0.69340488  1  0.641415  0.001074  0.309441  0.355056  -0.000117  0.975772  0.001
H  H116  1  0.30385815  0.80659617  0.13445121  1  0.641234  0.001075  0.309451  0.355063  -0.000117  0.975725  0.001
H  H117  1  0.30659552  0.13444889  0.80386025  1  0.641194  0.001075  0.309445  0.355045  -0.000118  0.975732  0.001
H  H118  1  0.33059139  0.00273512  0.69613902  1  0.641106  0.001078  0.309449  0.355048  -0.000117  0.975738  0.001
H  H119  1  0.19340182  0.49726106  0.32785168  1  0.641357  0.001074  0.309462  0.355094  -0.000117  0.975807  0.001
C  C120  1  0.83315874  0.63552870  0.92612983  1  0.57163  0.012166  0.107673  0.308691  0.009413  3.988783  0.009
C  C121  1  0.36447138  0.19763104  0.29060572  1  0.560617  0.012174  0.107596  0.308594  0.009412  3.988905  0.009
C  C122  1  0.80236848  0.16684057  0.09297318  1  0.544879  0.012139  0.107653  0.308688  0.009412  3.988815  0.009
C  C123  1  0.42613237  0.33316010  0.63553186  1  0.571271  0.012162  0.107662  0.308765  0.00941  3.988815  0.009
C  C124  1  0.13552929  0.92613240  0.33315962  1  0.5713  0.012166  0.107632  0.308604  0.009414  3.988751  0.009
C  C125  1  0.07386732  0.20939708  0.40702566  1  0.483735  0.012199  0.107659  0.308746  0.009411  3.988777  0.009
C  C126  1  0.59297487  0.30237261  0.16684169  1  0.544765  0.012138  0.107705  0.30887  0.009411  3.988657  0.009
C  C127  1  0.90702777  0.57386720  0.20939813  1  0.483876  0.012199  0.107691  0.308789  0.009412  3.988624  0.009
C  C128  1  0.69762808  0.29060081  0.86446888  1  0.561106  0.01217  0.107718  0.308818  0.009412  3.988739  0.009
C  C129  1  0.79059970  0.86447402  0.19762489  1  0.560684  0.012168  0.107759  0.308781  0.009409  3.988703  0.009
C  C130  1  0.66684606  0.09297551  0.30237480  1  0.544815  0.012141  0.107685  0.308673  0.009413  3.988799  0.009
C  C131  1  0.70940286  0.40703105  0.57387371  1  0.484234  0.012201  0.107665  0.308585  0.009414  3.989008  0.009
C  C132  1  0.16684193  0.36446794  0.07386984  1  0.571604  0.012168  0.107709  0.308739  0.009415  3.988746  0.009
C  C133  1  0.63552856  0.80236861  0.70939780  1  0.56064  0.012173  0.107656  0.308659  0.009413  3.988767  0.009
C  C134  1  0.19763148  0.83315912  0.90702874  1  0.544923  0.012138  0.107654  0.308619  0.009411  3.988853  0.009
C  C135  1  0.57386800  0.66684062  0.36446862  1  0.571419  0.012163  0.107665  0.308786  0.00941  3.988804  0.009
C  C136  1  0.86447091  0.07386814  0.66684122  1  0.571329  0.012166  0.107623  0.308621  0.009413  3.988784  0.009
C  C137  1  0.92613110  0.79060356  0.59297380  1  0.483516  0.012199  0.107637  0.308664  0.009412  3.988765  0.009
C  C138  1  0.40702442  0.69762577  0.83315762  1  0.544664  0.012137  0.107646  0.308684  0.00941  3.988715  0.009
C  C139  1  0.09297307  0.42613335  0.79060358  1  0.484049  0.012199  0.10763  0.308615  0.009413  3.988802  0.009
C  C140  1  0.30237011  0.70939897  0.13553166  1  0.561065  0.012172  0.107709  0.308754  0.009412  3.988619  0.009
C  C141  1  0.20940079  0.13552743  0.80237168  1  0.560878  0.012168  0.107691  0.308617  0.00941  3.988876  0.009
C  C142  1  0.33315542  0.90702694  0.69762438  1  0.544997  0.012142  0.107762  0.3088  0.009414  3.988818  0.009
C  C143  1  0.29059816  0.59296969  0.42612764  1  0.484044  0.012201  0.107645  0.308564  0.009413  3.988987  0.009
C  C144  1  0.94797870  0.63518560  0.03780913  1  1.537728  0.03139  0.239023  0.635629  0.029111  4.103449  0.027
C  C145  1  0.36481446  0.31279076  0.40262454  1  1.533461  0.031455  0.239092  0.635706  0.029113  4.103312  0.027
C  C146  1  0.68720733  0.05202486  0.08983361  1  1.533558  0.031469  0.23907  0.635706  0.029116  4.103168  0.027
C  C147  1  0.53781241  0.44797700  0.63518805  1  1.53811  0.031391  0.239225  0.635913  0.029112  4.103166  0.027
C  C148  1  0.13518569  0.03781062  0.44797494  1  1.537843  0.031393  0.239175  0.635925  0.029112  4.103109  0.027
C  C149  1  0.96218976  0.09737661  0.41016625  1  1.531042  0.031453  0.239063  0.635653  0.029119  4.103188  0.027
C  C150  1  0.58983378  0.18721010  0.05202178  1  1.533323  0.031469  0.239119  0.635718  0.029115  4.103111  0.027
C  C151  1  0.91016761  0.46218913  0.09737804  1  1.531082  0.031447  0.239105  0.635741  0.029112  4.103103  0.027
C  C152  1  0.81278789  0.40262308  0.86481202  1  1.533253  0.031458  0.23917  0.635846  0.029114  4.10315  0.027
C  C153  1  0.90261998  0.86481367  0.31278628  1  1.533409  0.031448  0.239129  0.635919  0.029107  4.103207  0.027
C  C154  1  0.55202793  0.08983678  0.18721305  1  1.533513  0.031465  0.239147  0.635935  0.02911  4.10302  0.027
C  C155  1  0.59738117  0.41016979  0.46219257  1  1.531004  0.031447  0.23905  0.635656  0.029112  4.103363  0.027
C  C156  1  0.05202267  0.36481299  0.96218483  1  1.537955  0.031396  0.239045  0.635619  0.029116  4.103217  0.027
C  C157  1  0.63518501  0.68720905  0.59737774  1  1.533458  0.031453  0.239074  0.635733  0.029112  4.10338  0.027
C  C158  1  0.31279027  0.94797558  0.91016534  1  1.533552  0.031468  0.239224  0.635911  0.029113  4.103207  0.027
C  C159  1  0.46218759  0.55202272  0.36481228  1  1.538211  0.031391  0.239257  0.63601  0.029113  4.103046  0.027
C  C160  1  0.86481589  0.96219130  0.55202620  1  1.537924  0.031392  0.239121  0.635873  0.029112  4.10314  0.027
C  C161  1  0.03781036  0.90262509  0.58983351  1  1.531004  0.031449  0.239115  0.635744  0.029113  4.103179  0.027
C  C162  1  0.41016294  0.81278821  0.94797404  1  1.533601  0.031465  0.239259  0.635979  0.02911  4.102941  0.027
C  C163  1  0.08983547  0.53781429  0.90262622  1  1.531036  0.031448  0.239133  0.63574  0.029112  4.103274  0.027
C  C164  1  0.18720959  0.59737849  0.13518744  1  1.533462  0.031458  0.239025  0.635592  0.029117  4.103288  0.027
C  C165  1  0.09737745  0.13518597  0.68721057  1  1.533299  0.031447  0.239116  0.635749  0.029105  4.103188  0.027
C  C166  1  0.44797179  0.91016015  0.81278574  1  1.533532  0.031467  0.239236  0.635966  0.029111  4.103219  0.027
C  C167  1  0.40262136  0.58983183  0.53780944  1  1.530976  0.031446  0.239069  0.635676  0.029112  4.103306  0.027
C  C168  1  0.86829232  0.63566991  0.00210555  1  0.003154  0.003676  -0.028193  -0.175712  0.001921  3.943103  0.001
C  C169  1  0.36432820  0.23261994  0.36643284  1  2.8e-05  0.003676  -0.028146  -0.175506  0.001921  3.942846  0.001
C  C170  1  0.76738030  0.13170970  0.13381542  1  0.073635  0.003599  -0.028242  -0.175755  0.001921  3.943029  0.001
C  C171  1  0.50210473  0.36829275  0.63567687  1  0.003287  0.003676  -0.028263  -0.17586  0.001922  3.943078  0.001
C  C172  1  0.13567124  0.00210500  0.36829084  1  0.003253  0.003675  -0.028181  -0.175647  0.001921  3.942948  0.001
C  C173  1  0.99789454  0.13356728  0.36618614  1  0.071041  0.003622  -0.028173  -0.175635  0.00192  3.942847  0.001
C  C174  1  0.63381306  0.26738392  0.13170757  1  0.073389  0.003599  -0.028243  -0.175756  0.001921  3.943038  0.001
C  C175  1  0.86618654  0.49789425  0.13356805  1  0.071017  0.003623  -0.028171  -0.175641  0.001921  3.942815  0.001
C  C176  1  0.73261551  0.36642950  0.86432458  1  0.000348  0.003675  -0.028245  -0.175811  0.001922  3.943114  0.001
C  C177  1  0.86643232  0.86432974  0.23261708  1  0.000518  0.003673  -0.028245  -0.175787  0.00192  3.942934  0.001
C  C178  1  0.63171202  0.13381740  0.26738206  1  0.073655  0.003597  -0.028236  -0.175778  0.00192  3.943022  0.001
C  C179  1  0.63356676  0.36618631  0.49789400  1  0.070537  0.003622  -0.028202  -0.175735  0.00192  3.942965  0.001
C  C180  1  0.13170690  0.36432716  0.99789360  1  0.003349  0.003674  -0.028154  -0.175563  0.00192  3.942777  0.001
C  C181  1  0.63567200  0.76738060  0.63356800  1  5.1e-05  0.003677  -0.028207  -0.175675  0.001922  3.942906  0.001
C  C182  1  0.23261836  0.86828931  0.86618389  1  0.073868  0.003598  -0.028232  -0.175707  0.001921  3.943017  0.001
C  C183  1  0.49789315  0.63170735  0.36432367  1  0.003212  0.003676  -0.028207  -0.175792  0.001921  3.943028  0.001
C  C184  1  0.86432911  0.99789568  0.63171123  1  0.003276  0.003674  -0.02825  -0.175787  0.001921  3.943052  0.001
C  C185  1  0.00210510  0.86643520  0.63381485  1  0.071196  0.003623  -0.028149  -0.175621  0.001922  3.94296  0.001
C  C186  1  0.36618334  0.73261470  0.86828825  1  0.073663  0.003599  -0.02827  -0.175764  0.001922  3.943013  0.001
C  C187  1  0.13381578  0.50210716  0.86643592  1  0.071026  0.003623  -0.028163  -0.175552  0.001922  3.943049  0.001
C  C188  1  0.26738161  0.63356858  0.13567566  1  0.000103  0.003676  -0.028179  -0.175635  0.001921  3.942906  0.001
C  C189  1  0.13356726  0.13567081  0.76738130  1  0.000204  0.003675  -0.028211  -0.175702  0.001921  3.942852  0.001
C  C190  1  0.36828814  0.86618185  0.73261704  1  0.073638  0.003597  -0.028304  -0.175875  0.00192  3.943031  0.001
C  C191  1  0.36643474  0.63381365  0.50210612  1  0.070752  0.003622  -0.028173  -0.175609  0.00192  3.942914  0.001
C  C192  1  0.75666393  0.63605865  0.89777264  1  -0.030434  0.004236  -0.037342  -0.20184  0.002879  3.994278  0.002
C  C193  1  0.36394326  0.12060936  0.26171274  1  -0.011912  0.004201  -0.037263  -0.201862  0.00288  3.994094  0.002
C  C194  1  0.87939316  0.24333402  0.14110635  1  -0.089093  0.004318  -0.037291  -0.201893  0.00288  3.994164  0.002
C  C195  1  0.39777211  0.25666697  0.63606410  1  -0.030164  0.004236  -0.037261  -0.201773  0.00288  3.993958  0.002
C  C196  1  0.13605954  0.89777181  0.25666791  1  -0.030463  0.004237  -0.037301  -0.201847  0.00288  3.994083  0.002
C  C197  1  0.10222707  0.23828528  0.35889349  1  0.028238  0.004133  -0.037278  -0.201874  0.002879  3.994205  0.002
C  C198  1  0.64110867  0.37939809  0.24333589  1  -0.089089  0.004318  -0.037277  -0.201958  0.00288  3.994221  0.002
C  C199  1  0.85889464  0.60222744  0.23828850  1  0.027907  0.004134  -0.037309  -0.201959  0.002879  3.994127  0.002
C  C200  1  0.62060461  0.26171110  0.86393918  1  -0.01201  0.004203  -0.037259  -0.201861  0.002881  3.994099  0.002
C  C201  1  0.76171428  0.86394259  0.12060068  1  -0.011709  0.004202  -0.037374  -0.202144  0.00288  3.994429  0.002
C  C202  1  0.74333916  0.14111171  0.37939851  1  -0.089032  0.004317  -0.037349  -0.201959  0.00288  3.99431  0.002
C  C203  1  0.73828937  0.35889320  0.60222899  1  0.02817  0.004132  -0.037327  -0.201757  0.002879  3.994282  0.002
C  C204  1  0.24333430  0.36393868  0.10222724  1  -0.03042  0.004235  -0.037297  -0.201816  0.002879  3.994253  0.002
C  C205  1  0.63605729  0.87939154  0.73828738  1  -0.011783  0.004201  -0.037308  -0.201838  0.00288  3.994085  0.002
C  C206  1  0.12060619  0.75666567  0.85889311  1  -0.089113  0.004319  -0.037297  -0.201845  0.002881  3.994063  0.002
C  C207  1  0.60222565  0.74333426  0.36393695  1  -0.03018  0.004236  -0.037271  -0.201808  0.00288  3.994182  0.002
C  C208  1  0.86393949  0.10222881  0.74333401  1  -0.030483  0.004236  -0.03732  -0.201914  0.00288  3.994161  0.002
C  C209  1  0.89777214  0.76171552  0.64110807  1  0.027968  0.004135  -0.037257  -0.201841  0.002881  3.994232  0.002
C  C210  1  0.35889062  0.62060029  0.75666342  1  -0.089057  0.004319  -0.03724  -0.201861  0.00288  3.994237  0.002
C  C211  1  0.14110853  0.39777420  0.76171438  1  0.027791  0.004134  -0.037276  -0.201853  0.002879  3.994264  0.002
C  C212  1  0.37939435  0.73828695  0.13605926  1  -0.011985  0.004202  -0.037282  -0.201871  0.00288  3.994029  0.002
C  C213  1  0.23828787  0.13605990  0.87939778  1  -0.011756  0.004202  -0.037356  -0.20188  0.00288  3.994343  0.002
C  C214  1  0.25666199  0.85888727  0.62059987  1  -0.089131  0.004317  -0.037322  -0.201928  0.00288  3.994468  0.002
C  C215  1  0.26171114  0.64110702  0.39777185  1  0.02807  0.004133  -0.037304  -0.201706  0.002879  3.994109  0.002
C  C216  1  0.71724684  0.63393266  0.81737077  1  1.525982  0.019665  0.232118  0.615974  0.017979  4.141427  0.017
C  C217  1  0.36606996  0.08330705  0.18343749  1  1.522209  0.01969  0.232169  0.616003  0.017967  4.141753  0.017
C  C218  1  0.91669231  0.28275705  0.10012812  1  1.502505  0.019781  0.232303  0.616256  0.017971  4.141524  0.017
C  C219  1  0.31736783  0.21723871  0.63393597  1  1.52585  0.019654  0.232211  0.616079  0.017967  4.141733  0.017
C  C220  1  0.13393388  0.81736952  0.21724133  1  1.525948  0.019656  0.232177  0.615988  0.01797  4.141726  0.017
C  C221  1  0.18262911  0.31656244  0.39986853  1  1.488546  0.019799  0.232191  0.616088  0.017967  4.141866  0.017
C  C222  1  0.60013567  0.41669959  0.28276533  1  1.50267  0.019777  0.232131  0.616026  0.017968  4.142059  0.017
C  C223  1  0.89987181  0.68263075  0.31656467  1  1.488631  0.019805  0.232253  0.616224  0.017973  4.141654  0.017
C  C224  1  0.58330657  0.18343492  0.86606671  1  1.522087  0.019693  0.232284  0.61626  0.017969  4.141564  0.017
C  C225  1  0.68343445  0.86606913  0.08330774  1  1.522095  0.019699  0.232211  0.616138  0.017976  4.141218  0.017
C  C226  1  0.78275633  0.10012535  0.41668908  1  1.502554  0.019788  0.232108  0.615929  0.01798  4.141364  0.017
C  C227  1  0.81656631  0.39988184  0.68263324  1  1.488584  0.019815  0.232143  0.615912  0.017985  4.141273  0.017
C  C228  1  0.28275079  0.36606593  0.18262998  1  1.525821  0.019669  0.232131  0.615909  0.017982  4.141418  0.017
C  C229  1  0.63393041  0.91668742  0.81656312  1  1.522327  0.019697  0.232134  0.615932  0.017974  4.141604  0.017
C  C230  1  0.08330954  0.71724388  0.89987374  1  1.502498  0.019782  0.232316  0.616274  0.017971  4.141459  0.017
C  C231  1  0.68263065  0.78276073  0.36606616  1  1.526246  0.019654  0.232178  0.616041  0.017969  4.141686  0.017
C  C232  1  0.86606689  0.18263159  0.78275683  1  1.525961  0.019661  0.232352  0.616322  0.017973  4.141546  0.017
C  C233  1  0.81737055  0.68343695  0.60013093  1  1.48905  0.019801  0.23222  0.616111  0.017971  4.141676  0.017
C  C234  1  0.39986725  0.58330304  0.71723683  1  1.502683  0.019776  0.232134  0.61598  0.017968  4.142012  0.017
C  C235  1  0.10012885  0.31737275  0.68343734  1  1.488621  0.019808  0.232219  0.61607  0.017977  4.141596  0.017
C  C236  1  0.41668858  0.81656244  0.13393164  1  1.522337  0.019696  0.232194  0.61614  0.017973  4.141454  0.017
C  C237  1  0.31656613  0.13393367  0.91668739  1  1.521972  0.019706  0.232123  0.615932  0.017982  4.1412  0.017
C  C238  1  0.21725074  0.89987894  0.58331491  1  1.502426  0.019795  0.232056  0.615854  0.017985  4.141167  0.017
C  C239  1  0.18343352  0.60012147  0.31736826  1  1.488621  0.019814  0.232126  0.615871  0.017984  4.141366  0.017
C  C240  1  0.71641574  0.63666632  0.94500380  1  -0.118603  0.010342  -0.070417  -0.042349  0.007889  3.980106  0.006
C  C241  1  0.36333491  0.07974984  0.30834023  1  -0.119123  0.010338  -0.070422  -0.042228  0.007888  3.98018  0.006
C  C242  1  0.92025352  0.28358612  0.22859193  1  0.035685  0.010201  -0.070479  -0.0424  0.007889  3.980219  0.006
C  C243  1  0.44500810  0.21641771  0.63667090  1  -0.118856  0.010339  -0.070445  -0.042366  0.007887  3.980219  0.006
C  C244  1  0.13666804  0.94500529  0.21641539  1  -0.118579  0.01034  -0.070433  -0.042327  0.007888  3.980133  0.006
C  C245  1  0.05499234  0.19165637  0.27140710  1  -0.088765  0.010324  -0.070423  -0.042333  0.00789  3.980228  0.006
C  C246  1  0.72859497  0.42025741  0.28358420  1  0.0356  0.010197  -0.070503  -0.042291  0.007886  3.98036  0.006
C  C247  1  0.77140884  0.55499231  0.19166029  1  -0.088895  0.010322  -0.070419  -0.042259  0.007889  3.98013  0.006
C  C248  1  0.57974666  0.30833773  0.86333205  1  -0.119147  0.010336  -0.070483  -0.042375  0.007887  3.980261  0.006
C  C249  1  0.80833818  0.86333119  0.07974346  1  -0.119276  0.010336  -0.070495  -0.042238  0.007887  3.980156  0.006
C  C250  1  0.78359038  0.22859374  0.42025692  1  0.035769  0.010201  -0.070463  -0.04227  0.00789  3.980064  0.006
C  C251  1  0.69166569  0.27141190  0.55499947  1  -0.088612  0.010325  -0.0704  -0.042289  0.007891  3.979962  0.006
C  C252  1  0.28358438  0.36332913  0.05499608  1  -0.118712  0.010345  -0.07042  -0.042312  0.007892  3.979972  0.006
C  C253  1  0.63666588  0.92025005  0.69166220  1  -0.119122  0.010337  -0.070389  -0.042228  0.007888  3.980156  0.006
C  C254  1  0.07974636  0.71641473  0.77140891  1  0.035782  0.010199  -0.070454  -0.042375  0.007888  3.980178  0.006
C  C255  1  0.55499096  0.78358295  0.36332943  1  -0.119073  0.010339  -0.07047  -0.042398  0.007887  3.980414  0.006
C  C256  1  0.86333049  0.05499421  0.78358356  1  -0.118775  0.01034  -0.070433  -0.042326  0.007888  3.980106  0.006
C  C257  1  0.94500631  0.80834200  0.72859134  1  -0.088752  0.010322  -0.070437  -0.042385  0.007889  3.980187  0.006
C  C258  1  0.27140468  0.57974133  0.71641438  1  0.035567  0.010197  -0.070511  -0.042292  0.007886  3.980304  0.006
C  C259  1  0.22859144  0.44500706  0.80834163  1  -0.08888  0.010321  -0.07045  -0.042333  0.007888  3.980177  0.006
C  C260  1  0.42025051  0.69166103  0.13666747  1  -0.119201  0.010338  -0.070452  -0.042327  0.007888  3.980302  0.006
C  C261  1  0.19166356  0.13666901  0.92025311  1  -0.119503  0.010336  -0.070399  -0.042188  0.007886  3.98027  0.006
C  C262  1  0.21641003  0.77140701  0.57974197  1  0.035687  0.010203  -0.070451  -0.042284  0.007891  3.980121  0.006
C  C263  1  0.30833546  0.72858835  0.44500224  1  -0.088621  0.010325  -0.070372  -0.042234  0.007891  3.97988  0.006
C  C264  1  0.82563484  0.63634780  0.04726839  1  -0.105514  0.010274  -0.069484  -0.03888  0.007745  3.95535  0.006
C  C265  1  0.36365118  0.18928352  0.41092127  1  -0.107997  0.010281  -0.069456  -0.038984  0.007748  3.955186  0.006
C  C266  1  0.81071624  0.17436859  0.22163766  1  -0.133632  0.010296  -0.069453  -0.038828  0.007748  3.955247  0.006
C  C267  1  0.54727298  0.32563692  0.63635518  1  -0.106326  0.01028  -0.069468  -0.03885  0.007749  3.955207  0.006
C  C268  1  0.13634899  0.04726834  0.32563179  1  -0.105722  0.010278  -0.069469  -0.038863  0.007748  3.95528  0.006
C  C269  1  0.95272833  0.08907627  0.27836165  1  -0.04482  0.010253  -0.069476  -0.038958  0.007749  3.955188  0.006
C  C270  1  0.72163748  0.31071951  0.17436363  1  -0.132799  0.010296  -0.069442  -0.038836  0.007749  3.955209  0.006
C  C271  1  0.77836214  0.45272876  0.08907717  1  -0.044798  0.010252  -0.069516  -0.039038  0.007748  3.95529  0.006
C  C272  1  0.68928130  0.41091687  0.86364688  1  -0.107666  0.010282  -0.069486  -0.038991  0.007748  3.955357  0.006
C  C273  1  0.91091930  0.86364830  0.18928223  1  -0.10784  0.010281  -0.069444  -0.03884  0.007748  3.95528  0.006
C  C274  1  0.67437215  0.22163959  0.31072115  1  -0.133482  0.010295  -0.069449  -0.038797  0.007748  3.955324  0.006
C  C275  1  0.58908345  0.27836525  0.45273373  1  -0.044636  0.010252  -0.069582  -0.038934  0.007748  3.955444  0.006
C  C276  1  0.17436700  0.36364876  0.95273019  1  -0.106091  0.010279  -0.069527  -0.039084  0.007749  3.955433  0.006
C  C277  1  0.63634928  0.81071603  0.58908029  1  -0.107979  0.01028  -0.069468  -0.039002  0.007747  3.955322  0.006
C  C278  1  0.18928310  0.82563172  0.77836426  1  -0.133822  0.010295  -0.069529  -0.038911  0.007747  3.955425  0.006
C  C279  1  0.45272570  0.67436273  0.36364500  1  -0.106028  0.01028  -0.069464  -0.038863  0.007749  3.95531  0.006
C  C280  1  0.86365081  0.95273056  0.67436803  1  -0.105703  0.010278  -0.06942  -0.038769  0.007748  3.955222  0.006
C  C281  1  0.04726956  0.91092321  0.72163642  1  -0.044904  0.01025  -0.06945  -0.038826  0.007746  3.955312  0.006
C  C282  1  0.27836057  0.68927951  0.82563321  1  -0.13315  0.010295  -0.069401  -0.038705  0.007748  3.955212  0.006
C  C283  1  0.22163736  0.54727109  0.91092352  1  -0.044822  0.010251  -0.069465  -0.0389  0.007747  3.955315  0.006
C  C284  1  0.31071666  0.58908081  0.13635141  1  -0.107938  0.010282  -0.069468  -0.038937  0.007749  3.955213  0.006
C  C285  1  0.08908191  0.13635201  0.81071629  1  -0.107825  0.01028  -0.069518  -0.038927  0.007747  3.955282  0.006
C  C286  1  0.32562852  0.77836017  0.68927846  1  -0.133448  0.010297  -0.069457  -0.038785  0.007749  3.955378  0.006
C  C287  1  0.41091838  0.72163504  0.54726725  1  -0.044691  0.010251  -0.069559  -0.03898  0.007748  3.955415  0.006
C  C288  1  0.75053186  0.63665221  0.01962701  1  0.094438  0.000309  -0.100514  -0.12063  0.000223  4.047054  0.0
C  C289  1  0.36334912  0.11387706  0.38297113  1  0.093418  0.000308  -0.100607  -0.120779  0.000222  4.047345  0.0
C  C290  1  0.88612637  0.24947445  0.26909760  1  0.056063  0.000331  -0.100567  -0.120689  0.000222  4.047214  0.0
C  C291  1  0.51962461  0.25053025  0.63666045  1  0.095411  0.000308  -0.100633  -0.120895  0.000222  4.047343  0.0
C  C292  1  0.13665129  0.01962133  0.25052585  1  0.094533  0.000309  -0.100572  -0.12076  0.000223  4.047202  0.0
C  C293  1  0.98037475  0.11702420  0.23090299  1  0.058039  0.000333  -0.100595  -0.12066  0.000221  4.047304  0.0
C  C294  1  0.76909841  0.38613309  0.24947180  1  0.055895  0.000331  -0.100633  -0.120865  0.000222  4.04741  0.0
C  C295  1  0.73090357  0.48037500  0.11702685  1  0.058107  0.000333  -0.100601  -0.120677  0.000222  4.047239  0.0
C  C296  1  0.61387031  0.38296755  0.86334379  1  0.093585  0.000308  -0.100559  -0.120723  0.000222  4.047117  0.0
C  C297  1  0.88296796  0.86334135  0.11386981  1  0.09344  0.000307  -0.100589  -0.120883  0.000222  4.04724  0.0
C  C298  1  0.74947779  0.26910043  0.38612924  1  0.055938  0.000332  -0.100541  -0.12069  0.000222  4.047198  0.0
C  C299  1  0.61702843  0.23090512  0.48037886  1  0.057439  0.000333  -0.100558  -0.120736  0.000221  4.046966  0.0
C  C300  1  0.24946863  0.36334112  0.98037308  1  0.095151  0.000308  -0.100579  -0.120752  0.000222  4.047039  0.0
C  C301  1  0.63665107  0.88612348  0.61702971  1  0.093432  0.000308  -0.100553  -0.120698  0.000223  4.047239  0.0
C  C302  1  0.11387336  0.75052625  0.73090201  1  0.056052  0.000332  -0.100559  -0.120707  0.000222  4.047202  0.0
C  C303  1  0.48037376  0.74946971  0.36333973  1  0.095075  0.000308  -0.100619  -0.120848  0.000222  4.04739  0.0
C  C304  1  0.86334752  0.98037783  0.74947469  1  0.094758  0.000309  -0.100585  -0.120782  0.000222  4.047236  0.0
C  C305  1  0.01962670  0.88297821  0.76909779  1  0.058079  0.000334  -0.100625  -0.120736  0.000222  4.047228  0.0
C  C306  1  0.23090078  0.61386581  0.75052555  1  0.056003  0.000332  -0.100654  -0.121  0.000222  4.04736  0.0
C  C307  1  0.26909842  0.51962608  0.88297624  1  0.058089  0.000334  -0.10059  -0.120695  0.000222  4.047248  0.0
C  C308  1  0.38612500  0.61702934  0.13665333  1  0.09348  0.000308  -0.100573  -0.120732  0.000222  4.047225  0.0
C  C309  1  0.11703324  0.13665831  0.88612785  1  0.093504  0.000308  -0.100566  -0.120896  0.000222  4.047178  0.0
C  C310  1  0.25052123  0.73089894  0.61386935  1  0.056189  0.000332  -0.100542  -0.120702  0.000222  4.047138  0.0
C  C311  1  0.38297341  0.76909581  0.51962300  1  0.05737  0.000333  -0.100612  -0.120823  0.000221  4.047045  0.0
O  O312  1  0.98716958  0.62816227  0.99634102  1  -1.210516  0.115366  -0.303402  -0.602204  0.086155  2.456015  0.05
O  O313  1  0.37183988  0.35900703  0.36817915  1  -1.207784  0.115077  -0.30347  -0.602318  0.086151  2.455917  0.05
O  O314  1  0.64099157  0.01283185  0.00917131  1  -1.212093  0.115231  -0.303421  -0.602261  0.086153  2.45587  0.05
O  O315  1  0.49634126  0.48716961  0.62816694  1  -1.210572  0.115368  -0.303508  -0.602402  0.08616  2.455942  0.05
O  O316  1  0.12816111  0.99634187  0.48716635  1  -1.210647  0.11537  -0.303471  -0.602434  0.086157  2.456021  0.05
O  O317  1  0.00366091  0.13182444  0.49082989  1  -1.206536  0.115373  -0.303446  -0.602278  0.086156  2.455869  0.05
O  O318  1  0.50917129  0.14099528  0.01283035  1  -1.211988  0.115217  -0.303494  -0.602354  0.086156  2.455885  0.05
O  O319  1  0.99082942  0.50365746  0.13182336  1  -1.206506  0.115359  -0.303455  -0.602313  0.086157  2.455881  0.05
O  O320  1  0.85900582  0.36817783  0.87183674  1  -1.20774  0.11508  -0.303428  -0.602267  0.08615  2.455809  0.05
O  O321  1  0.86817443  0.87183662  0.35900173  1  -1.207875  0.115091  -0.303482  -0.602388  0.086157  2.455934  0.05
O  O322  1  0.51283561  0.00917597  0.14099673  1  -1.211938  0.115219  -0.303427  -0.602344  0.086154  2.455963  0.05
O  O323  1  0.63182455  0.49082873  0.50366039  1  -1.206566  0.115367  -0.303427  -0.602235  0.08615  2.456061  0.05
O  O324  1  0.01282785  0.37183738  0.00365583  1  -1.210432  0.115366  -0.303426  -0.6023  0.086157  2.455739  0.05
O  O325  1  0.62816134  0.64099453  0.63182271  1  -1.207835  0.115079  -0.303446  -0.602271  0.08615  2.456073  0.05
O  O326  1  0.35900677  0.98716683  0.99082713  1  -1.212129  0.11524  -0.303465  -0.602391  0.086156  2.455965  0.05
O  O327  1  0.50365963  0.51283162  0.37183405  1  -1.210576  0.115368  -0.30357  -0.602499  0.086161  2.455905  0.05
O  O328  1  0.87184027  0.00365923  0.51283428  1  -1.210685  0.115368  -0.303413  -0.602338  0.086154  2.456063  0.05
O  O329  1  0.99634032  0.86817651  0.50916950  1  -1.206452  0.115359  -0.303439  -0.602297  0.086152  2.455819  0.05
O  O330  1  0.49082507  0.85900267  0.98716619  1  -1.211876  0.115204  -0.303487  -0.602438  0.086159  2.455987  0.05
O  O331  1  0.00917287  0.49634267  0.86817886  1  -1.20641  0.115367  -0.303462  -0.602346  0.086159  2.455957  0.05
O  O332  1  0.14099322  0.63182217  0.12816271  1  -1.207834  0.115071  -0.303442  -0.602228  0.086145  2.455851  0.05
O  O333  1  0.13182407  0.12816160  0.64099548  1  -1.207766  0.11508  -0.303473  -0.602351  0.086156  2.455857  0.05
O  O334  1  0.48716661  0.99082597  0.85900528  1  -1.211921  0.115228  -0.303508  -0.602451  0.086161  2.455983  0.05
O  O335  1  0.36817543  0.50917034  0.49633906  1  -1.206539  0.115363  -0.303431  -0.602252  0.08615  2.455898  0.05
O  O336  1  0.97528340  0.64259570  0.10963645  1  -1.203558  0.077498  -0.298017  -0.56147  0.055231  2.37659  0.039
O  O337  1  0.35740570  0.33268550  0.46704065  1  -1.201632  0.077463  -0.298003  -0.561455  0.055235  2.376657  0.039
O  O338  1  0.66731184  0.02472253  0.13435508  1  -1.20091  0.077467  -0.298029  -0.561474  0.055237  2.376551  0.039
O  O339  1  0.60963286  0.47527733  0.64259297  1  -1.203879  0.077502  -0.298099  -0.56155  0.055234  2.376716  0.039
O  O340  1  0.14259489  0.10963784  0.47527918  1  -1.203558  0.077499  -0.298046  -0.561551  0.055237  2.376429  0.039
O  O341  1  0.89036664  0.03295862  0.36564602  1  -1.203117  0.077409  -0.298024  -0.561484  0.055237  2.376632  0.039
O  O342  1  0.63435565  0.16731476  0.02471898  1  -1.200757  0.077461  -0.298004  -0.561457  0.055236  2.376569  0.039
O  O343  1  0.86564353  0.39036325  0.03295999  1  -1.203113  0.077409  -0.298042  -0.561508  0.055235  2.376624  0.039
O  O344  1  0.83268241  0.46703943  0.85740545  1  -1.201647  0.077464  -0.298098  -0.561559  0.055235  2.376667  0.039
O  O345  1  0.96703655  0.85740522  0.33268188  1  -1.201892  0.077464  -0.298008  -0.561504  0.055229  2.376638  0.039
O  O346  1  0.52472303  0.13435783  0.16731573  1  -1.200962  0.077468  -0.29805  -0.561566  0.055235  2.376392  0.039
O  O347  1  0.53296121  0.36564600  0.39036247  1  -1.20301  0.07741  -0.298027  -0.561494  0.055238  2.376584  0.039
O  O348  1  0.02472204  0.35740758  0.89036406  1  -1.2039  0.077491  -0.298005  -0.561388  0.055229  2.376667  0.039
O  O349  1  0.64259411  0.66731403  0.53296004  1  -1.201583  0.077465  -0.29802  -0.561505  0.055237  2.376607  0.039
O  O350  1  0.33268444  0.97527784  0.86564371  1  -1.200965  0.077469  -0.298118  -0.56158  0.05524  2.376667  0.039
O  O351  1  0.39036645  0.52472169  0.35740720  1  -1.203892  0.077502  -0.298074  -0.561577  0.055235  2.376634  0.039
O  O352  1  0.85740700  0.89036376  0.52472196  1  -1.203576  0.077498  -0.29803  -0.561525  0.055236  2.376418  0.039
O  O353  1  0.10963280  0.96703991  0.63435452  1  -1.203131  0.077406  -0.29807  -0.561523  0.055235  2.376783  0.039
O  O354  1  0.36564074  0.83268322  0.97527598  1  -1.200983  0.077467  -0.298068  -0.561559  0.055236  2.376459  0.039
O  O355  1  0.13435706  0.60963894  0.96704187  1  -1.203233  0.077409  -0.298047  -0.561498  0.055236  2.376635  0.039
O  O356  1  0.16731295  0.53295940  0.14259428  1  -1.201597  0.077464  -0.298019  -0.561464  0.05524  2.376583  0.039
O  O357  1  0.03296442  0.14259671  0.66731679  1  -1.201611  0.077457  -0.298053  -0.561444  0.055228  2.376659  0.039
O  O358  1  0.47527297  0.86563975  0.83268153  1  -1.201018  0.077469  -0.298052  -0.561529  0.055231  2.376558  0.039
O  O359  1  0.46703931  0.63435361  0.60963591  1  -1.203079  0.077411  -0.298046  -0.561523  0.055236  2.376679  0.039
O  O360  1  0.64827624  0.63246768  0.79394992  1  -1.201046  0.067218  -0.299186  -0.544947  0.046542  2.346807  0.029
O  O361  1  0.36753306  0.01581695  0.16148294  1  -1.200331  0.067158  -0.299302  -0.544978  0.046534  2.347789  0.029
O  O362  1  0.98418828  0.35171621  0.14566872  1  -1.198365  0.067222  -0.299346  -0.545046  0.046534  2.347396  0.029
O  O363  1  0.29395267  0.14828578  0.63247302  1  -1.201345  0.067211  -0.29928  -0.54497  0.046534  2.347897  0.029
O  O364  1  0.13247066  0.79395195  0.14828728  1  -1.201148  0.067202  -0.299248  -0.544884  0.046533  2.34778  0.029
O  O365  1  0.20604572  0.33851633  0.35432893  1  -1.20175  0.067167  -0.299307  -0.545069  0.046536  2.347678  0.029
O  O366  1  0.64567189  0.48418979  0.35171828  1  -1.198619  0.067219  -0.299215  -0.544915  0.046532  2.348079  0.029
O  O367  1  0.85433283  0.70604971  0.33852017  1  -1.201705  0.067169  -0.299315  -0.545055  0.046537  2.34755  0.029
O  O368  1  0.51581254  0.16148006  0.86752920  1  -1.20024  0.067174  -0.299338  -0.545097  0.046537  2.347545  0.029
O  O369  1  0.66148472  0.86753377  0.01580528  1  -1.200238  0.067203  -0.299274  -0.545034  0.046543  2.346765  0.029
O  O370  1  0.85172550  0.14567412  0.48419300  1  -1.198424  0.067226  -0.299274  -0.545  0.046543  2.346883  0.029
O  O371  1  0.83852064  0.35432719  0.70605109  1  -1.201611  0.067188  -0.299238  -0.544983  0.046549  2.34676  0.029
O  O372  1  0.35172199  0.36753026  0.20605242  1  -1.2011  0.06722  -0.299223  -0.544917  0.046542  2.346886  0.029
O  O373  1  0.63246429  0.98418511  0.83851616  1  -1.200324  0.067193  -0.299308  -0.545031  0.04654  2.347349  0.029
O  O374  1  0.01581136  0.64828314  0.85433233  1  -1.198326  0.067224  -0.299389  -0.545131  0.04654  2.34738  0.029
O  O375  1  0.70604769  0.85171867  0.36752986  1  -1.201344  0.067213  -0.299235  -0.544971  0.046534  2.347581  0.029
O  O376  1  0.86752974  0.20605067  0.85171740  1  -1.201193  0.067218  -0.299383  -0.545164  0.04654  2.347401  0.029
O  O377  1  0.79395258  0.66148232  0.64567110  1  -1.201757  0.067168  -0.299269  -0.54503  0.046537  2.347607  0.029
O  O378  1  0.35432745  0.51581239  0.64828024  1  -1.198549  0.067218  -0.299191  -0.54487  0.04653  2.347833  0.029
O  O379  1  0.14567073  0.29395232  0.66148040  1  -1.201679  0.067169  -0.299264  -0.545013  0.046539  2.347271  0.029
O  O380  1  0.48418783  0.83851941  0.13246795  1  -1.200273  0.067191  -0.299271  -0.545055  0.046539  2.347225  0.029
O  O381  1  0.33852046  0.13246737  0.98419456  1  -1.200062  0.067193  -0.299235  -0.544997  0.046546  2.346602  0.029
O  O382  1  0.14827345  0.85432642  0.51580450  1  -1.19826  0.067228  -0.299207  -0.54492  0.046549  2.346558  0.029
O  O383  1  0.16148035  0.64567226  0.29394852  1  -1.20169  0.067186  -0.299227  -0.54495  0.046543  2.346954  0.029
O  O384  1  0.87067116  0.63449097  0.87913495  1  -1.188851  0.043974  -0.322916  -0.4538  0.031638  2.437527  0.02
O  O385  1  0.36550980  0.23618107  0.24464170  1  -1.190189  0.044245  -0.322896  -0.453805  0.03164  2.43742  0.02
O  O386  1  0.76381812  0.12932796  0.00846118  1  -1.198687  0.044227  -0.322901  -0.45379  0.031637  2.437435  0.02
O  O387  1  0.37913139  0.37067036  0.63449333  1  -1.188857  0.04398  -0.322963  -0.45393  0.03164  2.437445  0.02
O  O388  1  0.13448856  0.87913063  0.37067080  1  -1.188593  0.043982  -0.322887  -0.453757  0.031641  2.437408  0.02
O  O389  1  0.12086976  0.25536044  0.49153846  1  -1.194722  0.044116  -0.322936  -0.453916  0.031638  2.43746  0.02
O  O390  1  0.50846192  0.26382205  0.12932972  1  -1.198613  0.044225  -0.322941  -0.453886  0.031634  2.437437  0.02
O  O391  1  0.99153980  0.62086690  0.25536111  1  -1.194706  0.044108  -0.322939  -0.45388  0.03164  2.437419  0.02
O  O392  1  0.73617947  0.24464104  0.86550900  1  -1.190692  0.044252  -0.322934  -0.453867  0.031641  2.437398  0.02
O  O393  1  0.74464212  0.86551103  0.23617420  1  -1.190597  0.044243  -0.322926  -0.453818  0.031633  2.437435  0.02
O  O394  1  0.62933213  0.00846645  0.26382305  1  -1.198589  0.044234  -0.322899  -0.453815  0.031638  2.437453  0.02
O  O395  1  0.75535866  0.49153754  0.62086991  1  -1.194813  0.044116  -0.322827  -0.453706  0.031635  2.43771  0.02
O  O396  1  0.12932455  0.36550071  0.12086084  1  -1.188901  0.043979  -0.32297  -0.453845  0.03164  2.437454  0.02
O  O397  1  0.63449072  0.76381979  0.75536001  1  -1.190444  0.044253  -0.322889  -0.453821  0.031641  2.437482  0.02
O  O398  1  0.23618400  0.87067137  0.99153894  1  -1.19873  0.044224  -0.32287  -0.453732  0.031636  2.437596  0.02
O  O399  1  0.62086736  0.62933061  0.36550699  1  -1.188921  0.043979  -0.322947  -0.453907  0.031639  2.437506  0.02
O  O400  1  0.86551327  0.12086966  0.62933019  1  -1.188581  0.043972  -0.322896  -0.45376  0.031638  2.437384  0.02
O  O401  1  0.87913035  0.74464126  0.50846130  1  -1.194757  0.044119  -0.322911  -0.453811  0.031638  2.437406  0.02
O  O402  1  0.49153625  0.73617708  0.87066995  1  -1.19861  0.044232  -0.322936  -0.453842  0.031637  2.437508  0.02
O  O403  1  0.00846242  0.37913503  0.74464090  1  -1.194761  0.044107  -0.322896  -0.453804  0.031638  2.437477  0.02
O  O404  1  0.26382249  0.75536001  0.13449568  1  -1.19069  0.044254  -0.322909  -0.453811  0.03164  2.437414  0.02
O  O405  1  0.25535749  0.13448955  0.76382258  1  -1.190716  0.044246  -0.322828  -0.453692  0.031636  2.437643  0.02
O  O406  1  0.37066997  0.99153224  0.73617619  1  -1.198665  0.04424  -0.322945  -0.453809  0.031639  2.437629  0.02
O  O407  1  0.24464122  0.50846331  0.37913093  1  -1.194748  0.044104  -0.322854  -0.453757  0.031637  2.437763  0.02
O  O408  1  0.75632514  0.63303226  0.77503266  1  -1.166639  0.059082  -0.301124  -0.554645  0.041948  2.298829  0.026
O  O409  1  0.36697148  0.12329879  0.14200033  1  -1.165374  0.05897  -0.301063  -0.554594  0.041952  2.298215  0.026
O  O410  1  0.87670267  0.24367079  0.01870260  1  -1.150835  0.058804  -0.301159  -0.554729  0.04195  2.298503  0.026
O  O411  1  0.27502991  0.25632795  0.63303521  1  -1.166315  0.05909  -0.301108  -0.554697  0.041951  2.298201  0.026
O  O412  1  0.13303269  0.77503114  0.25633099  1  -1.16644  0.05909  -0.301126  -0.554644  0.041951  2.298267  0.026
O  O413  1  0.22496916  0.35800222  0.48129460  1  -1.157844  0.058852  -0.301073  -0.554643  0.041949  2.298501  0.026
O  O414  1  0.51870604  0.37670660  0.24367367  1  -1.150534  0.058799  -0.30113  -0.554637  0.041955  2.29829  0.026
O  O415  1  0.98129732  0.72496971  0.35800215  1  -1.157964  0.058863  -0.301116  -0.554732  0.041954  2.29853  0.026
O  O416  1  0.62329589  0.14199960  0.86696993  1  -1.165424  0.058974  -0.30115  -0.554758  0.041955  2.298486  0.026
O  O417  1  0.64199526  0.86696560  0.12328474  1  -1.165575  0.058966  -0.301108  -0.554602  0.041947  2.29876  0.026
O  O418  1  0.74367505  0.01870534  0.37670754  1  -1.150694  0.058798  -0.30107  -0.554542  0.041947  2.298692  0.026
O  O419  1  0.85800611  0.48129715  0.72497309  1  -1.158146  0.058864  -0.301114  -0.554603  0.041947  2.298714  0.026
O  O420  1  0.24367204  0.36696714  0.22496773  1  -1.166538  0.05908  -0.301132  -0.554635  0.041947  2.29875  0.026
O  O421  1  0.63302911  0.87670339  0.85800153  1  -1.165646  0.058967  -0.301046  -0.554567  0.041949  2.298518  0.026
O  O422  1  0.12329742  0.75633027  0.98129629  1  -1.150881  0.058812  -0.301147  -0.554714  0.041952  2.298591  0.026
O  O423  1  0.72496808  0.74367414  0.36696476  1  -1.166648  0.05909  -0.301112  -0.554676  0.041949  2.29842  0.026
O  O424  1  0.86696861  0.22496925  0.74367195  1  -1.166508  0.05909  -0.301156  -0.554712  0.041952  2.298572  0.026
O  O425  1  0.77503033  0.64200011  0.51870516  1  -1.157945  0.058847  -0.301132  -0.554694  0.041951  2.298392  0.026
O  O426  1  0.48129453  0.62329494  0.75632731  1  -1.150718  0.058813  -0.301151  -0.554621  0.041954  2.298379  0.026
O  O427  1  0.01870464  0.27503321  0.64199914  1  -1.157876  0.058856  -0.301142  -0.554673  0.041954  2.298563  0.026
O  O428  1  0.37670523  0.85799936  0.13303004  1  -1.1657  0.058973  -0.301116  -0.55468  0.04195  2.2986  0.026
O  O429  1  0.35800320  0.13303445  0.87671066  1  -1.165617  0.058966  -0.301105  -0.554568  0.041946  2.298783  0.026
O  O430  1  0.25632805  0.98129373  0.62329186  1  -1.150771  0.058792  -0.301118  -0.554583  0.041947  2.298796  0.026
O  O431  1  0.14199453  0.51870258  0.27502811  1  -1.158043  0.058851  -0.301078  -0.55458  0.041948  2.298683  0.026
