# generated using pymatgen
data_CdH25C25(NO)5
_symmetry_space_group_name_H-M   'P 1'
_cell_length_a   16.55939561
_cell_length_b   17.24791633
_cell_length_c   18.32242041
_cell_angle_alpha   89.99996945
_cell_angle_beta   89.99930462
_cell_angle_gamma   89.99978293
_symmetry_Int_Tables_number   1
_chemical_formula_structural   CdH25C25(NO)5
_chemical_formula_sum   'Cd8 H200 C200 N40 O40'
_cell_volume   5233.15938875
_cell_formula_units_Z   8
loop_
 _symmetry_equiv_pos_site_id
 _symmetry_equiv_pos_as_xyz
  1  'x, y, z'
loop_
 _atom_site_type_symbol
 _atom_site_label
 _atom_site_symmetry_multiplicity
 _atom_site_fract_x
 _atom_site_fract_y
 _atom_site_fract_z
 _atom_site_occupancy
 _atom_site_pbe_bader_charge
 _atom_site_pbe_bader_spin_density
 _atom_site_pbe_cm5_charge
 _atom_site_pbe_ddec_charge
 _atom_site_pbe_ddec_spin_density
 _atom_site_pbe_ddec_sum_bond_order
 _atom_site_pbe_magmom
Cd  Cd0  1  0.21244778  0.00691742  0.47730040  1  1.223937  0  0.773823  0.848333  0  2.19492  0
Cd  Cd1  1  0.28755272  0.99308380  0.97729808  1  1.223861  0  0.773802  0.848316  0  2.195021  0
Cd  Cd2  1  0.71244605  0.49307725  0.52270255  1  1.22402  0  0.773802  0.848298  0  2.194992  0
Cd  Cd3  1  0.78754933  0.50691892  0.02269942  1  1.223919  0  0.773844  0.848348  0  2.194996  0
Cd  Cd4  1  0.78755409  0.99308301  0.52269983  1  1.224005  0  0.773813  0.848321  0  2.19499  0
Cd  Cd5  1  0.71244613  0.00691663  0.02269887  1  1.223959  0  0.773829  0.848351  0  2.195006  0
Cd  Cd6  1  0.28755159  0.50692029  0.47729822  1  1.223918  0  0.773798  0.848279  0  2.195052  0
Cd  Cd7  1  0.21245011  0.49308209  0.97730408  1  1.223887  0  0.773846  0.848345  0  2.195099  0
H  H8  1  0.38771376  0.07234880  0.37970969  1  0.139791  0  0.119924  0.115868  0  1.002687  0
H  H9  1  0.11229408  0.92765190  0.87970770  1  0.139758  0  0.119946  0.115956  0  1.002594  0
H  H10  1  0.88770735  0.42764928  0.62029079  1  0.139717  0  0.11993  0.115912  0  1.002603  0
H  H11  1  0.61228672  0.57234856  0.12029391  1  0.139784  0  0.119932  0.115894  0  1.002573  0
H  H12  1  0.61228811  0.92765047  0.62029054  1  0.139798  0  0.119942  0.115945  0  1.00258  0
H  H13  1  0.88770295  0.07234737  0.12029253  1  0.139749  0  0.119947  0.115975  0  1.002612  0
H  H14  1  0.11229210  0.57234651  0.37970726  1  0.139782  0  0.119947  0.115934  0  1.002588  0
H  H15  1  0.38771152  0.42765071  0.87970904  1  0.139783  0  0.119943  0.115936  0  1.002571  0
H  H16  1  0.52562284  0.98211235  0.37381647  1  0.158349  0  0.125587  0.131836  0  1.0277  0
H  H17  1  0.97438414  0.01788884  0.87381315  1  0.158452  0  0.125614  0.131826  0  1.027791  0
H  H18  1  0.02561529  0.51788611  0.62618446  1  0.158502  0  0.125629  0.131862  0  1.027768  0
H  H19  1  0.47437844  0.48210835  0.12618693  1  0.158367  0  0.125603  0.131871  0  1.027657  0
H  H20  1  0.47437963  0.01789156  0.62618485  1  0.158415  0  0.125602  0.13188  0  1.02768  0
H  H21  1  0.02561410  0.98211159  0.12618599  1  0.158515  0  0.125634  0.131848  0  1.027769  0
H  H22  1  0.97438356  0.48210969  0.37381522  1  0.158472  0  0.125609  0.131897  0  1.027726  0
H  H23  1  0.52562040  0.51788802  0.87381603  1  0.158381  0  0.1256  0.131848  0  1.027712  0
H  H24  1  0.35046659  0.87454892  0.51030052  1  0.197621  0  0.139113  0.118797  0  1.032261  0
H  H25  1  0.14953171  0.12544850  0.01030619  1  0.197946  0  0.139135  0.118867  0  1.032159  0
H  H26  1  0.85046433  0.62544777  0.48969466  1  0.197959  0  0.139126  0.118848  0  1.032159  0
H  H27  1  0.64953385  0.37455045  0.98969800  1  0.197574  0  0.139131  0.118833  0  1.032266  0
H  H28  1  0.64953588  0.12545093  0.48969971  1  0.197565  0  0.13911  0.11878  0  1.032267  0
H  H29  1  0.85046774  0.87455077  0.98969404  1  0.19791  0  0.139134  0.118854  0  1.03219  0
H  H30  1  0.14953451  0.37455150  0.51030612  1  0.197918  0  0.139142  0.118874  0  1.032124  0
H  H31  1  0.35046500  0.62545172  0.01030114  1  0.197546  0  0.139109  0.118803  0  1.032232  0
H  H32  1  0.61530271  0.90503967  0.44634735  1  0.088795  0  0.104668  0.11338  0  1.031728  0
H  H33  1  0.88470088  0.09496264  0.94635043  1  0.088912  0  0.104689  0.113441  0  1.031629  0
H  H34  1  0.11529884  0.59496194  0.55365314  1  0.088898  0  0.104672  0.113418  0  1.03162  0
H  H35  1  0.38470310  0.40504067  0.05365063  1  0.088842  0  0.1047  0.113425  0  1.031724  0
H  H36  1  0.38470217  0.09496308  0.55365070  1  0.088926  0  0.104662  0.113364  0  1.031626  0
H  H37  1  0.11529736  0.90503895  0.05365034  1  0.088875  0  0.104696  0.113428  0  1.03173  0
H  H38  1  0.88470181  0.40503733  0.44634873  1  0.088936  0  0.104662  0.113362  0  1.031619  0
H  H39  1  0.61529816  0.59495918  0.94634906  1  0.088827  0  0.104701  0.113421  0  1.031723  0
H  H40  1  0.70008971  0.78780506  0.46694299  1  0.084773  0  0.100731  0.104338  0  1.047994  0
H  H41  1  0.79991481  0.21219666  0.96694804  1  0.084901  0  0.100707  0.104263  0  1.047964  0
H  H42  1  0.20008385  0.71219508  0.53305438  1  0.08493  0  0.100705  0.10424  0  1.048012  0
H  H43  1  0.29991414  0.28780928  0.03305341  1  0.084839  0  0.100695  0.104258  0  1.048027  0
H  H44  1  0.29991456  0.21219595  0.53305014  1  0.084938  0  0.100696  0.104278  0  1.048001  0
H  H45  1  0.20008585  0.78780725  0.03305165  1  0.08488  0  0.100712  0.104314  0  1.047955  0
H  H46  1  0.79991620  0.28780361  0.46694312  1  0.084952  0  0.100718  0.104255  0  1.048013  0
H  H47  1  0.70008711  0.71218941  0.96694628  1  0.084802  0  0.100694  0.104283  0  1.04805  0
H  H48  1  0.48643892  0.64849528  0.49006560  1  0.134781  0  0.109232  0.118791  0  0.992906  0
H  H49  1  0.01356684  0.35150419  0.99006663  1  0.134853  0  0.109209  0.118763  0  0.992879  0
H  H50  1  0.98643188  0.85150323  0.50993026  1  0.134878  0  0.109236  0.118829  0  0.992828  0
H  H51  1  0.51356307  0.14849410  0.00993251  1  0.134726  0  0.109203  0.118765  0  0.992894  0
H  H52  1  0.51356596  0.35150631  0.50993026  1  0.134788  0  0.109201  0.118773  0  0.992882  0
H  H53  1  0.98643563  0.64849450  0.00993360  1  0.134878  0  0.109229  0.118832  0  0.992855  0
H  H54  1  0.01356817  0.14849314  0.49006560  1  0.134822  0  0.109199  0.118748  0  0.992847  0
H  H55  1  0.48643819  0.85150343  0.99006936  1  0.134791  0  0.109227  0.118765  0  0.992918  0
H  H56  1  0.40092124  0.76299507  0.46603810  1  0.112833  0  0.10524  0.115945  0  1.047239  0
H  H57  1  0.09908363  0.23700325  0.96603988  1  0.112687  0  0.10529  0.115978  0  1.047291  0
H  H58  1  0.90091553  0.73700375  0.53395925  1  0.112807  0  0.105251  0.115933  0  1.047266  0
H  H59  1  0.59908332  0.26299240  0.03395940  1  0.112737  0  0.105258  0.115957  0  1.047251  0
H  H60  1  0.59908364  0.23700652  0.53395940  1  0.112685  0  0.105254  0.115929  0  1.047256  0
H  H61  1  0.90091702  0.76299544  0.03396198  1  0.112747  0  0.105285  0.115986  0  1.047173  0
H  H62  1  0.09908452  0.26299436  0.46603989  1  0.112804  0  0.105249  0.115915  0  1.047298  0
H  H63  1  0.40091854  0.73700513  0.96604083  1  0.112746  0  0.105265  0.115976  0  1.047274  0
H  H64  1  0.30116491  0.94060507  0.63521494  1  0.167246  0  0.12225  0.129846  0  1.026514  0
H  H65  1  0.19882568  0.05940040  0.13521465  1  0.167057  0  0.122152  0.129791  0  1.026514  0
H  H66  1  0.80116458  0.55939470  0.36479060  1  0.167331  0  0.122196  0.129699  0  1.026611  0
H  H67  1  0.69882742  0.44060243  0.86478572  1  0.167104  0  0.122167  0.129691  0  1.026608  0
H  H68  1  0.69883212  0.05939594  0.36478692  1  0.167283  0  0.122209  0.12976  0  1.026585  0
H  H69  1  0.80117800  0.94060119  0.86478612  1  0.167564  0  0.122177  0.129739  0  1.026518  0
H  H70  1  0.19883064  0.44060631  0.63521345  1  0.167162  0  0.1222  0.129749  0  1.026596  0
H  H71  1  0.30117747  0.55940032  0.13521560  1  0.167652  0  0.122166  0.129748  0  1.026474  0
H  H72  1  0.30596977  0.02544056  0.76336471  1  0.15209  0  0.127834  0.139632  0  1.020198  0
H  H73  1  0.19402212  0.97456367  0.26336509  1  0.151952  0  0.127806  0.139615  0  1.02034  0
H  H74  1  0.80597376  0.47456071  0.23663777  1  0.152124  0  0.127813  0.13968  0  1.020027  0
H  H75  1  0.69402479  0.52543997  0.73663617  1  0.152043  0  0.127812  0.13971  0  1.020168  0
H  H76  1  0.69402606  0.97455755  0.23663771  1  0.152107  0  0.127809  0.139678  0  1.020087  0
H  H77  1  0.80597974  0.02543734  0.73663514  1  0.151968  0  0.127823  0.139642  0  1.020306  0
H  H78  1  0.19402629  0.52544377  0.76336301  1  0.152123  0  0.127822  0.139699  0  1.020058  0
H  H79  1  0.30597767  0.47456162  0.26336515  1  0.152031  0  0.127799  0.139636  0  1.020145  0
H  H80  1  0.17784456  0.15116733  0.60015714  1  0.159016  0  0.142555  0.115224  0  0.991311  0
H  H81  1  0.32215435  0.84884163  0.10015618  1  0.159168  0  0.142545  0.115185  0  0.99135  0
H  H82  1  0.67784384  0.34883267  0.39984292  1  0.158997  0  0.142526  0.115221  0  0.991315  0
H  H83  1  0.82215011  0.65116676  0.89984313  1  0.159064  0  0.142561  0.115224  0  0.991187  0
H  H84  1  0.82215549  0.84883541  0.39984528  1  0.159042  0  0.142541  0.115207  0  0.991348  0
H  H85  1  0.67784752  0.15115996  0.89984296  1  0.159178  0  0.142577  0.115262  0  0.991229  0
H  H86  1  0.32215501  0.65116834  0.60015676  1  0.158982  0  0.142539  0.115215  0  0.991297  0
H  H87  1  0.17784994  0.34884005  0.10015874  1  0.159106  0  0.142583  0.115226  0  0.991327  0
H  H88  1  0.22082440  0.25744443  0.65817377  1  0.055435  0  0.110092  0.120032  0  1.009899  0
H  H89  1  0.27916951  0.74256045  0.15817006  1  0.055251  0  0.110094  0.120045  0  1.009939  0
H  H90  1  0.72082608  0.24255600  0.34182909  1  0.055344  0  0.110085  0.120042  0  1.009945  0
H  H91  1  0.77916986  0.75744346  0.84182753  1  0.055258  0  0.110109  0.120058  0  1.009956  0
H  H92  1  0.77917384  0.74255542  0.34182919  1  0.055313  0  0.110097  0.120086  0  1.009922  0
H  H93  1  0.72082873  0.25743998  0.84183017  1  0.055241  0  0.110086  0.12003  0  1.009967  0
H  H94  1  0.27917398  0.75744443  0.65817005  1  0.055307  0  0.110061  0.120026  0  1.009948  0
H  H95  1  0.22082899  0.24255813  0.15817160  1  0.055287  0  0.110097  0.120059  0  1.009925  0
H  H96  1  0.20003420  0.36672547  0.74353212  1  0.101667  0  0.108782  0.110535  0  1.027712  0
H  H97  1  0.29996882  0.63327936  0.24352715  1  0.101853  0  0.108786  0.11048  0  1.027876  0
H  H98  1  0.70003202  0.13327620  0.25646933  1  0.10177  0  0.108787  0.110538  0  1.027727  0
H  H99  1  0.79997049  0.86672215  0.75647022  1  0.101753  0  0.108754  0.110515  0  1.02774  0
H  H100  1  0.79996645  0.63327496  0.25647138  1  0.101742  0  0.10878  0.110537  0  1.027707  0
H  H101  1  0.70002942  0.36672049  0.75647308  1  0.10183  0  0.108773  0.110457  0  1.027901  0
H  H102  1  0.29996682  0.86672597  0.74352653  1  0.101674  0  0.108744  0.11047  0  1.027763  0
H  H103  1  0.20002835  0.13327943  0.24353001  1  0.101785  0  0.108782  0.110509  0  1.027862  0
H  H104  1  0.22436146  0.21256008  0.92640525  1  0.092103  0  0.103703  0.105785  0  1.050574  0
H  H105  1  0.27564575  0.78744464  0.42640155  1  0.092224  0  0.103705  0.105773  0  1.050546  0
H  H106  1  0.72436113  0.28744091  0.07359648  1  0.092148  0  0.103691  0.105753  0  1.050551  0
H  H107  1  0.77564565  0.71255812  0.57359663  1  0.092136  0  0.103708  0.105772  0  1.050621  0
H  H108  1  0.77563738  0.78743977  0.07359826  1  0.092187  0  0.103704  0.105772  0  1.050558  0
H  H109  1  0.72435611  0.21255695  0.57359758  1  0.092172  0  0.103687  0.105746  0  1.050622  0
H  H110  1  0.27563772  0.71256589  0.92640375  1  0.092194  0  0.103698  0.105713  0  1.050596  0
H  H111  1  0.22435621  0.28744289  0.42640415  1  0.092187  0  0.103674  0.10576  0  1.050578  0
H  H112  1  0.23735487  0.10071295  0.84200970  1  0.07081  0  0.107538  0.115199  0  1.024976  0
H  H113  1  0.26264562  0.89929124  0.34200827  1  0.070908  0  0.107515  0.115131  0  1.025043  0
H  H114  1  0.73735599  0.39928684  0.15799244  1  0.070849  0  0.107538  0.115169  0  1.025022  0
H  H115  1  0.76264543  0.60071215  0.65799169  1  0.070879  0  0.107534  0.115194  0  1.0249  0
H  H116  1  0.76264155  0.89928690  0.15799381  1  0.071016  0  0.107556  0.115218  0  1.024991  0
H  H117  1  0.73735866  0.10071035  0.65799141  1  0.070857  0  0.107549  0.115207  0  1.024984  0
H  H118  1  0.26264105  0.60071765  0.84200943  1  0.07083  0  0.107552  0.115241  0  1.025037  0
H  H119  1  0.23735764  0.39928770  0.34200963  1  0.070905  0  0.10753  0.115151  0  1.024969  0
H  H120  1  0.61570556  0.74956225  0.75394976  1  0.024757  0  0.101303  0.07739  0  1.005169  0
H  H121  1  0.88428853  0.25044248  0.25397080  1  0.024996  0  0.101324  0.07748  0  1.005079  0
H  H122  1  0.11570460  0.75043588  0.24605291  1  0.024815  0  0.101345  0.077442  0  1.005125  0
H  H123  1  0.38428812  0.24955851  0.74602153  1  0.02516  0  0.1013  0.077525  0  1.004954  0
H  H124  1  0.38429389  0.25043528  0.24605047  1  0.024737  0  0.101355  0.077495  0  1.005089  0
H  H125  1  0.11571152  0.74955911  0.74602397  1  0.02491  0  0.101309  0.07752  0  1.004992  0
H  H126  1  0.88429243  0.24956224  0.75395114  1  0.024681  0  0.101355  0.077416  0  1.005162  0
H  H127  1  0.61570891  0.75044192  0.25397215  1  0.025024  0  0.101324  0.077517  0  1.005045  0
H  H128  1  0.58317301  0.72576758  0.66524496  1  0.068042  0  0.104399  0.078326  0  0.988714  0
H  H129  1  0.91681442  0.27423720  0.16526291  1  0.067856  0  0.104372  0.078292  0  0.988822  0
H  H130  1  0.08316835  0.77423125  0.33475643  1  0.067966  0  0.1044  0.078409  0  0.988643  0
H  H131  1  0.41680567  0.22576019  0.83473125  1  0.067845  0  0.10434  0.078259  0  0.988867  0
H  H132  1  0.41682584  0.27422763  0.33475636  1  0.068021  0  0.104449  0.078413  0  0.98867  0
H  H133  1  0.08318986  0.72576439  0.83473460  1  0.067833  0  0.104372  0.078313  0  0.988888  0
H  H134  1  0.91682687  0.22576918  0.66524599  1  0.068069  0  0.104406  0.078388  0  0.988684  0
H  H135  1  0.58318774  0.77423734  0.16526406  1  0.067834  0  0.104383  0.078314  0  0.988944  0
H  H136  1  0.55485635  0.61852161  0.75708945  1  0.056619  0  0.088146  0.122302  0  1.009942  0
H  H137  1  0.94514253  0.38148370  0.25710485  1  0.056182  0  0.088145  0.122336  0  1.009669  0
H  H138  1  0.05485855  0.88147674  0.24291116  1  0.056637  0  0.088157  0.122323  0  1.009903  0
H  H139  1  0.44513905  0.11851417  0.74289228  1  0.05606  0  0.088089  0.12228  0  1.009693  0
H  H140  1  0.44514068  0.38147592  0.24291242  1  0.056668  0  0.088155  0.122276  0  1.009926  0
H  H141  1  0.05486054  0.61851731  0.74289538  1  0.056126  0  0.08813  0.122301  0  1.009677  0
H  H142  1  0.94514211  0.11852195  0.75709017  1  0.056611  0  0.088151  0.122269  0  1.009926  0
H  H143  1  0.55485738  0.88148394  0.25710304  1  0.056168  0  0.088118  0.122282  0  1.009738  0
H  H144  1  0.46552723  0.65258561  0.71368737  1  0.027709  0  0.084819  0.115689  0  1.011392  0
H  H145  1  0.03446895  0.34741576  0.21369092  1  0.027644  0  0.084803  0.115666  0  1.01144  0
H  H146  1  0.96552380  0.84741414  0.28631254  1  0.027655  0  0.084811  0.115657  0  1.011341  0
H  H147  1  0.53446381  0.15258072  0.78630635  1  0.027589  0  0.084846  0.115725  0  1.011424  0
H  H148  1  0.53447222  0.34741308  0.28631504  1  0.027095  0  0.084836  0.115672  0  1.011387  0
H  H149  1  0.96553472  0.65258293  0.78630931  1  0.027699  0  0.084814  0.115656  0  1.011455  0
H  H150  1  0.03447142  0.15258513  0.71368605  1  0.027617  0  0.08482  0.115644  0  1.011388  0
H  H151  1  0.46553141  0.84741797  0.21369006  1  0.027605  0  0.084804  0.115659  0  1.01147  0
H  H152  1  0.48849298  0.68190328  0.80443125  1  0.0322  0  0.083574  0.114795  0  1.036416  0
H  H153  1  0.01151164  0.31809687  0.30443834  1  0.03196  0  0.083565  0.114744  0  1.036435  0
H  H154  1  0.98849391  0.81809464  0.19556732  1  0.032176  0  0.083582  0.114781  0  1.036454  0
H  H155  1  0.51151184  0.18189969  0.69555809  1  0.031884  0  0.083546  0.114761  0  1.036421  0
H  H156  1  0.51150707  0.31809367  0.19557171  1  0.032263  0  0.083594  0.114765  0  1.036441  0
H  H157  1  0.98848901  0.68190066  0.69556189  1  0.031975  0  0.083551  0.114717  0  1.03643  0
H  H158  1  0.01150614  0.18190405  0.80442909  1  0.032255  0  0.083577  0.114731  0  1.036438  0
H  H159  1  0.48848580  0.81809958  0.30443723  1  0.03198  0  0.083558  0.114738  0  1.036446  0
H  H160  1  0.49841742  0.81669345  0.83128133  1  0.056324  0  0.099528  0.073875  0  1.00497  0
H  H161  1  0.00157779  0.18330321  0.33128860  1  0.056311  0  0.09951  0.073841  0  1.004946  0
H  H162  1  0.99841863  0.68330849  0.16872041  1  0.05638  0  0.099511  0.073828  0  1.00498  0
H  H163  1  0.50157842  0.31669628  0.66871176  1  0.056313  0  0.099514  0.073855  0  1.004969  0
H  H164  1  0.50157660  0.18330524  0.16871836  1  0.05642  0  0.09948  0.073783  0  1.004961  0
H  H165  1  0.99842286  0.81669896  0.66871054  1  0.056023  0  0.099505  0.073797  0  1.004902  0
H  H166  1  0.00157961  0.31669309  0.83128146  1  0.056325  0  0.099489  0.073769  0  1.004945  0
H  H167  1  0.49841982  0.68330241  0.33128738  1  0.056043  0  0.099511  0.073842  0  1.005012  0
H  H168  1  0.45031743  0.89022708  0.77944999  1  0.085308  0  0.108048  0.088353  0  0.994845  0
H  H169  1  0.04968209  0.10977309  0.27944859  1  0.085361  0  0.108059  0.088333  0  0.994849  0
H  H170  1  0.95031824  0.60977215  0.22055118  1  0.08533  0  0.108057  0.088371  0  0.994832  0
H  H171  1  0.54968234  0.39022448  0.72055234  1  0.085383  0  0.108065  0.088368  0  0.994846  0
H  H172  1  0.54968081  0.10976930  0.22054751  1  0.085335  0  0.108041  0.088297  0  0.994882  0
H  H173  1  0.95032098  0.89022792  0.72055274  1  0.085387  0  0.10803  0.088302  0  0.994884  0
H  H174  1  0.04968121  0.39022596  0.77944850  1  0.085362  0  0.108077  0.088375  0  0.994823  0
H  H175  1  0.45032013  0.60977247  0.27944680  1  0.085397  0  0.108036  0.088338  0  0.994881  0
H  H176  1  0.57053502  0.94111704  0.84947337  1  0.043348  0  0.092462  0.133756  0  0.991542  0
H  H177  1  0.92946625  0.05887546  0.34947818  1  0.043483  0  0.092432  0.133727  0  0.991503  0
H  H178  1  0.07053428  0.55888357  0.15052380  1  0.043661  0  0.092419  0.133688  0  0.991565  0
H  H179  1  0.42946878  0.44112536  0.65052348  1  0.043151  0  0.092424  0.133735  0  0.991492  0
H  H180  1  0.42946322  0.05887933  0.15052468  1  0.043269  0  0.092429  0.133686  0  0.991532  0
H  H181  1  0.07053441  0.94112729  0.65052423  1  0.043155  0  0.092451  0.133749  0  0.991483  0
H  H182  1  0.92946456  0.44111918  0.84947480  1  0.043289  0  0.092426  0.133691  0  0.991559  0
H  H183  1  0.57053187  0.55887564  0.34947730  1  0.043526  0  0.09242  0.133698  0  0.991548  0
H  H184  1  0.58352464  0.95295789  0.75367918  1  0.028488  0  0.084152  0.115035  0  1.024072  0
H  H185  1  0.91647550  0.04703756  0.25368196  1  0.028025  0  0.08413  0.115074  0  1.024055  0
H  H186  1  0.08352569  0.54703861  0.24631948  1  0.028393  0  0.084129  0.115034  0  1.024053  0
H  H187  1  0.41647549  0.45296157  0.74631984  1  0.028417  0  0.084188  0.115163  0  1.023992  0
H  H188  1  0.41647239  0.04703790  0.24631996  1  0.028796  0  0.084126  0.115037  0  1.024042  0
H  H189  1  0.08352516  0.95296287  0.74632045  1  0.028379  0  0.08418  0.115139  0  1.023992  0
H  H190  1  0.91647497  0.45296066  0.75368021  1  0.0284  0  0.084149  0.115051  0  1.024034  0
H  H191  1  0.58352637  0.54703654  0.25368148  1  0.028376  0  0.084154  0.115111  0  1.023968  0
H  H192  1  0.63526851  0.87766116  0.80079168  1  0.036861  0  0.083714  0.114985  0  1.028456  0
H  H193  1  0.86472737  0.12233080  0.30079991  1  0.036996  0  0.0837  0.114873  0  1.028551  0
H  H194  1  0.13526989  0.62233632  0.19920640  1  0.036894  0  0.083711  0.11494  0  1.028467  0
H  H195  1  0.36472829  0.37767085  0.69920192  1  0.037027  0  0.083691  0.114888  0  1.028508  0
H  H196  1  0.36472671  0.12233406  0.19920691  1  0.036849  0  0.083696  0.114922  0  1.028514  0
H  H197  1  0.13527268  0.87767195  0.69920141  1  0.037003  0  0.083703  0.114912  0  1.0285  0
H  H198  1  0.86472895  0.37766469  0.80079437  1  0.036918  0  0.083696  0.114915  0  1.028501  0
H  H199  1  0.63527236  0.62232958  0.30079886  1  0.036999  0  0.083691  0.114857  0  1.028562  0
H  H200  1  0.48388278  0.78614608  0.61233272  1  0.075063  0  0.104989  0.024617  0  1.029665  0
H  H201  1  0.01610207  0.21386635  0.11233818  1  0.075137  0  0.10502  0.024551  0  1.029689  0
H  H202  1  0.98387973  0.71385302  0.38767081  1  0.075183  0  0.104979  0.024573  0  1.029671  0
H  H203  1  0.51609445  0.28612323  0.88766093  1  0.074828  0  0.105002  0.024566  0  1.029603  0
H  H204  1  0.51612149  0.21385029  0.38766805  1  0.07522  0  0.104982  0.024591  0  1.0296  0
H  H205  1  0.98390100  0.78613118  0.88766150  1  0.075118  0  0.104981  0.024536  0  1.029657  0
H  H206  1  0.01611790  0.28614393  0.61233269  1  0.075019  0  0.105006  0.024573  0  1.029635  0
H  H207  1  0.48389956  0.71386908  0.11233766  1  0.075082  0  0.105017  0.024565  0  1.02964  0
C  C208  1  0.40054991  0.01726501  0.40567509  1  0.347983  0  -0.002686  -0.02957  0  4.008092  0
C  C209  1  0.09945698  0.98273683  0.90567376  1  0.351444  0  -0.002787  -0.029769  0  4.008122  0
C  C210  1  0.90054424  0.48273534  0.59432470  1  0.351278  0  -0.002679  -0.029574  0  4.008092  0
C  C211  1  0.59945079  0.51726252  0.09432691  1  0.348017  0  -0.002685  -0.029541  0  4.007948  0
C  C212  1  0.59945014  0.98273716  0.59432459  1  0.347988  0  -0.002748  -0.029697  0  4.008157  0
C  C213  1  0.90054005  0.01726302  0.09432702  1  0.351382  0  -0.002751  -0.029787  0  4.008269  0
C  C214  1  0.09945400  0.51726277  0.40567443  1  0.348124  0  -0.002683  -0.029567  0  4.007926  0
C  C215  1  0.40054564  0.48273443  0.90567551  1  0.347885  0  -0.002694  -0.029625  0  4.007991  0
C  C216  1  0.46908317  0.97272001  0.40209088  1  0.303459  0  0.002999  -0.096577  0  3.890487  0
C  C217  1  0.03092377  0.02728067  0.90208697  1  0.299724  0  0.00294  -0.096522  0  3.89055  0
C  C218  1  0.96907501  0.52727799  0.59791009  1  0.299656  0  0.002936  -0.096626  0  3.890639  0
C  C219  1  0.53091997  0.47271813  0.09791252  1  0.303211  0  0.002957  -0.096646  0  3.890368  0
C  C220  1  0.53092111  0.02728100  0.59790880  1  0.303034  0  0.002997  -0.096575  0  3.890607  0
C  C221  1  0.96907386  0.97271918  0.09791326  1  0.299785  0  0.002896  -0.096539  0  3.890584  0
C  C222  1  0.03092323  0.47271780  0.40208851  1  0.302912  0  0.002958  -0.096673  0  3.89051  0
C  C223  1  0.46908129  0.52727824  0.90208989  1  0.303506  0  0.002971  -0.096615  0  3.890467  0
C  C224  1  0.37803540  0.91538859  0.47301270  1  0.970691  0  0.145081  0.100741  0  3.908299  0
C  C225  1  0.12196515  0.08460857  0.97301486  1  0.970401  0  0.144998  0.100696  0  3.908218  0
C  C226  1  0.87803220  0.58460742  0.52698599  1  0.970532  0  0.14498  0.100572  0  3.908482  0
C  C227  1  0.62196736  0.41538584  0.02698636  1  0.97068  0  0.145023  0.100721  0  3.908175  0
C  C228  1  0.62196828  0.08461242  0.52698753  1  0.970661  0  0.144997  0.100722  0  3.908305  0
C  C229  1  0.87803309  0.91538838  0.02698428  1  0.970312  0  0.144987  0.100687  0  3.90812  0
C  C230  1  0.12196665  0.41539127  0.47301479  1  0.9705  0  0.144989  0.100638  0  3.908278  0
C  C231  1  0.37803330  0.58461401  0.97301223  1  0.970707  0  0.145021  0.100651  0  3.908266  0
C  C232  1  0.50315979  0.84154409  0.45527857  1  0.300962  0  0.099283  0.17152  0  4.019248  0
C  C233  1  0.99684368  0.15845416  0.95528094  1  0.300577  0  0.099261  0.171522  0  4.019317  0
C  C234  1  0.00315580  0.65845213  0.54472042  1  0.300811  0  0.099223  0.171431  0  4.01936  0
C  C235  1  0.49684446  0.34154352  0.04472108  1  0.300755  0  0.099297  0.171545  0  4.019138  0
C  C236  1  0.49684448  0.15845576  0.54471948  1  0.300597  0  0.099242  0.171476  0  4.019246  0
C  C237  1  0.00315577  0.84154569  0.04471875  1  0.300572  0  0.099224  0.171491  0  4.01924  0
C  C238  1  0.99684425  0.34154598  0.45528145  1  0.300585  0  0.099222  0.171476  0  4.019232  0
C  C239  1  0.50315741  0.65845459  0.95527752  1  0.300677  0  0.099272  0.171476  0  4.019247  0
C  C240  1  0.58722807  0.84857957  0.45439340  1  -0.077907  0  -0.092565  -0.166715  0  3.970575  0
C  C241  1  0.91277783  0.15142100  0.95439724  1  -0.077538  0  -0.092627  -0.16685  0  3.97071  0
C  C242  1  0.08722228  0.65142157  0.54560467  1  -0.07754  0  -0.092576  -0.166818  0  3.970698  0
C  C243  1  0.41277676  0.34858047  0.04560461  1  -0.077572  0  -0.092664  -0.166931  0  3.970607  0
C  C244  1  0.41277802  0.15142202  0.54560137  1  -0.07758  0  -0.092555  -0.166664  0  3.970589  0
C  C245  1  0.08722343  0.84858001  0.04560190  1  -0.07771  0  -0.092602  -0.166814  0  3.970751  0
C  C246  1  0.91277777  0.34857597  0.45439501  1  -0.077758  0  -0.092542  -0.166733  0  3.970694  0
C  C247  1  0.58722330  0.65141938  0.95439453  1  -0.077592  0  -0.092668  -0.166869  0  3.970636  0
C  C248  1  0.63452635  0.78294430  0.46572627  1  0.02674  0  -0.083507  -0.081362  0  3.964292  0
C  C249  1  0.86547819  0.21705742  0.96573114  1  0.026509  0  -0.083427  -0.081171  0  3.964258  0
C  C250  1  0.13452045  0.71705608  0.53427074  1  0.026488  0  -0.083448  -0.081125  0  3.964207  0
C  C251  1  0.36547572  0.28294538  0.03427014  1  0.026537  0  -0.08341  -0.0811  0  3.964136  0
C  C252  1  0.36547853  0.21705613  0.53427069  1  0.026485  0  -0.083429  -0.081228  0  3.96434  0
C  C253  1  0.13452186  0.78294417  0.03426909  1  0.026626  0  -0.083453  -0.08129  0  3.964375  0
C  C254  1  0.86548081  0.28294261  0.46572895  1  0.02655  0  -0.083484  -0.081148  0  3.964328  0
C  C255  1  0.63452494  0.71705389  0.96572736  1  0.026489  0  -0.083418  -0.081198  0  3.96419  0
C  C256  1  0.59851844  0.71079130  0.47904623  1  -0.021048  0  -0.020103  -0.036907  0  3.978021  0
C  C257  1  0.90148712  0.28921041  0.97905067  1  -0.021038  0  -0.020272  -0.037135  0  3.978151  0
C  C258  1  0.09851003  0.78920921  0.52094735  1  -0.020996  0  -0.020293  -0.03712  0  3.978062  0
C  C259  1  0.40148451  0.21079052  0.02095076  1  -0.02105  0  -0.020201  -0.037062  0  3.978075  0
C  C260  1  0.40148644  0.28921029  0.52094745  1  -0.021009  0  -0.020228  -0.037065  0  3.978091  0
C  C261  1  0.09851474  0.71079234  0.02094793  1  -0.021038  0  -0.020226  -0.03696  0  3.978173  0
C  C262  1  0.90149003  0.21078832  0.47905015  1  -0.020833  0  -0.020284  -0.037288  0  3.978147  0
C  C263  1  0.59851554  0.78920817  0.97905002  1  -0.02101  0  -0.020231  -0.037004  0  3.978098  0
C  C264  1  0.51419653  0.70478087  0.48026160  1  -0.120614  0  -0.080737  -0.08108  0  3.98475  0
C  C265  1  0.98580721  0.29521852  0.98026565  1  -0.120699  0  -0.080667  -0.08095  0  3.984558  0
C  C266  1  0.01419052  0.79521473  0.51973345  1  -0.120699  0  -0.080727  -0.081154  0  3.9848  0
C  C267  1  0.48580343  0.20478036  0.01973594  1  -0.120659  0  -0.080639  -0.080951  0  3.98475  0
C  C268  1  0.48580654  0.29521898  0.51973263  1  -0.120703  0  -0.080706  -0.081051  0  3.984776  0
C  C269  1  0.01419224  0.70478249  0.01973512  1  -0.120756  0  -0.080695  -0.081124  0  3.984714  0
C  C270  1  0.98581014  0.20478280  0.48026514  1  -0.120726  0  -0.080675  -0.080891  0  3.984701  0
C  C271  1  0.51419662  0.79521775  0.98026429  1  -0.120633  0  -0.080716  -0.081038  0  3.984788  0
C  C272  1  0.46631551  0.76953835  0.46742402  1  0.000232  0  -0.094295  -0.185931  0  3.99382  0
C  C273  1  0.03369055  0.23046055  0.96742762  1  0.000334  0  -0.094281  -0.185963  0  3.993638  0
C  C274  1  0.96630864  0.73045908  0.53257316  1  -5e-05  0  -0.094173  -0.185757  0  3.993679  0
C  C275  1  0.53368842  0.26953534  0.03257294  1  0.000443  0  -0.0943  -0.185962  0  3.993675  0
C  C276  1  0.53368937  0.23046498  0.53257566  1  0.000317  0  -0.094211  -0.18584  0  3.993583  0
C  C277  1  0.96631132  0.76953988  0.03257370  1  0.000363  0  -0.094265  -0.185919  0  3.993641  0
C  C278  1  0.03369080  0.26953730  0.46742598  1  0.000125  0  -0.094174  -0.185844  0  3.993726  0
C  C279  1  0.46631224  0.73046103  0.96742675  1  0.000469  0  -0.094234  -0.185922  0  3.993731  0
C  C280  1  0.64965926  0.64046793  0.49094559  1  1.569047  0  0.188251  0.555041  0  4.252685  0
C  C281  1  0.85034615  0.35953494  0.99094619  1  1.569042  0  0.188059  0.554839  0  4.252664  0
C  C282  1  0.14965254  0.85953240  0.50905288  1  1.568816  0  0.18814  0.5548  0  4.25248  0
C  C283  1  0.35034095  0.14046966  0.00905307  1  1.568988  0  0.188266  0.555085  0  4.252371  0
C  C284  1  0.35034321  0.35953424  0.50905300  1  1.56893  0  0.188119  0.554807  0  4.252718  0
C  C285  1  0.14965511  0.64046897  0.00905240  1  1.56901  0  0.188134  0.554811  0  4.25284  0
C  C286  1  0.85034872  0.14046571  0.49094462  1  1.568866  0  0.188215  0.555048  0  4.252331  0
C  C287  1  0.64965970  0.85952903  0.99094662  1  1.56903  0  0.188282  0.555068  0  4.25255  0
C  C288  1  0.27527730  0.99683045  0.64752349  1  0.37495  0  0.003911  -0.024194  0  3.976703  0
C  C289  1  0.22471433  0.00317616  0.14752349  1  0.374892  0  0.004032  -0.024201  0  3.976735  0
C  C290  1  0.77527796  0.50316825  0.35248016  1  0.374834  0  0.003945  -0.023946  0  3.976684  0
C  C291  1  0.72471602  0.49683005  0.85247879  1  0.374985  0  0.00402  -0.02388  0  3.976595  0
C  C292  1  0.72471973  0.00317056  0.35247838  1  0.374797  0  0.003965  -0.024006  0  3.976772  0
C  C293  1  0.77528934  0.99682716  0.85247838  1  0.374352  0  0.003992  -0.024079  0  3.976602  0
C  C294  1  0.22472028  0.49683276  0.64752117  1  0.375002  0  0.003935  -0.024088  0  3.976847  0
C  C295  1  0.27528706  0.50317212  0.14752417  1  0.374229  0  0.004018  -0.024055  0  3.9768  0
C  C296  1  0.27956816  0.03914141  0.71076972  1  0.297567  0  0.006103  -0.098967  0  3.875131  0
C  C297  1  0.22042383  0.96086227  0.21077091  1  0.297581  0  0.006144  -0.098995  0  3.875335  0
C  C298  1  0.77957029  0.46085880  0.28923468  1  0.297651  0  0.006177  -0.099086  0  3.875182  0
C  C299  1  0.72042453  0.53914069  0.78923115  1  0.297122  0  0.006072  -0.099378  0  3.875375  0
C  C300  1  0.72042766  0.96085786  0.28923324  1  0.297691  0  0.006174  -0.099034  0  3.875229  0
C  C301  1  0.77957804  0.03913816  0.78923041  1  0.297592  0  0.006159  -0.099055  0  3.875292  0
C  C302  1  0.22042915  0.53914279  0.71076555  1  0.297613  0  0.006164  -0.09908  0  3.875379  0
C  C303  1  0.27957552  0.46086206  0.21076635  1  0.297551  0  0.006177  -0.099076  0  3.875565  0
C  C304  1  0.21173943  0.10533622  0.62655904  1  0.959293  0  0.145982  0.094039  0  3.914922  0
C  C305  1  0.28825550  0.89467273  0.12655788  1  0.959516  0  0.14604  0.09405  0  3.914876  0
C  C306  1  0.71173707  0.39466424  0.37344119  1  0.959266  0  0.145975  0.093906  0  3.915061  0
C  C307  1  0.78824938  0.60533057  0.87343907  1  0.95976  0  0.146081  0.0941  0  3.915037  0
C  C308  1  0.78826122  0.89466595  0.37344228  1  0.959392  0  0.146009  0.094113  0  3.914858  0
C  C309  1  0.71174636  0.10533060  0.87344180  1  0.959359  0  0.146008  0.094026  0  3.91462  0
C  C310  1  0.28826057  0.60533793  0.62655740  1  0.959245  0  0.146009  0.094  0  3.914801  0
C  C311  1  0.21174825  0.39466928  0.12655952  1  0.959487  0  0.146032  0.094037  0  3.914675  0
C  C312  1  0.22903201  0.17180506  0.74510440  1  0.340523  0  0.098893  0.170129  0  4.029528  0
C  C313  1  0.27096616  0.82820209  0.24510129  1  0.341417  0  0.098876  0.16987  0  4.029838  0
C  C314  1  0.72903331  0.32819650  0.25489728  1  0.341349  0  0.098938  0.170202  0  4.02955  0
C  C315  1  0.77096258  0.67180185  0.75489531  1  0.341804  0  0.098921  0.170098  0  4.029567  0
C  C316  1  0.77096623  0.82819595  0.25489856  1  0.341028  0  0.098953  0.170242  0  4.02959  0
C  C317  1  0.72903449  0.17179834  0.75489785  1  0.341363  0  0.098844  0.169913  0  4.029747  0
C  C318  1  0.27096674  0.67180625  0.74510022  1  0.341464  0  0.098908  0.170166  0  4.029661  0
C  C319  1  0.22903264  0.32820090  0.24510274  1  0.341798  0  0.098884  0.169973  0  4.029761  0
C  C320  1  0.21889883  0.24664369  0.71681615  1  -0.025142  0  -0.090676  -0.182901  0  3.986654  0
C  C321  1  0.28109911  0.75336405  0.21681132  1  -0.025498  0  -0.090639  -0.182803  0  3.986628  0
C  C322  1  0.71889703  0.25335791  0.28318728  1  -0.025393  0  -0.090648  -0.182887  0  3.986514  0
C  C323  1  0.78109909  0.74664159  0.78318953  1  -0.025877  0  -0.090675  -0.18285  0  3.986486  0
C  C324  1  0.78110182  0.75335674  0.28318954  1  -0.039335  0  -0.090699  -0.182967  0  3.986537  0
C  C325  1  0.71890154  0.24663580  0.78318946  1  -0.025446  0  -0.090646  -0.182847  0  3.986621  0
C  C326  1  0.28110121  0.74664368  0.71681186  1  -0.039408  0  -0.090707  -0.182992  0  3.986683  0
C  C327  1  0.21889976  0.25336406  0.21681234  1  -0.025451  0  -0.090659  -0.182887  0  3.986619  0
C  C328  1  0.20858521  0.30841000  0.76460136  1  -0.004547  0  -0.075443  -0.067351  0  3.972855  0
C  C329  1  0.29141813  0.69159772  0.26459590  1  -0.00491  0  -0.075569  -0.067509  0  3.9731  0
C  C330  1  0.70858309  0.19159164  0.23540055  1  -0.004575  0  -0.075542  -0.067488  0  3.97282  0
C  C331  1  0.79141548  0.80840557  0.73539938  1  -0.004449  0  -0.075506  -0.06752  0  3.972952  0
C  C332  1  0.79141363  0.69159101  0.23540105  1  0.009338  0  -0.07549  -0.067451  0  3.972824  0
C  C333  1  0.70858071  0.30840387  0.73540323  1  -0.004909  0  -0.075549  -0.06745  0  3.973028  0
C  C334  1  0.29141636  0.80841111  0.76459695  1  0.009358  0  -0.075456  -0.067362  0  3.972814  0
C  C335  1  0.20858215  0.19159544  0.26459813  1  -0.004821  0  -0.075535  -0.067497  0  3.972914  0
C  C336  1  0.20957873  0.29676625  0.84024529  1  -0.086824  0  -0.019732  -0.042167  0  3.975114  0
C  C337  1  0.29042783  0.70324026  0.34023875  1  -0.086873  0  -0.019538  -0.041806  0  3.975095  0
C  C338  1  0.70957878  0.20323596  0.15975824  1  -0.086944  0  -0.01961  -0.041971  0  3.975117  0
C  C339  1  0.79042503  0.79676418  0.65975927  1  -0.086924  0  -0.019573  -0.041882  0  3.97501  0
C  C340  1  0.79042193  0.70323476  0.15975876  1  -0.086933  0  -0.019574  -0.041958  0  3.975103  0
C  C341  1  0.70957282  0.29676075  0.65976148  1  -0.086901  0  -0.019568  -0.041768  0  3.975115  0
C  C342  1  0.29042611  0.79676795  0.84024090  1  -0.086994  0  -0.019536  -0.041901  0  3.975006  0
C  C343  1  0.20957381  0.20323799  0.34024151  1  -0.086922  0  -0.019576  -0.041797  0  3.975145  0
C  C344  1  0.22142212  0.22179078  0.86764883  1  0.054729  0  -0.081071  -0.081511  0  3.976105  0
C  C345  1  0.27858287  0.77821397  0.36764566  1  0.054353  0  -0.081215  -0.081711  0  3.976091  0
C  C346  1  0.72142224  0.27820964  0.13235293  1  0.054828  0  -0.081076  -0.081512  0  3.97604  0
C  C347  1  0.77858254  0.72178820  0.63235140  1  0.054625  0  -0.081165  -0.08159  0  3.976121  0
C  C348  1  0.77857854  0.77821138  0.13235249  1  0.054765  0  -0.081095  -0.081519  0  3.975907  0
C  C349  1  0.72141900  0.22178820  0.63235294  1  0.054652  0  -0.081122  -0.081656  0  3.976136  0
C  C350  1  0.27858023  0.72179253  0.86764675  1  0.054917  0  -0.081105  -0.081518  0  3.975974  0
C  C351  1  0.22141932  0.27820933  0.36764828  1  0.054663  0  -0.08107  -0.081628  0  3.976131  0
C  C352  1  0.23030875  0.15917626  0.82047108  1  -0.036134  0  -0.090561  -0.165058  0  3.963108  0
C  C353  1  0.26969445  0.84082852  0.32046688  1  -0.036548  0  -0.09042  -0.164813  0  3.963105  0
C  C354  1  0.73030920  0.34082471  0.17953222  1  -0.036806  0  -0.090523  -0.165013  0  3.96311  0
C  C355  1  0.76969253  0.65917774  0.67953355  1  -0.036667  0  -0.090445  -0.164974  0  3.963333  0
C  C356  1  0.76969070  0.84082301  0.17953461  1  -0.036931  0  -0.09058  -0.165104  0  3.963259  0
C  C357  1  0.73030983  0.15917133  0.67953226  1  -0.036699  0  -0.09047  -0.164934  0  3.963076  0
C  C358  1  0.26968843  0.65917977  0.82046691  1  -0.036761  0  -0.090527  -0.165064  0  3.963219  0
C  C359  1  0.23030933  0.34082617  0.32046941  1  -0.03681  0  -0.090538  -0.164924  0  3.962927  0
C  C360  1  0.19994445  0.36419990  0.89085491  1  1.535644  0  0.188949  0.556817  0  4.229548  0
C  C361  1  0.30006385  0.63580890  0.39085102  1  1.535616  0  0.188929  0.556827  0  4.229302  0
C  C362  1  0.69993940  0.13580408  0.10914709  1  1.535651  0  0.188921  0.556845  0  4.229348  0
C  C363  1  0.80006086  0.86419377  0.60914525  1  1.53563  0  0.188834  0.556634  0  4.229491  0
C  C364  1  0.80005560  0.63580227  0.10914969  1  1.535757  0  0.188965  0.556819  0  4.229323  0
C  C365  1  0.69993500  0.36419211  0.60914921  1  1.53562  0  0.188826  0.556646  0  4.22954  0
C  C366  1  0.30005884  0.86420273  0.89084713  1  1.535971  0  0.189038  0.556913  0  4.229467  0
C  C367  1  0.19993859  0.13580550  0.39085443  1  1.53566  0  0.1888  0.556585  0  4.229579  0
C  C368  1  0.56172195  0.73811750  0.72083217  1  0.300532  0  -0.06257  -0.015445  0  3.936763  0
C  C369  1  0.93827198  0.26188667  0.22084770  1  0.299239  0  -0.062498  -0.015564  0  3.936967  0
C  C370  1  0.06171930  0.76188141  0.27917000  1  0.30039  0  -0.062613  -0.015636  0  3.936768  0
C  C371  1  0.43826755  0.23810949  0.77914787  1  0.298981  0  -0.06243  -0.015506  0  3.936748  0
C  C372  1  0.43827750  0.26187829  0.27917025  1  0.300534  0  -0.062635  -0.015668  0  3.936858  0
C  C373  1  0.06173109  0.73811318  0.77915090  1  0.299339  0  -0.062487  -0.015644  0  3.937007  0
C  C374  1  0.93827653  0.23811844  0.72083241  1  0.300717  0  -0.062636  -0.015605  0  3.936862  0
C  C375  1  0.56172888  0.76188689  0.22084691  1  0.2993  0  -0.062486  -0.015582  0  3.937055  0
C  C376  1  0.51479203  0.66888719  0.75081920  1  -0.090495  0  -0.246785  -0.378245  0  3.942951  0
C  C377  1  0.98520754  0.33111523  0.25082872  1  -0.088505  0  -0.24681  -0.378187  0  3.942775  0
C  C378  1  0.01479072  0.83111189  0.24918021  1  -0.090403  0  -0.246776  -0.378177  0  3.942804  0
C  C379  1  0.48520499  0.16888134  0.74916742  1  -0.088248  0  -0.24677  -0.378223  0  3.942705  0
C  C380  1  0.48520742  0.33110977  0.24918376  1  -0.089852  0  -0.246872  -0.378174  0  3.942995  0
C  C381  1  0.01479493  0.66888404  0.74917096  1  -0.0885  0  -0.246791  -0.378114  0  3.942752  0
C  C382  1  0.98520692  0.16888796  0.75081838  1  -0.090395  0  -0.246806  -0.37807  0  3.942918  0
C  C383  1  0.51479144  0.83111735  0.25082736  1  -0.088494  0  -0.246793  -0.378144  0  3.942828  0
C  C384  1  0.50607674  0.85634346  0.78481252  1  0.273655  0  -0.063167  -0.005937  0  3.901339  0
C  C385  1  0.99391875  0.14365604  0.28481604  1  0.273695  0  -0.063203  -0.005929  0  3.901354  0
C  C386  1  0.00607783  0.64365681  0.21518862  1  0.273652  0  -0.063184  -0.005973  0  3.901457  0
C  C387  1  0.49391954  0.35634281  0.71518546  1  0.273888  0  -0.063221  -0.006008  0  3.9016  0
C  C388  1  0.49391908  0.14365349  0.21518716  1  0.273638  0  -0.063199  -0.005831  0  3.901488  0
C  C389  1  0.00608251  0.85634497  0.71518473  1  0.273948  0  -0.06322  -0.005903  0  3.901407  0
C  C390  1  0.99392041  0.35634362  0.78481216  1  0.273675  0  -0.0632  -0.005831  0  3.901434  0
C  C391  1  0.50608112  0.64365588  0.28481423  1  0.274019  0  -0.063183  -0.005967  0  3.90155  0
C  C392  1  0.57816856  0.90992893  0.79761883  1  -0.067407  0  -0.246385  -0.382227  0  3.93378  0
C  C393  1  0.92182978  0.09006419  0.29762371  1  -0.067384  0  -0.246277  -0.382079  0  3.933771  0
C  C394  1  0.07816882  0.59006876  0.20237989  1  -0.067702  0  -0.246308  -0.382097  0  3.933774  0
C  C395  1  0.42183174  0.40993551  0.70237858  1  -0.067645  0  -0.246334  -0.382206  0  3.933804  0
C  C396  1  0.42182908  0.09006686  0.20238031  1  -0.067776  0  -0.246229  -0.382032  0  3.933859  0
C  C397  1  0.07817027  0.90993740  0.70237870  1  -0.067409  0  -0.246349  -0.382227  0  3.933789  0
C  C398  1  0.92183063  0.40993109  0.79762034  1  -0.067379  0  -0.24629  -0.382096  0  3.933916  0
C  C399  1  0.57817012  0.59006376  0.29762220  1  -0.067817  0  -0.246288  -0.382075  0  3.933759  0
C  C400  1  0.47284637  0.82804101  0.65724878  1  1.368306  0  0.158313  0.297711  0  4.182887  0
C  C401  1  0.02714030  0.17196735  0.15725305  1  1.368083  0  0.158427  0.29793  0  4.182489  0
C  C402  1  0.97284409  0.67195466  0.34275542  1  1.370846  0  0.158376  0.297761  0  4.18289  0
C  C403  1  0.52713613  0.32802799  0.84275031  1  1.370687  0  0.158361  0.297798  0  4.182752  0
C  C404  1  0.52715489  0.17195363  0.34274981  1  1.368238  0  0.158471  0.297927  0  4.18273  0
C  C405  1  0.97286096  0.82803482  0.84274937  1  1.370318  0  0.158408  0.297863  0  4.182781  0
C  C406  1  0.02715174  0.32804171  0.65724808  1  1.370965  0  0.158312  0.297862  0  4.182581  0
C  C407  1  0.47286271  0.67196722  0.15725102  1  1.370346  0  0.158419  0.29788  0  4.182454  0
N  N408  1  0.34445087  0.98079656  0.44999790  1  -1.222589  0  -0.36201  -0.304325  0  3.549049  0
N  N409  1  0.15555181  0.01920293  0.94999972  1  -1.222766  0  -0.361898  -0.304301  0  3.54911  0
N  N410  1  0.84444821  0.51920131  0.54999953  1  -1.222915  0  -0.362026  -0.30434  0  3.549264  0
N  N411  1  0.65555042  0.48079716  0.05000222  1  -1.222626  0  -0.362014  -0.304378  0  3.54901  0
N  N412  1  0.65555160  0.01920271  0.55000178  1  -1.222722  0  -0.361952  -0.304271  0  3.548985  0
N  N413  1  0.84444643  0.98079634  0.05000051  1  -1.222777  0  -0.361922  -0.304293  0  3.549104  0
N  N414  1  0.15555063  0.48079680  0.44999961  1  -1.222774  0  -0.362075  -0.304388  0  3.549105  0
N  N415  1  0.34444902  0.51920443  0.94999855  1  -1.222561  0  -0.362  -0.30429  0  3.549105  0
N  N416  1  0.45352689  0.90756143  0.44453025  1  -1.269891  0  -0.224194  0.010796  0  3.794752  0
N  N417  1  0.04647646  0.09243749  0.94453214  1  -1.269465  0  -0.224078  0.010903  0  3.794688  0
N  N418  1  0.95352146  0.59243604  0.55546762  1  -1.269371  0  -0.224064  0.010974  0  3.794744  0
N  N419  1  0.54647469  0.40756010  0.05547100  1  -1.269588  0  -0.224108  0.010882  0  3.794599  0
N  N420  1  0.54647679  0.09244016  0.55547107  1  -1.269306  0  -0.224105  0.010796  0  3.794826  0
N  N421  1  0.95352359  0.90756294  0.05546809  1  -1.269432  0  -0.224063  0.010906  0  3.79466  0
N  N422  1  0.04647799  0.40756149  0.44453316  1  -1.269424  0  -0.224048  0.010875  0  3.794661  0
N  N423  1  0.45352536  0.59243801  0.94452977  1  -1.269853  0  -0.22412  0.010934  0  3.794664  0
N  N424  1  0.23268256  0.03872061  0.59595818  1  -1.218436  0  -0.358145  -0.289385  0  3.564229  0
N  N425  1  0.26731278  0.96128778  0.09595777  1  -1.218593  0  -0.358186  -0.289388  0  3.564223  0
N  N426  1  0.73267953  0.46127862  0.40404400  1  -1.218497  0  -0.358103  -0.289302  0  3.564254  0
N  N427  1  0.76731135  0.53872081  0.90404160  1  -1.218743  0  -0.358202  -0.289512  0  3.56439  0
N  N428  1  0.76731628  0.96128156  0.40404314  1  -1.218519  0  -0.35816  -0.289474  0  3.564215  0
N  N429  1  0.73268969  0.03871497  0.90404246  1  -1.218493  0  -0.358214  -0.289495  0  3.564162  0
N  N430  1  0.26731751  0.53872181  0.59595514  1  -1.218454  0  -0.358109  -0.28926  0  3.56416  0
N  N431  1  0.23268991  0.46128483  0.09595809  1  -1.218415  0  -0.358216  -0.289459  0  3.56411  0
N  N432  1  0.23909865  0.10831101  0.69678542  1  -1.253605  0  -0.223327  0.010158  0  3.798958  0
N  N433  1  0.26089474  0.89169559  0.19678402  1  -1.253359  0  -0.223377  0.010403  0  3.798891  0
N  N434  1  0.73909966  0.39169110  0.30321560  1  -1.253648  0  -0.2234  0.010138  0  3.799132  0
N  N435  1  0.76089378  0.60830955  0.80321760  1  -1.253396  0  -0.223412  0.010378  0  3.798845  0
N  N436  1  0.76089959  0.89169058  0.30321754  1  -1.253406  0  -0.223429  0.010044  0  3.799218  0
N  N437  1  0.73910773  0.10830484  0.80321512  1  -1.253269  0  -0.223364  0.010418  0  3.798889  0
N  N438  1  0.26089919  0.60831107  0.69678463  1  -1.253662  0  -0.223404  0.010133  0  3.799113  0
N  N439  1  0.23910809  0.39169494  0.19678645  1  -1.253723  0  -0.223377  0.010427  0  3.798789  0
N  N440  1  0.51375993  0.80944099  0.71848501  1  -1.164416  0  -0.284967  -0.086373  0  3.650227  0
N  N441  1  0.98622860  0.19056377  0.21849514  1  -1.164873  0  -0.284907  -0.086338  0  3.650299  0
N  N442  1  0.01375934  0.69055693  0.28151714  1  -1.166799  0  -0.284967  -0.086306  0  3.650037  0
N  N443  1  0.48622688  0.30943222  0.78150481  1  -1.167056  0  -0.28494  -0.086401  0  3.650317  0
N  N444  1  0.48623771  0.19055597  0.28151467  1  -1.164438  0  -0.285022  -0.086461  0  3.650243  0
N  N445  1  0.01377145  0.80943492  0.78150509  1  -1.167151  0  -0.28486  -0.086243  0  3.65023  0
N  N446  1  0.98623709  0.30944060  0.71848528  1  -1.167274  0  -0.284961  -0.086457  0  3.650148  0
N  N447  1  0.51377076  0.69056474  0.21849379  1  -1.167257  0  -0.284879  -0.086289  0  3.650311  0
O  O448  1  0.61478350  0.58193395  0.52151218  1  -1.138029  0  -0.349256  -0.557709  0  2.187213  0
O  O449  1  0.88521914  0.41807091  0.02150965  1  -1.138157  0  -0.349098  -0.557568  0  2.187236  0
O  O450  1  0.11477877  0.91806708  0.47848450  1  -1.138032  0  -0.349107  -0.557547  0  2.18715  0
O  O451  1  0.38521507  0.08193240  0.97848867  1  -1.137983  0  -0.349262  -0.557754  0  2.187217  0
O  O452  1  0.38521836  0.41806937  0.47848532  1  -1.138024  0  -0.349135  -0.557545  0  2.187174  0
O  O453  1  0.11478272  0.58193416  0.97848730  1  -1.138047  0  -0.349159  -0.55759  0  2.18739  0
O  O454  1  0.88522249  0.08193161  0.52151246  1  -1.13813  0  -0.349159  -0.55763  0  2.187176  0
O  O455  1  0.61478498  0.91806571  0.02151265  1  -1.137946  0  -0.349305  -0.557787  0  2.187165  0
O  O456  1  0.72267655  0.64126500  0.47109138  1  -1.189524  0  -0.331367  -0.565088  0  2.161593  0
O  O457  1  0.77732732  0.35873556  0.97109168  1  -1.18933  0  -0.331312  -0.564961  0  2.161418  0
O  O458  1  0.22267077  0.85873506  0.52890302  1  -1.18925  0  -0.331359  -0.564911  0  2.161328  0
O  O459  1  0.27732366  0.14127046  0.02890838  1  -1.189473  0  -0.331391  -0.565086  0  2.161395  0
O  O460  1  0.27732773  0.35873601  0.52890667  1  -1.189397  0  -0.331356  -0.564966  0  2.161563  0
O  O461  1  0.22267394  0.64126661  0.02890746  1  -1.189376  0  -0.331352  -0.564968  0  2.16137  0
O  O462  1  0.77732928  0.14126305  0.47109612  1  -1.18923  0  -0.331424  -0.56506  0  2.16128  0
O  O463  1  0.72267518  0.85873055  0.97109131  1  -1.189535  0  -0.33133  -0.565022  0  2.16156  0
O  O464  1  0.19385986  0.35185754  0.95926130  1  -1.184333  0  -0.334422  -0.56411  0  2.165247  0
O  O465  1  0.30614571  0.64814601  0.45925734  1  -1.184212  0  -0.334388  -0.564121  0  2.165213  0
O  O466  1  0.69385930  0.14814241  0.04074186  1  -1.184243  0  -0.334421  -0.564145  0  2.165269  0
O  O467  1  0.80614610  0.85185432  0.54074050  1  -1.184361  0  -0.334323  -0.563961  0  2.165233  0
O  O468  1  0.80613416  0.64814173  0.04074275  1  -1.184259  0  -0.334513  -0.564222  0  2.165188  0
O  O469  1  0.69385434  0.35185268  0.54074234  1  -1.184232  0  -0.334255  -0.563963  0  2.16522  0
O  O470  1  0.30613592  0.85186555  0.95925346  1  -1.18422  0  -0.33448  -0.564159  0  2.165231  0
O  O471  1  0.19385395  0.14814611  0.45926082  1  -1.184371  0  -0.334342  -0.564013  0  2.165282  0
O  O472  1  0.20009004  0.43255078  0.86333287  1  -1.151243  0  -0.338708  -0.562083  0  2.179715  0
O  O473  1  0.29991742  0.56745746  0.36332630  1  -1.151019  0  -0.338736  -0.562128  0  2.179546  0
O  O474  1  0.70008247  0.06745263  0.13667295  1  -1.151184  0  -0.338739  -0.562146  0  2.179434  0
O  O475  1  0.79991380  0.93254637  0.63666889  1  -1.151022  0  -0.338726  -0.562124  0  2.179524  0
O  O476  1  0.79991726  0.56745255  0.13667500  1  -1.151261  0  -0.338707  -0.562041  0  2.179415  0
O  O477  1  0.70007780  0.43254297  0.63667284  1  -1.15106  0  -0.33875  -0.562105  0  2.179698  0
O  O478  1  0.29992181  0.93255244  0.86332019  1  -1.151541  0  -0.338793  -0.562171  0  2.179551  0
O  O479  1  0.20008686  0.06745406  0.36333188  1  -1.151021  0  -0.338673  -0.562043  0  2.179579  0
O  O480  1  0.42771121  0.88497550  0.64926972  1  -1.17609  0  -0.317307  -0.47844  0  2.227203  0
O  O481  1  0.07227557  0.11503517  0.14926588  1  -1.175426  0  -0.317548  -0.478633  0  2.22687  0
O  O482  1  0.92770844  0.61502496  0.35073279  1  -1.176278  0  -0.317358  -0.478458  0  2.227393  0
O  O483  1  0.57227590  0.38495247  0.85073862  1  -1.175481  0  -0.317439  -0.478453  0  2.22722  0
O  O484  1  0.57229005  0.11502145  0.35072669  1  -1.176202  0  -0.317389  -0.478541  0  2.227277  0
O  O485  1  0.92772388  0.88495888  0.85073490  1  -1.175361  0  -0.31749  -0.478544  0  2.227324  0
O  O486  1  0.07229101  0.38497199  0.64926907  1  -1.176037  0  -0.317293  -0.478466  0  2.227083  0
O  O487  1  0.42772596  0.61503695  0.14926434  1  -1.175342  0  -0.317565  -0.478628  0  2.226879  0
