# generated using pymatgen
data_Cu3H12C18N15O
_symmetry_space_group_name_H-M   'P 1'
_cell_length_a   25.98316681
_cell_length_b   25.98317776
_cell_length_c   25.98313642
_cell_angle_alpha   59.99991378
_cell_angle_beta   60.00001927
_cell_angle_gamma   60.00022840
_symmetry_Int_Tables_number   1
_chemical_formula_structural   Cu3H12C18N15O
_chemical_formula_sum   'Cu24 H96 C144 N120 O8'
_cell_volume   12403.99126407
_cell_formula_units_Z   8
loop_
 _symmetry_equiv_pos_site_id
 _symmetry_equiv_pos_as_xyz
  1  'x, y, z'
loop_
 _atom_site_type_symbol
 _atom_site_label
 _atom_site_symmetry_multiplicity
 _atom_site_fract_x
 _atom_site_fract_y
 _atom_site_fract_z
 _atom_site_occupancy
 _atom_site_pbe_bader_charge
 _atom_site_pbe_bader_spin_density
 _atom_site_pbe_cm5_charge
 _atom_site_pbe_ddec_charge
 _atom_site_pbe_ddec_spin_density
 _atom_site_pbe_ddec_sum_bond_order
 _atom_site_pbe_magmom
Cu  Cu0  1  0.25000777  0.67548378  0.32450638  1  0.910697  0.39343  0.642281  0.512818  0.492625  2.392886  0.398
Cu  Cu1  1  0.17549063  0.74999720  0.75000071  1  0.905419  0.39346  0.642298  0.512748  0.492615  2.39295  0.398
Cu  Cu2  1  0.32450817  0.25000028  0.25000083  1  0.905398  0.39346  0.642289  0.512707  0.492615  2.392798  0.398
Cu  Cu3  1  0.74999856  0.82451247  0.17548958  1  0.908076  0.393428  0.642318  0.512799  0.492606  2.392923  0.398
Cu  Cu4  1  0.75000006  0.67549182  0.25000070  1  0.90546  0.393464  0.642192  0.512527  0.492617  2.3929  0.398
Cu  Cu5  1  0.32451472  0.74999402  0.17549110  1  0.91066  0.393411  0.64225  0.512748  0.492602  2.392937  0.398
Cu  Cu6  1  0.17549000  0.24999874  0.32451147  1  0.908179  0.393429  0.642336  0.51276  0.492607  2.392924  0.398
Cu  Cu7  1  0.25000152  0.82450725  0.74999920  1  0.905441  0.393476  0.642345  0.512888  0.492632  2.392871  0.398
Cu  Cu8  1  0.32450969  0.67549156  0.74999825  1  0.908267  0.393443  0.642321  0.512799  0.492622  2.392924  0.398
Cu  Cu9  1  0.74999739  0.75000079  0.32450909  1  0.905446  0.393482  0.642313  0.512857  0.492641  2.392937  0.398
Cu  Cu10  1  0.25000002  0.25000257  0.17549055  1  0.905469  0.393481  0.642321  0.512795  0.492639  2.392935  0.398
Cu  Cu11  1  0.17549624  0.82450472  0.24999832  1  0.910718  0.393447  0.642185  0.512455  0.492642  2.393095  0.398
Cu  Cu12  1  0.75000251  0.32450461  0.67549312  1  0.910741  0.393442  0.642245  0.512704  0.492634  2.39299  0.398
Cu  Cu13  1  0.82450641  0.25000412  0.24999863  1  0.905429  0.393483  0.642352  0.512908  0.492642  2.392946  0.398
Cu  Cu14  1  0.67549147  0.74999979  0.75000186  1  0.9055  0.393464  0.642131  0.512358  0.492617  2.393057  0.398
Cu  Cu15  1  0.25000008  0.17549122  0.82450909  1  0.90818  0.393446  0.642297  0.512826  0.492626  2.393017  0.398
Cu  Cu16  1  0.25000003  0.32450948  0.74999749  1  0.905506  0.393454  0.642174  0.512444  0.492606  2.392958  0.398
Cu  Cu17  1  0.67549505  0.24999925  0.82450592  1  0.910722  0.393436  0.642245  0.512677  0.492626  2.392925  0.398
Cu  Cu18  1  0.82451022  0.75000114  0.67548942  1  0.908158  0.393435  0.642311  0.512822  0.492615  2.39293  0.398
Cu  Cu19  1  0.74999743  0.17549367  0.24999957  1  0.905477  0.393477  0.642295  0.512794  0.492633  2.392989  0.398
Cu  Cu20  1  0.67549078  0.32451088  0.24999937  1  0.908203  0.393427  0.642155  0.512401  0.492602  2.392988  0.398
Cu  Cu21  1  0.25000203  0.25000060  0.67549015  1  0.905443  0.393479  0.642334  0.512848  0.492637  2.393002  0.398
Cu  Cu22  1  0.74999998  0.74999786  0.82451049  1  0.905455  0.393474  0.642306  0.512834  0.492631  2.392964  0.398
Cu  Cu23  1  0.82451512  0.17548398  0.75000120  1  0.910569  0.39341  0.642307  0.512784  0.492605  2.392961  0.398
H  H24  1  0.54752292  0.55748627  0.16022235  1  0.100697  0.000542  0.112435  0.123223  0.000304  0.991831  0.0
H  H25  1  0.64213395  0.45955488  0.16496440  1  0.095868  0.000961  0.118164  0.083111  0.000334  0.982217  0.001
H  H26  1  0.05748982  0.04751972  0.73476988  1  0.090687  0.000545  0.112474  0.123309  0.000304  0.991628  0.0
H  H27  1  0.95955973  0.14213017  0.73334544  1  0.082319  0.000964  0.118166  0.083106  0.000334  0.98224  0.001
H  H28  1  0.16022000  0.23477069  0.54752096  1  0.084653  0.000546  0.112418  0.123214  0.000304  0.991694  0.0
H  H29  1  0.16496422  0.23334691  0.64213146  1  0.085864  0.000962  0.118155  0.083115  0.000334  0.982204  0.001
H  H30  1  0.73476988  0.66022119  0.05748829  1  0.10038  0.000542  0.112447  0.123274  0.000304  0.991724  0.0
H  H31  1  0.73334590  0.66496494  0.95955762  1  0.0867  0.000963  0.118136  0.083096  0.000334  0.982234  0.001
H  H32  1  0.73476894  0.55749020  0.54752026  1  0.090698  0.000545  0.112437  0.123258  0.000304  0.99167  0.0
H  H33  1  0.73334429  0.45955945  0.64213097  1  0.082307  0.000963  0.118161  0.08309  0.000334  0.98228  0.001
H  H34  1  0.16021849  0.04751959  0.05749125  1  0.100554  0.000542  0.112458  0.123297  0.000304  0.991683  0.0
H  H35  1  0.16496376  0.14213028  0.95956093  1  0.095785  0.000961  0.118147  0.083076  0.000334  0.982271  0.001
H  H36  1  0.05748799  0.23476940  0.16022056  1  0.100397  0.000542  0.11244  0.123225  0.000304  0.991704  0.0
H  H37  1  0.95955663  0.23334601  0.16496577  1  0.086714  0.000963  0.118162  0.083131  0.000334  0.982243  0.001
H  H38  1  0.54752088  0.66022083  0.73476933  1  0.084694  0.000546  0.112478  0.123311  0.000304  0.991644  0.0
H  H39  1  0.64213122  0.66496405  0.73334676  1  0.085863  0.000962  0.118141  0.083114  0.000334  0.982198  0.001
H  H40  1  0.16021946  0.55748743  0.73477175  1  0.100369  0.000542  0.112417  0.123208  0.000304  0.991711  0.0
H  H41  1  0.16496466  0.45955734  0.73334599  1  0.086682  0.000963  0.118175  0.083163  0.000334  0.9822  0.001
H  H42  1  0.73476968  0.04752048  0.16022085  1  0.084712  0.000546  0.112442  0.123261  0.000304  0.991656  0.0
H  H43  1  0.73334530  0.14213172  0.16496397  1  0.085847  0.000962  0.118159  0.083104  0.000334  0.982246  0.001
H  H44  1  0.54751999  0.23477053  0.05749003  1  0.090684  0.000545  0.112451  0.123268  0.000304  0.991653  0.0
H  H45  1  0.64213046  0.23334597  0.95955921  1  0.082187  0.000963  0.118148  0.083111  0.000334  0.98221  0.001
H  H46  1  0.05748981  0.66022115  0.54751986  1  0.100604  0.000542  0.112471  0.123304  0.000304  0.991681  0.0
H  H47  1  0.95955937  0.66496480  0.64212989  1  0.0958  0.000961  0.118159  0.083119  0.000334  0.982228  0.001
H  H48  1  0.44251236  0.45247624  0.33977978  1  0.10063  0.000542  0.112438  0.123213  0.000304  0.991699  0.0
H  H49  1  0.54044344  0.35786492  0.33503704  1  0.095685  0.000961  0.118157  0.083109  0.000334  0.982233  0.001
H  H50  1  0.95247924  0.94250987  0.76523119  1  0.090697  0.000545  0.112451  0.123268  0.000304  0.991619  0.0
H  H51  1  0.85786968  0.04044014  0.76665461  1  0.082307  0.000964  0.118153  0.083083  0.000334  0.982255  0.001
H  H52  1  0.76522917  0.83978092  0.95247839  1  0.084646  0.000546  0.112459  0.123293  0.000304  0.991675  0.0
H  H53  1  0.76665338  0.83503672  0.85786745  1  0.085824  0.000962  0.118165  0.083137  0.000334  0.98222  0.001
H  H54  1  0.33977919  0.26523092  0.44251099  1  0.100362  0.000542  0.112446  0.123258  0.000304  0.991669  0.0
H  H55  1  0.33503509  0.26665523  0.54044144  1  0.086651  0.000963  0.118167  0.083106  0.000334  0.982243  0.001
H  H56  1  0.44250960  0.26523192  0.95247938  1  0.090703  0.000545  0.112441  0.123276  0.000304  0.991625  0.0
H  H57  1  0.54044059  0.26665629  0.85786878  1  0.082318  0.000963  0.118154  0.083071  0.000334  0.98226  0.001
H  H58  1  0.95248100  0.83977998  0.44250969  1  0.100587  0.000542  0.112464  0.12331  0.000304  0.991735  0.0
H  H59  1  0.85787096  0.83503534  0.54044034  1  0.095833  0.000961  0.118165  0.083128  0.000334  0.98223  0.001
H  H60  1  0.76522999  0.94251202  0.33978081  1  0.100357  0.000542  0.112434  0.123231  0.000304  0.991686  0.0
H  H61  1  0.76665351  0.04044351  0.33503499  1  0.086694  0.000963  0.118169  0.083117  0.000334  0.982158  0.001
H  H62  1  0.33977891  0.45247898  0.76523070  1  0.084655  0.000546  0.112484  0.123311  0.000304  0.991647  0.0
H  H63  1  0.33503607  0.35786910  0.76665249  1  0.085865  0.000961  0.118147  0.083117  0.000334  0.982201  0.001
H  H64  1  0.44251252  0.83978019  0.76522856  1  0.100361  0.000542  0.112412  0.123213  0.000304  0.991776  0.0
H  H65  1  0.54044300  0.83503531  0.76665415  1  0.086682  0.000963  0.118155  0.08313  0.000334  0.982205  0.001
H  H66  1  0.95247824  0.26523007  0.33978059  1  0.084638  0.000546  0.112433  0.123243  0.000304  0.991604  0.0
H  H67  1  0.85786803  0.26665404  0.33503632  1  0.08583  0.000962  0.118149  0.083131  0.000334  0.982244  0.001
H  H68  1  0.76523115  0.45247927  0.44251012  1  0.090706  0.000545  0.112466  0.123296  0.000304  0.99165  0.0
H  H69  1  0.76665529  0.35786914  0.54044085  1  0.082313  0.000963  0.118164  0.083114  0.000334  0.982228  0.001
H  H70  1  0.33977879  0.94251147  0.95247964  1  0.10066  0.000542  0.112424  0.123214  0.000304  0.991712  0.0
H  H71  1  0.33503352  0.04044216  0.85787017  1  0.095834  0.00096  0.118167  0.083149  0.000334  0.982217  0.001
H  H72  1  0.45247765  0.44251088  0.83977999  1  0.100596  0.000542  0.112452  0.123265  0.000304  0.991671  0.0
H  H73  1  0.35786755  0.54044166  0.83503478  1  0.095752  0.000961  0.118155  0.083123  0.000334  0.98225  0.001
H  H74  1  0.94251140  0.95247654  0.26523035  1  0.09076  0.000545  0.11249  0.123307  0.000304  0.991663  0.0
H  H75  1  0.04044208  0.85786745  0.26665377  1  0.082241  0.000963  0.118171  0.083173  0.000334  0.982175  0.001
H  H76  1  0.83977936  0.76523064  0.45247888  1  0.084643  0.000546  0.112449  0.123272  0.000304  0.991626  0.0
H  H77  1  0.83503607  0.76665380  0.35786853  1  0.085854  0.000961  0.118163  0.083113  0.000334  0.982225  0.001
H  H78  1  0.26523100  0.33978166  0.94251040  1  0.100302  0.000542  0.112472  0.123296  0.000304  0.991651  0.0
H  H79  1  0.26665423  0.33503638  0.04044193  1  0.086598  0.000963  0.118159  0.083142  0.000334  0.982202  0.001
H  H80  1  0.26522820  0.44251044  0.45248012  1  0.090703  0.000545  0.112459  0.123293  0.000304  0.991616  0.0
H  H81  1  0.26665467  0.54044071  0.35786808  1  0.082263  0.000963  0.118171  0.083123  0.000334  0.982242  0.001
H  H82  1  0.83977827  0.95248376  0.94250963  1  0.100618  0.000542  0.112431  0.123256  0.000304  0.991743  0.0
H  H83  1  0.83503471  0.85787093  0.04044040  1  0.095863  0.000961  0.118177  0.083167  0.000334  0.982224  0.001
H  H84  1  0.94251166  0.76523146  0.83977852  1  0.100398  0.000542  0.112448  0.123228  0.000304  0.991704  0.0
H  H85  1  0.04044274  0.76665456  0.83503436  1  0.086711  0.000963  0.11817  0.083156  0.000334  0.982234  0.001
H  H86  1  0.45247848  0.33978050  0.26523050  1  0.084627  0.000546  0.112453  0.123268  0.000304  0.991623  0.0
H  H87  1  0.35786859  0.33503620  0.26665277  1  0.085841  0.000962  0.118154  0.083118  0.000334  0.982254  0.001
H  H88  1  0.83977873  0.44251196  0.26523120  1  0.100397  0.000542  0.112458  0.123242  0.000304  0.991694  0.0
H  H89  1  0.83503464  0.54044316  0.26665473  1  0.086693  0.000963  0.118159  0.083104  0.000334  0.982192  0.001
H  H90  1  0.26522991  0.95247955  0.83977912  1  0.084654  0.000546  0.112416  0.123213  0.000304  0.991684  0.0
H  H91  1  0.26665451  0.85786853  0.83503556  1  0.085856  0.000962  0.118149  0.083086  0.000334  0.982231  0.001
H  H92  1  0.45247977  0.76523198  0.94251059  1  0.090739  0.000545  0.112458  0.123278  0.000304  0.991702  0.0
H  H93  1  0.35786969  0.76665462  0.04044198  1  0.08222  0.000963  0.118172  0.083147  0.000334  0.982256  0.001
H  H94  1  0.94250919  0.33978213  0.45247744  1  0.100607  0.000542  0.11247  0.12331  0.000304  0.99159  0.0
H  H95  1  0.04044117  0.33503694  0.35786742  1  0.095756  0.000961  0.118179  0.083127  0.000334  0.982187  0.001
H  H96  1  0.55748887  0.54752233  0.66022094  1  0.100617  0.000542  0.112452  0.123272  0.000304  0.991669  0.0
H  H97  1  0.45955835  0.64213269  0.66496549  1  0.095755  0.00096  0.118187  0.083134  0.000334  0.982215  0.001
H  H98  1  0.04752184  0.05748778  0.23476967  1  0.090813  0.000545  0.112443  0.12326  0.000304  0.9917  0.0
H  H99  1  0.14213146  0.95955758  0.23334564  1  0.082193  0.000963  0.118133  0.083103  0.000334  0.982241  0.001
H  H100  1  0.23476763  0.16022323  0.04752024  1  0.08486  0.000546  0.112441  0.123249  0.000304  0.991713  0.0
H  H101  1  0.23334534  0.16496551  0.14213118  1  0.085878  0.000961  0.118165  0.083129  0.000334  0.982253  0.001
H  H102  1  0.66022001  0.73477026  0.55748869  1  0.100354  0.000542  0.112461  0.123276  0.000304  0.991615  0.0
H  H103  1  0.66496504  0.73334533  0.45955839  1  0.086665  0.000963  0.118179  0.083138  0.000334  0.982185  0.001
H  H104  1  0.55748945  0.73477218  0.04752036  1  0.090704  0.000545  0.112439  0.123256  0.000304  0.991668  0.0
H  H105  1  0.45955956  0.73334582  0.14213184  1  0.082236  0.000964  0.118151  0.083098  0.000334  0.982208  0.001
H  H106  1  0.04751657  0.16022188  0.55748952  1  0.100625  0.000542  0.112401  0.123169  0.000304  0.991792  0.0
H  H107  1  0.14212962  0.16496490  0.45955890  1  0.095863  0.000961  0.118155  0.083121  0.000334  0.98223  0.001
H  H108  1  0.23476915  0.05748833  0.66021976  1  0.100357  0.000542  0.112441  0.12324  0.000304  0.991711  0.0
H  H109  1  0.23334608  0.95955651  0.66496498  1  0.086684  0.000963  0.118152  0.083121  0.000334  0.982204  0.001
H  H110  1  0.66022053  0.54752089  0.23476911  1  0.084802  0.000546  0.11244  0.123249  0.000304  0.991627  0.0
H  H111  1  0.66496419  0.64213159  0.23334614  1  0.085857  0.000962  0.118157  0.083149  0.000334  0.98216  0.001
H  H112  1  0.55748761  0.16022113  0.23477099  1  0.100383  0.000542  0.112435  0.123248  0.000304  0.991703  0.0
H  H113  1  0.45955713  0.16496525  0.23334569  1  0.086693  0.000963  0.118146  0.083134  0.000334  0.982217  0.001
H  H114  1  0.04752118  0.73477132  0.66021864  1  0.084655  0.000546  0.112418  0.123233  0.000304  0.991622  0.0
H  H115  1  0.14213194  0.73334636  0.66496336  1  0.085833  0.000962  0.118179  0.083141  0.000334  0.982242  0.001
H  H116  1  0.23476775  0.54752083  0.55748954  1  0.090736  0.000545  0.112463  0.12329  0.000304  0.991619  0.0
H  H117  1  0.23334498  0.64213079  0.45955808  1  0.08221  0.000963  0.118165  0.083137  0.000334  0.982236  0.001
H  H118  1  0.66021738  0.05749051  0.04752226  1  0.100572  0.000542  0.112434  0.123242  0.000304  0.991579  0.0
H  H119  1  0.66496381  0.95955867  0.14213173  1  0.095774  0.000961  0.118146  0.083088  0.000334  0.982259  0.001
C  C120  1  0.54438781  0.51412983  0.20000360  1  -0.024341  0.002208  -0.08099  -0.163524  0.001522  3.932048  0.002
C  C121  1  0.59672007  0.45970798  0.20230724  1  0.493726  -0.000974  0.04612  0.09713  -0.001337  3.982213  -0.001
C  C122  1  0.01413365  0.04438484  0.74147897  1  -0.01554  0.0022  -0.081047  -0.163554  0.001522  3.931952  0.002
C  C123  1  0.95971314  0.09671655  0.74126396  1  0.498988  -0.000963  0.046149  0.097113  -0.001337  3.982324  -0.001
C  C124  1  0.20000262  0.24147969  0.54438516  1  -0.019117  0.002208  -0.081039  -0.163586  0.001522  3.932004  0.002
C  C125  1  0.20230603  0.24126523  0.59671768  1  0.513275  -0.000978  0.046151  0.097147  -0.001336  3.98214  -0.001
C  C126  1  0.74147835  0.70000256  0.01413252  1  -0.049833  0.002216  -0.081079  -0.163623  0.001522  3.932041  0.002
C  C127  1  0.74126411  0.70230669  0.95971094  1  0.521916  -0.000985  0.046177  0.097128  -0.001337  3.982191  -0.001
C  C128  1  0.74147827  0.51413425  0.54438496  1  -0.015527  0.002199  -0.081047  -0.1636  0.001522  3.931944  0.002
C  C129  1  0.74126439  0.45971079  0.59671782  1  0.49941  -0.000964  0.046187  0.097204  -0.001336  3.982146  -0.001
C  C130  1  0.20000167  0.04438443  0.01413484  1  -0.024544  0.002208  -0.081027  -0.163566  0.001522  3.931974  0.002
C  C131  1  0.20230483  0.09671730  0.95971399  1  0.493891  -0.000973  0.046154  0.097199  -0.001336  3.982289  -0.001
C  C132  1  0.01413192  0.24147858  0.20000385  1  -0.049767  0.002216  -0.081019  -0.163531  0.001522  3.931988  0.002
C  C133  1  0.95971027  0.24126381  0.20230714  1  0.52188  -0.000985  0.04616  0.097138  -0.001336  3.982146  -0.001
C  C134  1  0.54438568  0.70000246  0.74147822  1  -0.019139  0.002208  -0.081074  -0.163631  0.001522  3.931956  0.002
C  C135  1  0.59671785  0.70230625  0.74126471  1  0.513232  -0.000978  0.046163  0.097138  -0.001336  3.982098  -0.001
C  C136  1  0.20000240  0.51413145  0.74147985  1  -0.049781  0.002216  -0.080975  -0.163466  0.001522  3.931996  0.002
C  C137  1  0.20230623  0.45971109  0.74126398  1  0.521879  -0.000985  0.046114  0.09707  -0.001336  3.982173  -0.001
C  C138  1  0.74147820  0.04438566  0.20000295  1  -0.019159  0.002208  -0.08106  -0.163571  0.001522  3.931908  0.002
C  C139  1  0.74126388  0.09671823  0.20230617  1  0.513253  -0.000978  0.046146  0.097122  -0.001336  3.982192  -0.001
C  C140  1  0.54438467  0.24147931  0.01413416  1  -0.015547  0.0022  -0.081022  -0.163522  0.001522  3.931916  0.002
C  C141  1  0.59671680  0.24126435  0.95971184  1  0.499513  -0.000963  0.046178  0.097132  -0.001336  3.982303  -0.001
C  C142  1  0.01413496  0.70000291  0.54438405  1  -0.024545  0.002208  -0.081064  -0.163548  0.001522  3.931963  0.002
C  C143  1  0.95971265  0.70230670  0.59671723  1  0.493838  -0.000974  0.046109  0.097048  -0.001336  3.982099  -0.001
C  C144  1  0.48586870  0.45561137  0.29999722  1  -0.024379  0.002208  -0.081037  -0.163501  0.001522  3.931988  0.002
C  C145  1  0.54029101  0.40327880  0.29769446  1  0.493671  -0.000974  0.0461  0.097046  -0.001337  3.98217  -0.001
C  C146  1  0.95561484  0.98586597  0.75852236  1  -0.015783  0.0022  -0.081027  -0.163533  0.001522  3.931932  0.002
C  C147  1  0.90328290  0.04028711  0.75873615  1  0.499208  -0.000963  0.046143  0.097125  -0.001337  3.982307  -0.001
C  C148  1  0.75852036  0.79999853  0.95561379  1  -0.019121  0.002208  -0.081042  -0.163584  0.001522  3.93199  0.002
C  C149  1  0.75873550  0.79769445  0.90328127  1  0.513244  -0.000978  0.046141  0.097063  -0.001336  3.982307  -0.001
C  C150  1  0.29999713  0.25852239  0.48586701  1  -0.049451  0.002216  -0.081042  -0.163537  0.001522  3.931944  0.002
C  C151  1  0.29769393  0.25873687  0.54028765  1  0.52187  -0.000985  0.046129  0.09709  -0.001336  3.982213  -0.001
C  C152  1  0.48586578  0.25852277  0.95561430  1  -0.015541  0.002199  -0.081081  -0.163618  0.001522  3.931986  0.002
C  C153  1  0.54028887  0.25873642  0.90328254  1  0.4994  -0.000963  0.046198  0.097233  -0.001336  3.982145  -0.001
C  C154  1  0.95561589  0.79999794  0.48586526  1  -0.02444  0.002208  -0.081015  -0.163502  0.001522  3.931955  0.002
C  C155  1  0.90328430  0.79769387  0.54028737  1  0.493724  -0.000973  0.046119  0.097043  -0.001336  3.982286  -0.001
C  C156  1  0.75852092  0.98586754  0.29999790  1  -0.049489  0.002216  -0.081034  -0.163554  0.001522  3.932042  0.002
C  C157  1  0.75873542  0.04028896  0.29769433  1  0.521848  -0.000985  0.04616  0.097168  -0.001336  3.982058  -0.001
C  C158  1  0.29999687  0.45561460  0.75852177  1  -0.019078  0.002208  -0.081063  -0.163587  0.001522  3.931949  0.002
C  C159  1  0.29769404  0.40328189  0.75873490  1  0.513228  -0.000978  0.046142  0.097114  -0.001336  3.9821  -0.001
C  C160  1  0.48586793  0.79999748  0.75852040  1  -0.049763  0.002216  -0.081011  -0.163532  0.001522  3.932053  0.002
C  C161  1  0.54028966  0.79769344  0.75873561  1  0.521922  -0.000985  0.046127  0.097085  -0.001336  3.982119  -0.001
C  C162  1  0.95561343  0.25852130  0.29999790  1  -0.019107  0.002208  -0.081041  -0.163583  0.001522  3.93188  0.002
C  C163  1  0.90328108  0.25873512  0.29769447  1  0.513233  -0.000978  0.04612  0.097088  -0.001336  3.982194  -0.001
C  C164  1  0.75852229  0.45561359  0.48586611  1  -0.01579  0.0022  -0.081065  -0.1636  0.001522  3.931928  0.002
C  C165  1  0.75873710  0.40328219  0.54028861  1  0.499615  -0.000963  0.046151  0.097109  -0.001336  3.982186  -0.001
C  C166  1  0.29999546  0.98586705  0.95561625  1  -0.024529  0.002207  -0.081065  -0.163533  0.001521  3.932106  0.002
C  C167  1  0.29769277  0.04028760  0.90328339  1  0.493811  -0.000974  0.046139  0.097113  -0.001336  3.982138  -0.001
C  C168  1  0.45561381  0.48586683  0.79999770  1  -0.024506  0.002208  -0.081039  -0.163539  0.001522  3.932008  0.002
C  C169  1  0.40328108  0.54028898  0.79769330  1  0.493829  -0.000974  0.046098  0.097056  -0.001336  3.982279  -0.001
C  C170  1  0.98586633  0.95561404  0.25852128  1  -0.015893  0.0022  -0.081068  -0.163507  0.001522  3.931978  0.002
C  C171  1  0.04028890  0.90328129  0.25873481  1  0.499318  -0.000962  0.046097  0.096987  -0.001336  3.982156  -0.001
C  C172  1  0.79999834  0.75852093  0.45561379  1  -0.019084  0.002208  -0.081073  -0.163621  0.001522  3.931877  0.002
C  C173  1  0.79769480  0.75873526  0.40328247  1  0.513187  -0.000978  0.046139  0.097154  -0.001336  3.982125  -0.001
C  C174  1  0.25852129  0.29999906  0.98586627  1  -0.049747  0.002216  -0.081052  -0.163548  0.001522  3.931928  0.002
C  C175  1  0.25873563  0.29769501  0.04028861  1  0.522003  -0.000985  0.046115  0.097046  -0.001337  3.982323  -0.001
C  C176  1  0.25851969  0.48586722  0.45561425  1  -0.015547  0.002199  -0.081023  -0.163518  0.001522  3.931911  0.002
C  C177  1  0.25873489  0.54028816  0.40328212  1  0.499018  -0.000963  0.046133  0.097096  -0.001337  3.982337  -0.001
C  C178  1  0.79999558  0.95561710  0.98586738  1  -0.024345  0.002208  -0.081018  -0.163486  0.001522  3.932014  0.002
C  C179  1  0.79769182  0.90328439  0.04028867  1  0.493746  -0.000974  0.046087  0.09696  -0.001336  3.98227  -0.001
C  C180  1  0.98586782  0.75852236  0.79999599  1  -0.049499  0.002216  -0.081066  -0.163516  0.001522  3.932024  0.002
C  C181  1  0.04028971  0.75873583  0.79769282  1  0.521927  -0.000985  0.046144  0.097064  -0.001336  3.982198  -0.001
C  C182  1  0.45561398  0.29999763  0.25852114  1  -0.019097  0.002208  -0.081019  -0.163569  0.001522  3.931942  0.002
C  C183  1  0.40328097  0.29769454  0.25873526  1  0.513232  -0.000979  0.046191  0.097216  -0.001337  3.982311  -0.001
C  C184  1  0.79999662  0.48586800  0.25852221  1  -0.049512  0.002216  -0.081067  -0.163539  0.001522  3.932023  0.002
C  C185  1  0.79769314  0.54028947  0.25873614  1  0.52192  -0.000985  0.046141  0.097122  -0.001336  3.982172  -0.001
C  C186  1  0.25852117  0.95561414  0.79999746  1  -0.019091  0.002208  -0.08102  -0.163541  0.001522  3.931882  0.002
C  C187  1  0.25873571  0.90328180  0.79769380  1  0.513247  -0.000978  0.046165  0.097188  -0.001336  3.98213  -0.001
C  C188  1  0.45561426  0.75852313  0.98586735  1  -0.015504  0.002199  -0.081087  -0.163574  0.001522  3.932058  0.002
C  C189  1  0.40328243  0.75873685  0.04028920  1  0.499524  -0.000964  0.046191  0.097145  -0.001336  3.982229  -0.001
C  C190  1  0.98586531  0.29999702  0.45561487  1  -0.024489  0.002208  -0.081076  -0.163609  0.001522  3.93207  0.002
C  C191  1  0.04028793  0.29769354  0.40328200  1  0.493901  -0.000974  0.046165  0.097111  -0.001337  3.982221  -0.001
C  C192  1  0.51413297  0.54438613  0.70000320  1  -0.024511  0.002208  -0.08106  -0.163579  0.001522  3.932051  0.002
C  C193  1  0.45971162  0.59671888  0.70230718  1  0.493829  -0.000974  0.046105  0.097092  -0.001336  3.982236  -0.001
C  C194  1  0.04438454  0.01413307  0.24147834  1  -0.015586  0.0022  -0.081082  -0.163579  0.001522  3.93199  0.002
C  C195  1  0.09671808  0.95971046  0.24126395  1  0.499549  -0.000964  0.046134  0.097115  -0.001336  3.982197  -0.001
C  C196  1  0.24147714  0.20000479  0.04438545  1  -0.019238  0.002208  -0.081094  -0.163589  0.001522  3.932075  0.002
C  C197  1  0.24126316  0.20230772  0.09671797  1  0.513296  -0.000978  0.046179  0.097135  -0.001336  3.982201  -0.001
C  C198  1  0.70000240  0.74147833  0.51413327  1  -0.049775  0.002216  -0.081062  -0.163558  0.001522  3.931942  0.002
C  C199  1  0.70230620  0.74126369  0.45971219  1  0.521886  -0.000985  0.046171  0.09714  -0.001337  3.982112  -0.001
C  C200  1  0.51413305  0.74148034  0.04438617  1  -0.015584  0.0022  -0.081013  -0.163504  0.001522  3.931927  0.002
C  C201  1  0.45971166  0.74126531  0.09671808  1  0.499035  -0.000963  0.046142  0.097163  -0.001337  3.982264  -0.001
C  C202  1  0.04438296  0.20000366  0.51413246  1  -0.02435  0.002208  -0.080992  -0.163433  0.001522  3.93201  0.002
C  C203  1  0.09671524  0.20230842  0.45971037  1  0.493771  -0.000974  0.046075  0.09698  -0.001336  3.982382  -0.001
C  C204  1  0.24147807  0.01413264  0.70000251  1  -0.049496  0.002216  -0.081042  -0.163545  0.001522  3.932065  0.002
C  C205  1  0.24126394  0.95971161  0.70230579  1  0.521871  -0.000985  0.046126  0.097073  -0.001336  3.982171  -0.001
C  C206  1  0.70000242  0.54438667  0.24147867  1  -0.01927  0.002208  -0.081025  -0.163568  0.001522  3.931963  0.002
C  C207  1  0.70230631  0.59671813  0.24126478  1  0.513248  -0.000978  0.046117  0.097087  -0.001336  3.982177  -0.001
C  C208  1  0.51413181  0.20000347  0.24147944  1  -0.049707  0.002216  -0.081021  -0.163497  0.001522  3.932011  0.002
C  C209  1  0.45971069  0.20230658  0.24126407  1  0.521837  -0.000985  0.04612  0.097016  -0.001336  3.982261  -0.001
C  C210  1  0.04438577  0.74147987  0.70000178  1  -0.019116  0.002208  -0.081019  -0.16355  0.001522  3.931925  0.002
C  C211  1  0.09671851  0.74126491  0.70230550  1  0.513238  -0.000979  0.046142  0.097129  -0.001337  3.982346  -0.001
C  C212  1  0.24147651  0.54438564  0.51413307  1  -0.015513  0.0022  -0.0811  -0.163578  0.001522  3.93198  0.002
C  C213  1  0.24126332  0.59671789  0.45971047  1  0.499531  -0.000964  0.046142  0.097053  -0.001336  3.982253  -0.001
C  C214  1  0.70000285  0.01413400  0.04438492  1  -0.024553  0.002208  -0.081037  -0.163502  0.001522  3.932006  0.002
C  C215  1  0.70230560  0.95971275  0.09671747  1  0.493846  -0.000974  0.046141  0.097093  -0.001337  3.982388  -0.001
C  C216  1  0.43118583  0.56881278  0.25000084  1  0.957818  0.003381  0.205139  0.215818  0.002669  4.07182  0.004
C  C217  1  0.48728254  0.51271573  0.25000074  1  -0.000567  -0.001061  0.017164  0.087492  -0.001406  3.996053  -0.001
C  C218  1  0.06881535  0.93118412  0.75000034  1  0.940423  0.003419  0.204963  0.215713  0.00267  4.072077  0.004
C  C219  1  0.01271995  0.98727941  0.75000087  1  0.014047  -0.001063  0.01716  0.087315  -0.001406  3.996249  -0.001
C  C220  1  0.24999909  0.25000118  0.43118367  1  0.948779  0.003385  0.205034  0.215766  0.002669  4.072076  0.004
C  C221  1  0.24999951  0.25000073  0.48727992  1  0.020936  -0.001061  0.01717  0.087407  -0.001406  3.9961  -0.001
C  C222  1  0.74999861  0.75000170  0.06881521  1  0.94863  0.003384  0.205039  0.215809  0.002669  4.072079  0.004
C  C223  1  0.74999973  0.75000062  0.01271895  1  0.021262  -0.001061  0.017171  0.087391  -0.001406  3.996132  -0.001
C  C224  1  0.75000022  0.56881610  0.43118387  1  0.940471  0.003419  0.204962  0.215631  0.00267  4.072154  0.004
C  C225  1  0.75000049  0.51271940  0.48728078  1  0.014082  -0.001062  0.017146  0.087405  -0.001406  3.996161  -0.001
C  C226  1  0.24999881  0.93118287  0.06881713  1  0.957664  0.003381  0.205023  0.215746  0.002669  4.072047  0.004
C  C227  1  0.24999918  0.98727943  0.01272113  1  -0.000391  -0.00106  0.017171  0.087307  -0.001406  3.996238  -0.001
C  C228  1  0.06881450  0.24999979  0.25000077  1  0.948875  0.003385  0.205021  0.215789  0.00267  4.072023  0.004
C  C229  1  0.01271854  0.24999996  0.25000032  1  0.020968  -0.001061  0.017113  0.087363  -0.001406  3.99617  -0.001
C  C230  1  0.43118329  0.75000053  0.75000035  1  0.949035  0.003385  0.205004  0.215752  0.002669  4.072061  0.004
C  C231  1  0.48728101  0.74999981  0.75000007  1  0.021003  -0.001061  0.017122  0.087348  -0.001406  3.996086  -0.001
C  C232  1  0.24999917  0.56881657  0.75000006  1  0.949036  0.003385  0.20504  0.215801  0.002669  4.072059  0.004
C  C233  1  0.24999986  0.51271886  0.75000040  1  0.020995  -0.001061  0.017085  0.087257  -0.001406  3.996128  -0.001
C  C234  1  0.74999997  0.93118392  0.25000133  1  0.948916  0.003385  0.205024  0.215823  0.002669  4.072003  0.004
C  C235  1  0.75000028  0.98728032  0.25000083  1  0.020685  -0.001061  0.017151  0.087349  -0.001406  3.99614  -0.001
C  C236  1  0.43118317  0.25000150  0.06881613  1  0.940369  0.003419  0.205043  0.215773  0.00267  4.072104  0.004
C  C237  1  0.48727962  0.25000115  0.01271913  1  0.014165  -0.001062  0.017145  0.087307  -0.001405  3.996146  -0.001
C  C238  1  0.06881717  0.74999996  0.43118259  1  0.957659  0.003381  0.205004  0.215725  0.002669  4.07214  0.004
C  C239  1  0.01272134  0.74999939  0.48727944  1  -0.000382  -0.00106  0.017165  0.087252  -0.001406  3.99617  -0.001
C  C240  1  0.56881640  0.43118372  0.75000002  1  0.957722  0.003381  0.204997  0.215772  0.002669  4.072133  0.004
C  C241  1  0.51271870  0.48728132  0.75000056  1  -0.000307  -0.00106  0.017166  0.087381  -0.001406  3.996167  -0.001
C  C242  1  0.93118348  0.06881591  0.24999992  1  0.940424  0.003418  0.205043  0.215848  0.002669  4.072054  0.004
C  C243  1  0.98728042  0.01271908  0.24999938  1  0.014083  -0.001062  0.017102  0.087196  -0.001406  3.996179  -0.001
C  C244  1  0.75000088  0.74999922  0.56881601  1  0.948769  0.003385  0.204981  0.215709  0.002669  4.072088  0.004
C  C245  1  0.74999947  0.75000022  0.51272020  1  0.02127  -0.001062  0.017135  0.087309  -0.001406  3.996118  -0.001
C  C246  1  0.24999889  0.25000162  0.93118402  1  0.948925  0.003385  0.205035  0.215769  0.002669  4.072064  0.004
C  C247  1  0.24999892  0.25000155  0.98728028  1  0.020935  -0.001061  0.017178  0.087373  -0.001406  3.996202  -0.001
C  C248  1  0.24999899  0.43118278  0.56881667  1  0.94049  0.003418  0.205031  0.215745  0.00267  4.072045  0.004
C  C249  1  0.24999827  0.48728056  0.51272007  1  0.014102  -0.001063  0.017107  0.087226  -0.001406  3.996178  -0.001
C  C250  1  0.75000056  0.06881693  0.93118328  1  0.957628  0.003381  0.205013  0.215677  0.002669  4.072143  0.004
C  C251  1  0.74999791  0.01272194  0.98728093  1  -0.000421  -0.00106  0.017143  0.087243  -0.001406  3.996221  -0.001
C  C252  1  0.93118423  0.75000091  0.74999844  1  0.94878  0.003385  0.205094  0.215897  0.002669  4.071935  0.004
C  C253  1  0.98728029  0.75000083  0.74999965  1  0.020938  -0.001061  0.017126  0.087304  -0.001406  3.996112  -0.001
C  C254  1  0.56881530  0.25000080  0.24999978  1  0.948766  0.003385  0.204987  0.215657  0.00267  4.072083  0.004
C  C255  1  0.51271889  0.25000053  0.25000022  1  0.021214  -0.001061  0.01713  0.087343  -0.001406  3.996193  -0.001
C  C256  1  0.74999936  0.43118470  0.25000067  1  0.948776  0.003385  0.205096  0.215859  0.00267  4.071923  0.004
C  C257  1  0.74999960  0.48728104  0.25000077  1  0.020943  -0.001061  0.017163  0.087404  -0.001406  3.996155  -0.001
C  C258  1  0.24999994  0.06881566  0.74999924  1  0.949189  0.003385  0.205009  0.215756  0.00267  4.072054  0.004
C  C259  1  0.24999946  0.01271986  0.74999930  1  0.02069  -0.001061  0.017187  0.087421  -0.001406  3.996081  -0.001
C  C260  1  0.56881566  0.75000161  0.93118433  1  0.940355  0.003419  0.205002  0.215722  0.00267  4.071992  0.004
C  C261  1  0.51271890  0.75000242  0.98728074  1  0.01419  -0.001063  0.017118  0.087286  -0.001406  3.996181  -0.001
C  C262  1  0.93118387  0.24999843  0.56881662  1  0.957673  0.003381  0.205066  0.215809  0.00267  4.071995  0.004
C  C263  1  0.98727812  0.25000281  0.51271755  1  -0.000582  -0.00106  0.017152  0.087303  -0.001406  3.996253  -0.001
N  N264  1  0.33896750  0.63093377  0.27943539  1  -0.205872  0.045489  -0.14279  -0.035855  0.031851  3.605887  0.043
N  N265  1  0.37674529  0.57275977  0.29932397  1  -0.631166  0.005653  -0.212288  -0.253794  0.00301  3.185861  0.005
N  N266  1  0.13093843  0.83896401  0.75066185  1  -0.206712  0.045474  -0.142848  -0.035984  0.031852  3.605895  0.043
N  N267  1  0.07276536  0.87674195  0.75116927  1  -0.622551  0.005646  -0.212082  -0.253531  0.003009  3.185966  0.005
N  N268  1  0.27943307  0.25066602  0.33896276  1  -0.184865  0.045433  -0.142702  -0.035753  0.03185  3.605812  0.043
N  N269  1  0.29932135  0.25117329  0.37674073  1  -0.631307  0.00565  -0.212282  -0.253788  0.003009  3.185932  0.005
N  N270  1  0.75066092  0.77943780  0.13093814  1  -0.210414  0.045517  -0.142779  -0.035848  0.031849  3.605684  0.043
N  N271  1  0.75116974  0.79932381  0.07276371  1  -0.619371  0.00562  -0.212119  -0.253627  0.003009  3.185941  0.005
N  N272  1  0.75066198  0.63093910  0.33896401  1  -0.206396  0.045472  -0.142802  -0.035812  0.031852  3.605876  0.043
N  N273  1  0.75116970  0.57276669  0.37674104  1  -0.622613  0.005647  -0.212157  -0.253585  0.003009  3.185961  0.005
N  N274  1  0.27943436  0.83896232  0.13093896  1  -0.206025  0.045489  -0.142737  -0.035905  0.031852  3.605783  0.043
N  N275  1  0.29932172  0.87674128  0.07276594  1  -0.631129  0.005651  -0.212199  -0.25364  0.003008  3.185934  0.005
N  N276  1  0.13093760  0.25066324  0.27943558  1  -0.210547  0.04552  -0.142767  -0.035819  0.03185  3.605732  0.043
N  N277  1  0.07276360  0.25117085  0.29932330  1  -0.619328  0.00562  -0.212172  -0.253683  0.003009  3.185908  0.005
N  N278  1  0.33896339  0.77943436  0.75066568  1  -0.184957  0.045435  -0.142764  -0.035911  0.031851  3.605848  0.043
N  N279  1  0.37674205  0.79932225  0.75117218  1  -0.631271  0.005651  -0.212245  -0.253719  0.00301  3.186039  0.005
N  N280  1  0.27943499  0.63093878  0.75066243  1  -0.210453  0.045521  -0.14279  -0.0359  0.031852  3.605848  0.043
N  N281  1  0.29932201  0.57276479  0.75117124  1  -0.619346  0.00562  -0.212151  -0.25361  0.00301  3.185904  0.005
N  N282  1  0.75066232  0.83896415  0.27943525  1  -0.184955  0.045436  -0.142821  -0.035894  0.031853  3.605822  0.043
N  N283  1  0.75116997  0.87674189  0.29932384  1  -0.631227  0.005651  -0.212146  -0.253673  0.00301  3.185871  0.005
N  N284  1  0.33896278  0.25066391  0.13093804  1  -0.179551  0.045431  -0.142803  -0.035913  0.031853  3.605822  0.043
N  N285  1  0.37674179  0.25117056  0.07276519  1  -0.622679  0.005648  -0.212194  -0.253659  0.00301  3.185958  0.005
N  N286  1  0.13093995  0.77943413  0.33896151  1  -0.205921  0.045486  -0.142817  -0.035875  0.031851  3.60586  0.043
N  N287  1  0.07276656  0.79932171  0.37674010  1  -0.631153  0.005654  -0.212165  -0.253605  0.003011  3.18598  0.005
N  N288  1  0.36906512  0.66103224  0.22056478  1  -0.184233  0.045446  -0.142784  -0.035897  0.031849  3.605909  0.043
N  N289  1  0.42723863  0.62325325  0.20067748  1  -0.631025  0.005653  -0.212218  -0.253655  0.003009  3.185801  0.005
N  N290  1  0.16103677  0.86906156  0.74933662  1  -0.179654  0.04543  -0.142808  -0.035907  0.031852  3.605858  0.043
N  N291  1  0.12325819  0.92723474  0.74883014  1  -0.622529  0.005648  -0.212157  -0.253675  0.00301  3.185825  0.005
N  N292  1  0.74933309  0.72056750  0.16103704  1  -0.184913  0.045433  -0.142714  -0.035723  0.031851  3.605618  0.043
N  N293  1  0.74882596  0.70067951  0.12325865  1  -0.631185  0.00565  -0.212306  -0.253859  0.00301  3.185908  0.005
N  N294  1  0.22056358  0.24933893  0.36906102  1  -0.210419  0.045517  -0.142823  -0.035901  0.031849  3.606033  0.043
N  N295  1  0.20067643  0.24883031  0.42723496  1  -0.619471  0.005619  -0.212124  -0.25361  0.003009  3.18597  0.005
N  N296  1  0.36905987  0.24933994  0.16103653  1  -0.206791  0.045473  -0.142794  -0.035835  0.031851  3.605741  0.043
N  N297  1  0.42723333  0.24883336  0.12325734  1  -0.622492  0.005647  -0.212157  -0.253637  0.003009  3.185918  0.005
N  N298  1  0.16103714  0.72056323  0.36906071  1  -0.184475  0.045454  -0.142775  -0.035916  0.031854  3.605794  0.043
N  N299  1  0.12325858  0.70067611  0.42723403  1  -0.63108  0.005651  -0.212145  -0.253597  0.003009  3.185992  0.005
N  N300  1  0.74933594  0.86906270  0.22056525  1  -0.210454  0.045519  -0.142796  -0.035874  0.03185  3.60588  0.043
N  N301  1  0.74882865  0.92723628  0.20067807  1  -0.619253  0.005619  -0.212152  -0.253677  0.003009  3.185815  0.005
N  N302  1  0.22056495  0.66103679  0.74933518  1  -0.184953  0.045435  -0.142756  -0.035832  0.031852  3.605909  0.043
N  N303  1  0.20067764  0.62325799  0.74882826  1  -0.631264  0.005651  -0.212217  -0.253706  0.00301  3.186027  0.005
N  N304  1  0.36906076  0.72056447  0.74933898  1  -0.210464  0.045521  -0.14278  -0.035772  0.031852  3.605807  0.043
N  N305  1  0.42723513  0.70067703  0.74883027  1  -0.619379  0.00562  -0.212077  -0.2536  0.003009  3.185876  0.005
N  N306  1  0.16103591  0.24933603  0.22056575  1  -0.184766  0.045435  -0.142788  -0.035906  0.031853  3.605814  0.043
N  N307  1  0.12325722  0.24882908  0.20067832  1  -0.631228  0.005651  -0.212179  -0.253683  0.00301  3.185776  0.005
N  N308  1  0.74933684  0.66103719  0.36906170  1  -0.179819  0.045432  -0.142798  -0.03592  0.031852  3.60581  0.043
N  N309  1  0.74883027  0.62325808  0.42723459  1  -0.622682  0.005648  -0.21211  -0.253586  0.00301  3.18593  0.005
N  N310  1  0.22056499  0.86905941  0.16103809  1  -0.184345  0.045447  -0.142784  -0.035704  0.03185  3.605827  0.043
N  N311  1  0.20067616  0.92723320  0.12326030  1  -0.6311  0.005655  -0.2122  -0.253714  0.003011  3.185817  0.005
N  N312  1  0.66103624  0.36906192  0.72056382  1  -0.184269  0.045444  -0.142843  -0.035981  0.031849  3.605809  0.043
N  N313  1  0.62325739  0.42723565  0.70067657  1  -0.631244  0.005653  -0.212129  -0.2536  0.003009  3.185878  0.005
N  N314  1  0.86906315  0.16103492  0.24933723  1  -0.206598  0.045477  -0.142823  -0.035969  0.031853  3.605781  0.043
N  N315  1  0.92723644  0.12325643  0.24882966  1  -0.62259  0.005648  -0.212161  -0.253654  0.00301  3.185964  0.005
N  N316  1  0.72056662  0.74933410  0.66103796  1  -0.184954  0.045433  -0.142719  -0.035729  0.031851  3.605795  0.043
N  N317  1  0.70067817  0.74882743  0.62325955  1  -0.631283  0.00565  -0.212224  -0.253712  0.003009  3.185849  0.005
N  N318  1  0.24933706  0.22056447  0.86906214  1  -0.210586  0.045521  -0.142761  -0.03585  0.03185  3.60578  0.043
N  N319  1  0.24882891  0.20067912  0.92723524  1  -0.619373  0.00562  -0.212239  -0.253727  0.00301  3.185887  0.005
N  N320  1  0.24933892  0.36905993  0.66103612  1  -0.206428  0.045469  -0.14282  -0.035813  0.031849  3.605753  0.043
N  N321  1  0.24882989  0.42723410  0.62325864  1  -0.622593  0.005647  -0.212118  -0.253544  0.003009  3.185766  0.005
N  N322  1  0.72056742  0.16103604  0.86905860  1  -0.205877  0.045488  -0.142821  -0.035869  0.031852  3.605822  0.043
N  N323  1  0.70067892  0.12325979  0.92723241  1  -0.631067  0.005653  -0.212132  -0.253533  0.00301  3.185927  0.005
N  N324  1  0.86906275  0.74933754  0.72056381  1  -0.210556  0.045521  -0.142867  -0.035994  0.031851  3.605996  0.043
N  N325  1  0.92723561  0.74882956  0.70067667  1  -0.619483  0.00562  -0.212127  -0.253619  0.003009  3.186055  0.005
N  N326  1  0.66103674  0.22056544  0.24933444  1  -0.18492  0.045434  -0.142757  -0.03593  0.031851  3.60587  0.043
N  N327  1  0.62325802  0.20067748  0.24882855  1  -0.631259  0.005651  -0.212171  -0.253601  0.00301  3.185753  0.005
N  N328  1  0.72056574  0.36906162  0.24933696  1  -0.210586  0.045521  -0.142795  -0.035769  0.031851  3.605878  0.043
N  N329  1  0.70067790  0.42723402  0.24882962  1  -0.619378  0.005618  -0.212174  -0.253673  0.003008  3.185949  0.005
N  N330  1  0.24933788  0.16103571  0.72056427  1  -0.184851  0.045436  -0.142762  -0.03586  0.031854  3.605782  0.043
N  N331  1  0.24882940  0.12325791  0.70067657  1  -0.631208  0.00565  -0.212161  -0.253632  0.00301  3.185933  0.005
N  N332  1  0.66103674  0.74933681  0.86906224  1  -0.179957  0.045432  -0.142774  -0.03585  0.031851  3.605871  0.043
N  N333  1  0.62325864  0.74883108  0.92723467  1  -0.622608  0.005646  -0.212149  -0.253635  0.003009  3.185995  0.005
N  N334  1  0.86906525  0.22056149  0.66103773  1  -0.184379  0.045447  -0.14278  -0.035884  0.03185  3.605791  0.043
N  N335  1  0.92723662  0.20067574  0.62325838  1  -0.631224  0.005652  -0.212183  -0.253645  0.003009  3.186129  0.005
N  N336  1  0.63093772  0.33896333  0.77943592  1  -0.205848  0.045482  -0.142799  -0.035853  0.031847  3.605717  0.043
N  N337  1  0.57276382  0.37674271  0.79932322  1  -0.63115  0.005653  -0.212167  -0.253681  0.00301  3.185881  0.005
N  N338  1  0.83896404  0.13093737  0.25066275  1  -0.179587  0.045431  -0.142757  -0.035842  0.031852  3.605718  0.043
N  N339  1  0.87674295  0.07276298  0.25117011  1  -0.622664  0.005648  -0.212146  -0.253635  0.00301  3.185909  0.005
N  N340  1  0.25066343  0.27943483  0.83896322  1  -0.18493  0.045432  -0.142763  -0.035786  0.031851  3.605801  0.043
N  N341  1  0.25117046  0.29932426  0.87674027  1  -0.631075  0.005649  -0.212199  -0.2537  0.003009  3.185991  0.005
N  N342  1  0.77943639  0.75066147  0.63093866  1  -0.210391  0.045519  -0.142821  -0.035868  0.03185  3.605943  0.043
N  N343  1  0.79932278  0.75117010  0.57276501  1  -0.619466  0.00562  -0.212107  -0.253616  0.00301  3.185991  0.005
N  N344  1  0.63093897  0.75066164  0.83896451  1  -0.206483  0.045471  -0.142825  -0.035802  0.031851  3.605899  0.043
N  N345  1  0.57276540  0.75117042  0.87674208  1  -0.622458  0.005647  -0.21211  -0.253623  0.00301  3.185789  0.005
N  N346  1  0.83896465  0.27943206  0.63094132  1  -0.205801  0.045491  -0.142812  -0.035841  0.031854  3.605738  0.043
N  N347  1  0.87674065  0.29932124  0.57276709  1  -0.631032  0.005653  -0.212171  -0.25365  0.00301  3.185787  0.005
N  N348  1  0.25066397  0.13093763  0.77943503  1  -0.210597  0.04552  -0.142799  -0.035871  0.03185  3.605691  0.043
N  N349  1  0.25117094  0.07276374  0.79932190  1  -0.619545  0.005621  -0.212188  -0.253724  0.00301  3.185754  0.005
N  N350  1  0.77943541  0.33896246  0.25066478  1  -0.184759  0.045434  -0.142778  -0.035868  0.031852  3.605919  0.043
N  N351  1  0.79932227  0.37674159  0.25117231  1  -0.631193  0.005652  -0.212261  -0.253792  0.00301  3.185839  0.005
N  N352  1  0.63093937  0.27943532  0.25066114  1  -0.210481  0.04552  -0.142817  -0.035791  0.031852  3.605859  0.043
N  N353  1  0.57276554  0.29932254  0.25117001  1  -0.619374  0.005619  -0.21213  -0.25358  0.003009  3.186009  0.005
N  N354  1  0.83896308  0.75066416  0.77943466  1  -0.184855  0.045434  -0.142778  -0.035897  0.031853  3.605737  0.043
N  N355  1  0.87674184  0.75117272  0.79932228  1  -0.631186  0.005651  -0.212194  -0.253673  0.00301  3.185641  0.005
N  N356  1  0.25066368  0.33896222  0.63093842  1  -0.179504  0.045429  -0.142785  -0.035866  0.031851  3.605826  0.043
N  N357  1  0.25116987  0.37674095  0.57276582  1  -0.62308  0.005648  -0.212202  -0.253678  0.00301  3.186029  0.005
N  N358  1  0.77943753  0.13093584  0.83896229  1  -0.184365  0.045448  -0.142785  -0.035922  0.03185  3.605855  0.043
N  N359  1  0.79932416  0.07276293  0.87674142  1  -0.631172  0.005651  -0.212176  -0.25358  0.003008  3.185982  0.005
N  N360  1  0.59515157  0.40484665  0.25000087  1  -1.213349  0.033252  -0.344484  -0.235911  0.02198  3.632053  0.03
N  N361  1  0.90485403  0.09514561  0.75000025  1  -1.210818  0.033231  -0.344582  -0.235981  0.021983  3.632088  0.03
N  N362  1  0.24999912  0.25000092  0.59514876  1  -1.217987  0.033279  -0.34452  -0.235996  0.02198  3.631847  0.03
N  N363  1  0.74999994  0.75000076  0.90485067  1  -1.217993  0.033277  -0.344561  -0.235977  0.021979  3.631958  0.03
N  N364  1  0.75000070  0.40485002  0.59514904  1  -1.211649  0.033222  -0.344557  -0.236034  0.021975  3.631845  0.03
N  N365  1  0.24999831  0.09514838  0.90485465  1  -1.213099  0.033251  -0.344508  -0.236034  0.021977  3.631893  0.03
N  N366  1  0.90484970  0.25000026  0.25000134  1  -1.218035  0.033276  -0.344528  -0.236046  0.021978  3.631905  0.03
N  N367  1  0.59514984  0.74999915  0.75000106  1  -1.218076  0.033276  -0.344496  -0.235914  0.021978  3.631787  0.03
N  N368  1  0.25000029  0.40485065  0.74999908  1  -1.218019  0.033278  -0.344533  -0.236  0.021979  3.631854  0.03
N  N369  1  0.74999952  0.09514945  0.24999962  1  -1.21796  0.033276  -0.344545  -0.236035  0.021977  3.631812  0.03
N  N370  1  0.59514927  0.24999970  0.90485168  1  -1.211591  0.033223  -0.344575  -0.236062  0.021976  3.631928  0.03
N  N371  1  0.90485208  0.75000062  0.59514765  1  -1.213019  0.033252  -0.344538  -0.235962  0.021978  3.631912  0.03
N  N372  1  0.40484906  0.59515056  0.75000088  1  -1.213248  0.033251  -0.344473  -0.235993  0.021977  3.631953  0.03
N  N373  1  0.09514986  0.90484948  0.24999941  1  -1.211258  0.03323  -0.344426  -0.235902  0.021981  3.63192  0.03
N  N374  1  0.75000025  0.74999888  0.40485165  1  -1.217926  0.033279  -0.344522  -0.236022  0.02198  3.631822  0.03
N  N375  1  0.25000001  0.25000194  0.09514815  1  -1.218116  0.033276  -0.344549  -0.236043  0.021978  3.632007  0.03
N  N376  1  0.24999996  0.59514800  0.40485046  1  -1.211333  0.033223  -0.344506  -0.235936  0.021976  3.632053  0.03
N  N377  1  0.74999925  0.90485346  0.09514788  1  -1.213141  0.033251  -0.34448  -0.235862  0.021977  3.631935  0.03
N  N378  1  0.09515066  0.74999975  0.74999834  1  -1.218017  0.033277  -0.344531  -0.235994  0.021978  3.631963  0.03
N  N379  1  0.40485038  0.25000150  0.24999953  1  -1.217989  0.033279  -0.344548  -0.236038  0.021979  3.632012  0.03
N  N380  1  0.74999968  0.59514975  0.25000060  1  -1.218083  0.033275  -0.344499  -0.235979  0.021977  3.631835  0.03
N  N381  1  0.25000029  0.90485080  0.74999990  1  -1.218012  0.033276  -0.344544  -0.236057  0.021978  3.63181  0.03
N  N382  1  0.40485257  0.75000027  0.09514939  1  -1.211349  0.033222  -0.344555  -0.236072  0.021976  3.632063  0.03
N  N383  1  0.09514735  0.25000078  0.40485158  1  -1.213213  0.033251  -0.344491  -0.235864  0.021977  3.631989  0.03
O  O384  1  0.25000192  0.74999678  0.25000063  1  -0.997428  0.389878  -0.604142  -0.841941  0.238306  2.323058  0.347
O  O385  1  0.25000075  0.75000009  0.74999861  1  -1.005087  0.389746  -0.604364  -0.842124  0.238304  2.323211  0.347
O  O386  1  0.24999899  0.24999987  0.24999997  1  -1.005018  0.389759  -0.604348  -0.842057  0.238311  2.323089  0.347
O  O387  1  0.74999903  0.75000180  0.24999980  1  -1.004984  0.389756  -0.604227  -0.842042  0.23831  2.323127  0.347
O  O388  1  0.75000221  0.24999701  0.74999915  1  -0.997382  0.38989  -0.604151  -0.841974  0.238313  2.322983  0.347
O  O389  1  0.75000165  0.24999890  0.24999958  1  -1.00514  0.389734  -0.604217  -0.841996  0.238297  2.323136  0.347
O  O390  1  0.75000153  0.74999954  0.75000015  1  -1.005014  0.389756  -0.60419  -0.84198  0.23831  2.323147  0.347
O  O391  1  0.25000095  0.24999708  0.75000046  1  -1.005029  0.389749  -0.604149  -0.841962  0.238306  2.323152  0.347
