# generated using pymatgen
data_Co6H74C82N4O33
_symmetry_space_group_name_H-M   'P 1'
_cell_length_a   16.43366337
_cell_length_b   16.60838035
_cell_length_c   23.07273028
_cell_angle_alpha   92.14849221
_cell_angle_beta   89.99997558
_cell_angle_gamma   119.65291342
_symmetry_Int_Tables_number   1
_chemical_formula_structural   Co6H74C82N4O33
_chemical_formula_sum   'Co12 H148 C164 N8 O66'
_cell_volume   5467.57998958
_cell_formula_units_Z   2
loop_
 _symmetry_equiv_pos_site_id
 _symmetry_equiv_pos_as_xyz
  1  'x, y, z'
loop_
 _atom_site_type_symbol
 _atom_site_label
 _atom_site_symmetry_multiplicity
 _atom_site_fract_x
 _atom_site_fract_y
 _atom_site_fract_z
 _atom_site_occupancy
 _atom_site_pbe_bader_charge
 _atom_site_pbe_bader_spin_density
 _atom_site_pbe_cm5_charge
 _atom_site_pbe_ddec_charge
 _atom_site_pbe_ddec_spin_density
 _atom_site_pbe_ddec_sum_bond_order
 _atom_site_pbe_magmom
Co  Co0  1  0.48455929  0.40405998  0.96274056  1  1.335318  2.599113  0.654209  1.077873  2.796756  2.363274  2.583
Co  Co1  1  0.08050155  0.59595047  0.53726027  1  1.335098  2.599091  0.654328  1.078147  2.796818  2.363132  2.583
Co  Co2  1  0.51544442  0.59594952  0.03726209  1  1.335332  2.599149  0.654314  1.078025  2.796817  2.363212  2.583
Co  Co3  1  0.91950545  0.40406319  0.46274207  1  1.334988  2.599055  0.654229  1.078013  2.79675  2.363042  2.583
Co  Co4  1  0.59450005  0.40955583  0.84467621  1  1.345761  2.643016  0.648305  1.050804  2.851801  2.396409  2.63
Co  Co5  1  0.18494294  0.59044540  0.65531825  1  1.344656  2.642989  0.648183  1.050607  2.851742  2.396243  2.63
Co  Co6  1  0.40549959  0.59044191  0.15532089  1  1.345588  2.642995  0.648258  1.050673  2.851751  2.396213  2.63
Co  Co7  1  0.81505393  0.40955166  0.34467710  1  1.344677  2.643017  0.648253  1.050701  2.851793  2.396522  2.63
Co  Co8  1  0.53416922  0.58448310  0.87045860  1  1.27742  2.622919  0.62939  1.021319  2.801557  2.24675  2.592
Co  Co9  1  0.94969086  0.41551245  0.62954340  1  1.280566  2.622775  0.629403  1.021455  2.80155  2.246605  2.592
Co  Co10  1  0.46582398  0.41551391  0.12954412  1  1.27718  2.622917  0.629355  1.021402  2.801547  2.246672  2.592
Co  Co11  1  0.05031824  0.58448594  0.37046066  1  1.28074  2.622781  0.62939  1.021369  2.801559  2.246629  2.592
H  H12  1  0.62494237  0.53212353  0.92718855  1  0.627156  0.001926  0.300921  0.387506  0.001404  0.927607  0.004
H  H13  1  0.09282194  0.46787565  0.57281021  1  0.602515  0.002051  0.300915  0.387534  0.001404  0.927489  0.004
H  H14  1  0.37505093  0.46787489  0.07281031  1  0.627103  0.001927  0.300918  0.387517  0.001404  0.927594  0.004
H  H15  1  0.90718265  0.53212345  0.42718997  1  0.602506  0.002052  0.30091  0.387521  0.001404  0.927535  0.004
H  H16  1  0.70257141  0.69571268  0.81855929  1  0.598704  0.000402  0.3182  0.391951  -4.7e-05  0.88787  0.0
H  H17  1  0.00685287  0.30428443  0.68144157  1  0.581686  0.000377  0.31824  0.391973  -4.6e-05  0.887898  0.0
H  H18  1  0.29743344  0.30428574  0.18144087  1  0.598719  0.000403  0.318267  0.392026  -4.7e-05  0.887817  0.0
H  H19  1  0.99314346  0.69571398  0.31855946  1  0.580445  0.00038  0.318214  0.392004  -4.7e-05  0.887859  0.0
H  H20  1  0.71272196  0.61349950  0.84307007  1  0.62572  -3e-05  0.29022  0.369865  -0.000192  0.983944  0.0
H  H21  1  0.09922015  0.38649681  0.65692772  1  0.632046  -4.5e-05  0.290218  0.369817  -0.000192  0.984034  0.0
H  H22  1  0.28727673  0.38649754  0.15692789  1  0.625729  -3e-05  0.290214  0.369814  -0.000192  0.984009  0.0
H  H23  1  0.90077914  0.61350022  0.34307153  1  0.63231  -4.5e-05  0.290165  0.369768  -0.000192  0.984133  0.0
H  H24  1  0.78505800  0.33683949  0.93070169  1  0.092868  0.000245  0.101059  0.101509  6.2e-05  1.029245  0.0
H  H25  1  0.44822484  0.66316676  0.56929762  1  0.093053  0.000251  0.101053  0.101579  6.2e-05  1.029091  0.0
H  H26  1  0.21493885  0.66316240  0.06929770  1  0.093  0.000245  0.101081  0.101604  6.2e-05  1.029069  0.0
H  H27  1  0.55177819  0.33683166  0.43070211  1  0.093045  0.00025  0.101057  0.101539  6.2e-05  1.029136  0.0
H  H28  1  0.84127489  0.23351972  0.97008896  1  0.106093  0.000142  0.10955  0.12841  8.4e-05  0.98747  0.0
H  H29  1  0.60776295  0.76649323  0.52990966  1  0.109318  0.000141  0.109518  0.128322  8.4e-05  0.98754  0.0
H  H30  1  0.15873222  0.76649049  0.02990982  1  0.106332  0.000142  0.109542  0.128364  8.4e-05  0.987577  0.0
H  H31  1  0.39224172  0.23351212  0.47009071  1  0.109386  0.000141  0.109535  0.128363  8.4e-05  0.98749  0.0
H  H32  1  0.58422186  0.08596842  0.06196918  1  0.070674  0.000147  0.108409  0.123561  7.9e-05  0.986353  0.0
H  H33  1  0.49825409  0.91403848  0.43802879  1  0.088341  0.000146  0.108381  0.123531  7.9e-05  0.98629  0.0
H  H34  1  0.41578629  0.91403416  0.93802937  1  0.070558  0.000147  0.108399  0.12351  7.9e-05  0.986375  0.0
H  H35  1  0.50174154  0.08596339  0.56197321  1  0.088422  0.000146  0.108405  0.123565  7.9e-05  0.986234  0.0
H  H36  1  0.53077394  0.19335957  0.02530121  1  0.109186  0.000192  0.102252  0.107609  2.4e-05  1.03922  0.0
H  H37  1  0.33741932  0.80664130  0.47470094  1  0.10943  0.000193  0.102249  0.107592  2.4e-05  1.039273  0.0
H  H38  1  0.46922309  0.80664022  0.97470072  1  0.109259  0.000192  0.102246  0.107593  2.4e-05  1.03927  0.0
H  H39  1  0.66258351  0.19335916  0.52530491  1  0.109251  0.000193  0.102269  0.107705  2.4e-05  1.039164  0.0
H  H40  1  0.60691033  0.88408473  0.88615763  1  0.068409  0.000555  0.098536  0.093239  0.000271  1.026343  0.0
H  H41  1  0.72281250  0.11590477  0.61383988  1  0.068531  0.000557  0.098495  0.093226  0.000271  1.026369  0.0
H  H42  1  0.39308507  0.11589844  0.11383948  1  0.068409  0.000555  0.098511  0.093218  0.000271  1.026392  0.0
H  H43  1  0.27717724  0.88408533  0.38615874  1  0.068687  0.000558  0.098513  0.09318  0.000271  1.026387  0.0
H  H44  1  0.66590607  0.04260486  0.93143097  1  0.069772  1.9e-05  0.100068  0.113584  -0.0  1.020849  0.0
H  H45  1  0.62329934  0.95738955  0.56856539  1  0.071429  1.9e-05  0.100058  0.113625  -0.0  1.020712  0.0
H  H46  1  0.33408865  0.95738179  0.06856408  1  0.069808  1.9e-05  0.100046  0.113613  -0.0  1.020804  0.0
H  H47  1  0.37669657  0.04260680  0.43143124  1  0.07115  1.9e-05  0.100078  0.113619  -0.0  1.020778  0.0
H  H48  1  0.74939881  0.95923863  0.08475423  1  0.095939  6.4e-05  0.10285  0.118047  2.1e-05  1.007629  0.0
H  H49  1  0.79015834  0.04076566  0.41524662  1  0.099958  6.3e-05  0.102875  0.118067  2.1e-05  1.007693  0.0
H  H50  1  0.25060439  0.04075770  0.91524543  1  0.095892  6.4e-05  0.10289  0.118151  2.1e-05  1.007606  0.0
H  H51  1  0.20983625  0.95923900  0.58475242  1  0.099888  6.4e-05  0.102866  0.118083  2.1e-05  1.0076  0.0
H  H52  1  0.68630014  0.79927087  0.03925245  1  0.13046  0.000102  0.10487  0.107602  -0.000103  1.061522  0.0
H  H53  1  0.88702652  0.20073061  0.46074832  1  0.11762  0.000102  0.104862  0.107618  -0.000102  1.061491  0.0
H  H54  1  0.31369794  0.20072130  0.96074709  1  0.130464  0.000102  0.104884  0.10767  -0.000103  1.061462  0.0
H  H55  1  0.11296547  0.79926642  0.53925093  1  0.117515  0.000103  0.104868  0.107638  -0.000102  1.061567  0.0
H  H56  1  0.20807474  0.21070237  0.89866782  1  0.095201  0.000325  0.109652  0.113071  0.000132  0.995334  0.0
H  H57  1  0.99735859  0.78928448  0.60133224  1  0.089507  0.000329  0.109654  0.113002  0.000132  0.995312  0.0
H  H58  1  0.79192855  0.78928563  0.10133421  1  0.094968  0.000325  0.109666  0.113012  0.000132  0.995275  0.0
H  H59  1  0.00263609  0.21071184  0.39866916  1  0.089631  0.000329  0.109624  0.113019  0.000132  0.99526  0.0
H  H60  1  0.06228362  0.08232064  0.84917371  1  0.091594  0.000178  0.109968  0.127606  9.3e-05  0.982725  0.0
H  H61  1  0.97995099  0.91767194  0.65082567  1  0.076018  0.00018  0.109993  0.12761  9.3e-05  0.982714  0.0
H  H62  1  0.93772010  0.91767914  0.15082822  1  0.091661  0.000177  0.109974  0.127596  9.3e-05  0.982709  0.0
H  H63  1  0.02004239  0.08232786  0.34917410  1  0.076205  0.00018  0.109961  0.127579  9.3e-05  0.982729  0.0
H  H64  1  0.22831201  0.07552539  0.70676941  1  0.083182  0.000125  0.109186  0.12612  6.4e-05  0.989368  0.0
H  H65  1  0.15277485  0.92447210  0.79322761  1  0.083841  0.000125  0.109285  0.126247  6.4e-05  0.989287  0.0
H  H66  1  0.77169424  0.92447581  0.29322693  1  0.083317  0.000125  0.10928  0.12623  6.4e-05  0.98928  0.0
H  H67  1  0.84721410  0.07552979  0.20677179  1  0.083836  0.000125  0.109264  0.12622  6.4e-05  0.98931  0.0
H  H68  1  0.37348238  0.20017565  0.75797627  1  0.082295  0.000191  0.110158  0.119537  4.4e-05  0.987563  0.0
H  H69  1  0.17329945  0.79982373  0.74202208  1  0.080121  0.000192  0.110143  0.119538  4.4e-05  0.987487  0.0
H  H70  1  0.62652108  0.79982486  0.24202135  1  0.082428  0.000191  0.110142  0.119532  4.4e-05  0.98753  0.0
H  H71  1  0.82669375  0.20017814  0.25797905  1  0.080012  0.000192  0.110172  0.119553  4.4e-05  0.987523  0.0
H  H72  1  0.24558368  0.55517680  0.90761089  1  0.081472  0.000348  0.10654  0.107881  9.8e-05  0.998318  0.0
H  H73  1  0.69038802  0.44481590  0.59238808  1  0.088709  0.000343  0.106517  0.107897  9.7e-05  0.998291  0.0
H  H74  1  0.75442518  0.44482231  0.09238843  1  0.081426  0.000347  0.106542  0.107911  9.7e-05  0.998279  0.0
H  H75  1  0.30959816  0.55517559  0.40760928  1  0.088799  0.000343  0.10653  0.107869  9.8e-05  0.998321  0.0
H  H76  1  0.08634929  0.50378601  0.94813603  1  0.081257  3.5e-05  0.102287  0.118329  -1.8e-05  1.036854  0.0
H  H77  1  0.58255870  0.49621462  0.55186321  1  0.130583  3.6e-05  0.10225  0.118329  -1.8e-05  1.036973  0.0
H  H78  1  0.91365175  0.49621451  0.05185986  1  0.081155  3.5e-05  0.102257  0.11826  -1.8e-05  1.036887  0.0
H  H79  1  0.41743668  0.50378312  0.44813303  1  0.130897  3.6e-05  0.102286  0.118354  -1.8e-05  1.036957  0.0
H  H80  1  0.11453446  0.30936905  0.05254952  1  0.086597  0.000191  0.110822  0.12693  6e-05  0.984953  0.0
H  H81  1  0.80516006  0.69061654  0.44744611  1  0.071559  0.000191  0.110889  0.126991  5.9e-05  0.984943  0.0
H  H82  1  0.88545946  0.69061968  0.94744602  1  0.086673  0.000191  0.110864  0.126947  5.9e-05  0.984979  0.0
H  H83  1  0.19483525  0.30937495  0.55255125  1  0.071612  0.000191  0.110845  0.12696  6e-05  0.98493  0.0
H  H84  1  0.27399329  0.36104443  0.01248041  1  0.11198  0.000131  0.113028  0.127333  -0.000247  1.005067  0.0
H  H85  1  0.91293937  0.63894501  0.48751747  1  0.156702  0.000123  0.113046  0.127349  -0.000247  1.0051  0.0
H  H86  1  0.72600531  0.63895122  0.98751751  1  0.112078  0.000132  0.113049  0.127374  -0.000247  1.005049  0.0
H  H87  1  0.08705401  0.36104994  0.51248086  1  0.156985  0.000122  0.113057  0.127344  -0.000247  1.005113  0.0
H  H88  1  0.13662322  0.56396318  0.19127582  1  0.0899  0.00038  0.101188  0.099275  9.9e-05  1.020932  0.0
H  H89  1  0.57265217  0.43603370  0.30872625  1  0.059537  0.000391  0.101208  0.09932  9.9e-05  1.020914  0.0
H  H90  1  0.86338232  0.43604149  0.80872279  1  0.090009  0.00038  0.101212  0.099341  9.9e-05  1.02092  0.0
H  H91  1  0.42734746  0.56396886  0.69127490  1  0.059484  0.000391  0.101219  0.099289  9.9e-05  1.020945  0.0
H  H92  1  0.15258940  0.51233342  0.09178972  1  0.113742  0.000195  0.105781  0.127463  4.2e-05  1.031437  0.0
H  H93  1  0.64025456  0.48766684  0.40821243  1  0.112529  0.000198  0.105776  0.127441  4.2e-05  1.031429  0.0
H  H94  1  0.84741241  0.48766986  0.90820885  1  0.113797  0.000195  0.105794  0.127491  4.2e-05  1.031396  0.0
H  H95  1  0.35975046  0.51233921  0.59178709  1  0.112541  0.000198  0.105777  0.127477  4.2e-05  1.031376  0.0
H  H96  1  0.85784773  0.30930213  0.08701000  1  0.088054  0.000112  0.103838  0.122188  4.3e-05  1.016167  0.0
H  H97  1  0.54854598  0.69069326  0.41299582  1  0.090439  0.000111  0.103872  0.122171  4.3e-05  1.016188  0.0
H  H98  1  0.14215199  0.69069696  0.91299365  1  0.087977  0.000112  0.10383  0.122166  4.3e-05  1.01619  0.0
H  H99  1  0.45145468  0.30930651  0.58700872  1  0.095812  0.00011  0.103849  0.122155  4.3e-05  1.016182  0.0
H  H100  1  0.84415074  0.36168048  0.18855716  1  0.147685  0.00012  0.107051  0.114854  -4.1e-05  1.009275  0.0
H  H101  1  0.48246800  0.63831916  0.31144793  1  0.104768  0.000119  0.10707  0.114859  -4.1e-05  1.009294  0.0
H  H102  1  0.15585332  0.63832486  0.81144451  1  0.147539  0.00012  0.107105  0.114933  -4.1e-05  1.009368  0.0
H  H103  1  0.51753162  0.36168339  0.68855582  1  0.105329  0.000119  0.107037  0.114772  -4.1e-05  1.00937  0.0
H  H104  1  0.69558910  0.28478079  0.82993103  1  0.103606  0.001364  0.121846  0.051439  0.000306  1.007207  0.001
H  H105  1  0.41081887  0.71522073  0.67006947  1  0.104368  0.001361  0.121823  0.05146  0.000306  1.007139  0.001
H  H106  1  0.30440627  0.71522179  0.17006752  1  0.103478  0.001363  0.121836  0.049255  0.000303  1.009388  0.001
H  H107  1  0.58918763  0.28477977  0.32993032  1  0.104432  0.001362  0.121838  0.051412  0.000306  1.0072  0.001
H  H108  1  0.61631253  0.27633052  0.68228659  1  0.072387  0.000236  0.107705  0.12311  8.8e-05  1.002019  0.0
H  H109  1  0.33998580  0.72367327  0.81770879  1  0.071293  0.000236  0.107705  0.123138  8.8e-05  1.001986  0.0
H  H110  1  0.38369118  0.72367414  0.31771245  1  0.072359  0.000236  0.107738  0.123176  8.8e-05  1.002026  0.0
H  H111  1  0.66001619  0.27632794  0.18228668  1  0.071267  0.000236  0.107708  0.123106  8.8e-05  1.001983  0.0
H  H112  1  0.67574375  0.21711399  0.65464037  1  0.049509  0.000237  0.104874  0.119517  6.5e-05  1.007802  0.0
H  H113  1  0.45863083  0.78289165  0.84536284  1  0.027027  0.000243  0.10486  0.119533  6.6e-05  1.0077  0.0
H  H114  1  0.32426205  0.78288996  0.34536255  1  0.049406  0.000237  0.104867  0.119517  6.6e-05  1.007741  0.0
H  H115  1  0.54136818  0.21711090  0.15464091  1  0.027179  0.000243  0.10485  0.119507  6.5e-05  1.007784  0.0
H  H116  1  0.73813004  0.33942201  0.66513803  1  0.081353  0.000143  0.109631  0.136615  2.5e-05  1.002933  0.0
H  H117  1  0.39870944  0.66058086  0.83486251  1  0.115447  0.000138  0.109657  0.136646  2.5e-05  1.00291  0.0
H  H118  1  0.26187393  0.66058194  0.33486316  1  0.081404  0.000143  0.109644  0.136667  2.5e-05  1.002979  0.0
H  H119  1  0.60129124  0.33941894  0.16513726  1  0.115422  0.000138  0.109639  0.13662  2.5e-05  1.002936  0.0
H  H120  1  0.77678333  0.22261741  0.79717900  1  0.064007  0.000138  0.107802  0.114903  6.8e-05  0.996201  0.0
H  H121  1  0.55417500  0.77739079  0.70282339  1  0.042219  0.000138  0.10784  0.114942  6.8e-05  0.996165  0.0
H  H122  1  0.22321786  0.77739070  0.20282361  1  0.064071  0.000138  0.107777  0.114968  6.8e-05  0.996024  0.0
H  H123  1  0.44583410  0.22261732  0.29717878  1  0.042158  0.000139  0.107808  0.11491  6.8e-05  0.996196  0.0
H  H124  1  0.83550080  0.27151320  0.73140227  1  0.103702  -7.7e-05  0.107576  0.132338  -0.000347  1.006591  0.0
H  H125  1  0.56400111  0.72849770  0.76859889  1  0.100745  -7.8e-05  0.107559  0.13232  -0.000347  1.006617  0.0
H  H126  1  0.16449925  0.72849630  0.26859908  1  0.103761  -7.7e-05  0.107547  0.132271  -0.000347  1.006685  0.0
H  H127  1  0.43600999  0.27151319  0.23140250  1  0.100947  -7.8e-05  0.107545  0.132297  -0.000347  1.006576  0.0
H  H128  1  0.73755890  0.15672516  0.72979323  1  0.058802  2e-06  0.10303  0.113764  -3.7e-05  0.984745  0.0
H  H129  1  0.58084776  0.84328306  0.77020700  1  0.013803  9e-06  0.103018  0.113856  -3.7e-05  0.98459  0.0
H  H130  1  0.26243924  0.84328295  0.27020722  1  0.058522  2e-06  0.103031  0.113829  -3.7e-05  0.984652  0.0
H  H131  1  0.41916212  0.15672297  0.22979468  1  0.013925  9e-06  0.103034  0.113753  -3.7e-05  0.984743  0.0
H  H132  1  0.72608405  0.48066356  0.74417970  1  0.145112  0.000927  0.131243  0.067148  7.9e-05  1.003147  0.001
H  H133  1  0.24542451  0.51933534  0.75581987  1  0.137009  0.00093  0.131249  0.06714  7.9e-05  1.003113  0.001
H  H134  1  0.27391332  0.51933693  0.25582139  1  0.145099  0.000928  0.131275  0.067157  7.9e-05  1.003171  0.001
H  H135  1  0.75457721  0.48066167  0.24418198  1  0.137172  0.00093  0.131243  0.067139  7.9e-05  1.003161  0.001
H  H136  1  0.87579721  0.67300885  0.84190272  1  0.089403  0.000629  0.109246  0.123424  0.000345  1.026823  0.0
H  H137  1  0.20279861  0.32700172  0.65809761  1  0.089646  0.000623  0.109233  0.123409  0.000345  1.026858  0.0
H  H138  1  0.12420120  0.32699371  0.15809973  1  0.08994  0.000629  0.109239  0.123421  0.000345  1.026826  0.0
H  H139  1  0.79720511  0.67299807  0.34190476  1  0.089406  0.000623  0.10922  0.123361  0.000345  1.026913  0.0
H  H140  1  0.91288463  0.75118191  0.78343649  1  0.062533  6.3e-05  0.103021  0.117509  -5e-06  0.988715  0.0
H  H141  1  0.16170776  0.24881758  0.71656222  1  0.08004  6.4e-05  0.103014  0.117452  -5e-06  0.988627  0.0
H  H142  1  0.08711257  0.24881579  0.21656712  1  0.062792  6.3e-05  0.10304  0.117539  -5e-06  0.988564  0.0
H  H143  1  0.83829466  0.75117596  0.28344126  1  0.080004  6.4e-05  0.103022  0.11746  -5e-06  0.988644  0.0
H  H144  1  0.97387598  0.69048782  0.79938031  1  0.075896  7.3e-05  0.104078  0.120048  -3.3e-05  1.010653  0.0
H  H145  1  0.28339880  0.30951910  0.70061859  1  0.070744  7.3e-05  0.104039  0.119994  -3.3e-05  1.010656  0.0
H  H146  1  0.02612209  0.30951406  0.20062125  1  0.075865  7.3e-05  0.104077  0.120034  -3.3e-05  1.010626  0.0
H  H147  1  0.71660605  0.69047931  0.29938331  1  0.070461  7.3e-05  0.104054  0.120031  -3.3e-05  1.010661  0.0
H  H148  1  0.81698766  0.54973919  0.67463559  1  0.087719  0.000293  0.10904  0.126535  0.000108  1.028231  0.0
H  H149  1  0.26724728  0.45025817  0.82536826  1  0.11372  0.00029  0.109042  0.126498  0.000108  1.028195  0.0
H  H150  1  0.18301292  0.45025919  0.32536847  1  0.087642  0.000293  0.109055  0.126558  0.000108  1.02819  0.0
H  H151  1  0.73275496  0.54974231  0.17463457  1  0.11379  0.00029  0.109024  0.126458  0.000108  1.028297  0.0
H  H152  1  0.93669861  0.61593180  0.69572842  1  0.096386  -0.000196  0.106816  0.12923  -0.000306  0.996991  0.0
H  H153  1  0.32076550  0.38406676  0.80427500  1  0.0943  -0.000197  0.106838  0.129187  -0.000305  0.997063  0.0
H  H154  1  0.06330067  0.38406520  0.30427603  1  0.096346  -0.000196  0.106804  0.129147  -0.000305  0.997104  0.0
H  H155  1  0.67923456  0.61593302  0.19572953  1  0.094374  -0.000197  0.106821  0.129182  -0.000306  0.997082  0.0
H  H156  1  0.87323030  0.67389064  0.67936455  1  0.054602  0.000109  0.100676  0.115691  2.1e-05  0.999204  0.0
H  H157  1  0.19934053  0.32610746  0.82063499  1  0.052106  0.000109  0.100665  0.115659  2.2e-05  0.999258  0.0
H  H158  1  0.12677037  0.32610915  0.32063782  1  0.05515  0.000109  0.100674  0.115667  2.2e-05  0.99921  0.0
H  H159  1  0.80066327  0.67389371  0.17936829  1  0.052115  0.000109  0.100681  0.115677  2.2e-05  0.999219  0.0
C  C160  1  0.61759224  0.32923495  0.95058895  1  1.557804  -0.009123  0.214693  0.589425  -0.011626  4.172392  -0.008
C  C161  1  0.28836018  0.67076059  0.54940360  1  1.562469  -0.009175  0.214471  0.589122  -0.011628  4.172599  -0.008
C  C162  1  0.38240177  0.67076003  0.04940417  1  1.557567  -0.009125  0.214524  0.589198  -0.011629  4.172466  -0.008
C  C163  1  0.71164027  0.32923510  0.45058738  1  1.562801  -0.009169  0.214726  0.589388  -0.011622  4.172449  -0.008
C  C164  1  0.65398774  0.27073391  0.97531535  1  -0.018313  0.010091  -0.021244  -0.044204  0.005177  3.968031  0.008
C  C165  1  0.38325713  0.72926357  0.52467594  1  -0.018739  0.010121  -0.021183  -0.043999  0.005178  3.967992  0.008
C  C166  1  0.34600957  0.72926523  0.02467877  1  -0.018491  0.010092  -0.0212  -0.043975  0.005178  3.968111  0.008
C  C167  1  0.61674358  0.27073141  0.47531632  1  -0.019408  0.010121  -0.021209  -0.044198  0.005178  3.968083  0.008
C  C168  1  0.74146280  0.28216831  0.95966987  1  -0.085059  -0.003045  -0.086381  -0.082903  -0.003512  3.992335  -0.002
C  C169  1  0.45929531  0.71782692  0.54031959  1  -0.1191  -0.003053  -0.086336  -0.083088  -0.003511  3.992417  -0.002
C  C170  1  0.25853460  0.71782736  0.04032328  1  -0.08523  -0.003045  -0.086375  -0.0831  -0.003512  3.992472  -0.002
C  C171  1  0.54070141  0.28216253  0.45967077  1  -0.118931  -0.003052  -0.086416  -0.082981  -0.003511  3.992292  -0.002
C  C172  1  0.77287676  0.22466583  0.98110632  1  0.001007  0.001479  -0.099497  -0.202674  0.000543  4.008128  0.001
C  C173  1  0.54821328  0.77532996  0.51888445  1  0.015638  0.001482  -0.099526  -0.202553  0.000543  4.008159  0.001
C  C174  1  0.22711934  0.77532846  0.01888722  1  0.000822  0.001479  -0.099522  -0.20258  0.000543  4.008281  0.001
C  C175  1  0.45178656  0.22466086  0.48110899  1  0.015857  0.001482  -0.099456  -0.202571  0.000543  4.008172  0.001
C  C176  1  0.71495905  0.15413758  0.01732993  1  0.365283  -0.004202  0.078491  0.247916  -0.004776  4.067501  -0.003
C  C177  1  0.56082647  0.84586011  0.48266211  1  0.374133  -0.00421  0.078569  0.247993  -0.004775  4.06717  -0.003
C  C178  1  0.28503670  0.84585601  0.98266359  1  0.365025  -0.004201  0.078507  0.2479  -0.004775  4.067195  -0.003
C  C179  1  0.43917510  0.15413417  0.51733273  1  0.373515  -0.004209  0.078496  0.247906  -0.004774  4.067542  -0.003
C  C180  1  0.62798715  0.14209210  0.03384261  1  -0.01554  0.001476  -0.099061  -0.201942  0.000567  4.00453  0.001
C  C181  1  0.48589940  0.85791130  0.46615265  1  -0.027153  0.001476  -0.099118  -0.202012  0.000567  4.004463  0.001
C  C182  1  0.37201450  0.85790841  0.96615285  1  -0.015304  0.001476  -0.099098  -0.20186  0.000567  4.004385  0.001
C  C183  1  0.51410146  0.14208643  0.53384402  1  -0.026967  0.001476  -0.099084  -0.201855  0.000567  4.004278  0.001
C  C184  1  0.59831890  0.20124466  0.01326870  1  -0.01344  -0.002492  -0.081957  -0.064872  -0.002942  3.959721  -0.001
C  C185  1  0.39707750  0.79875057  0.48672331  1  -0.030834  -0.00248  -0.081954  -0.064869  -0.002941  3.959855  -0.001
C  C186  1  0.40167683  0.79875377  0.98672756  1  -0.013176  -0.002491  -0.081974  -0.064977  -0.00294  3.959889  -0.001
C  C187  1  0.60292269  0.20124095  0.51326885  1  -0.030086  -0.00248  -0.08203  -0.065131  -0.002941  3.959855  -0.001
C  C188  1  0.60171986  0.73597594  0.93431827  1  1.500269  0.00103  0.207846  0.582886  -0.000556  4.157223  0.001
C  C189  1  0.86574547  0.26401890  0.56568892  1  1.502919  0.00096  0.20784  0.582932  -0.000563  4.157051  0.001
C  C190  1  0.39827056  0.26401550  0.06568646  1  1.500218  0.001028  0.207879  0.582961  -0.000558  4.156842  0.001
C  C191  1  0.13425528  0.73597740  0.43431725  1  1.503067  0.000965  0.207883  0.583048  -0.000558  4.1571  0.001
C  C192  1  0.64177584  0.83135553  0.96028621  1  0.049876  0.002752  -0.028895  -0.062224  0.0013  3.998561  0.002
C  C193  1  0.81041659  0.16864421  0.53971635  1  0.004937  0.002762  -0.028828  -0.062259  0.0013  3.998526  0.002
C  C194  1  0.35821998  0.16863455  0.03971544  1  0.049912  0.002751  -0.028878  -0.062265  0.0013  3.998599  0.002
C  C195  1  0.18957713  0.83135628  0.46028560  1  0.004866  0.002763  -0.02887  -0.062226  0.0013  3.998642  0.002
C  C196  1  0.63750804  0.90077865  0.92987617  1  -0.029783  4e-06  -0.086724  -0.071597  -0.000344  4.015364  0.0
C  C197  1  0.73672478  0.09921842  0.57012416  1  -0.048584  -2e-05  -0.086712  -0.071534  -0.000345  4.015314  0.0
C  C198  1  0.36249327  0.09921145  0.07012245  1  -0.030119  3e-06  -0.086765  -0.071521  -0.000344  4.015248  0.0
C  C199  1  0.26327025  0.90077861  0.42987552  1  -0.048772  -2e-05  -0.086705  -0.071497  -0.000345  4.015325  0.0
C  C200  1  0.67057946  0.98930995  0.95492957  1  -0.029638  0.000495  -0.116115  -0.231705  0.000132  4.030105  0.0
C  C201  1  0.68126692  0.01068575  0.54506986  1  0.019648  0.000498  -0.116117  -0.231834  0.000132  4.029838  0.0
C  C202  1  0.32941654  0.01067806  0.04506986  1  -0.03008  0.000495  -0.116136  -0.231849  0.000132  4.029884  0.0
C  C203  1  0.31872768  0.98930919  0.45493063  1  0.01972  0.000497  -0.116148  -0.231838  0.000132  4.030095  0.0
C  C204  1  0.71018859  0.00940745  0.01105214  1  0.324525  -0.001337  0.086936  0.273026  -0.001577  4.047794  -0.001
C  C205  1  0.70078319  0.99059214  0.48894643  1  0.382003  -0.001339  0.087034  0.273262  -0.001578  4.047681  -0.001
C  C206  1  0.28980932  0.99058681  0.98894530  1  0.3255  -0.001337  0.086931  0.273038  -0.001577  4.047781  -0.001
C  C207  1  0.29921141  0.00940282  0.51105189  1  0.382454  -0.001338  0.086954  0.273121  -0.001578  4.047802  -0.001
C  C208  1  0.71771188  0.94184252  0.04133204  1  0.036129  0.000604  -0.1052  -0.203398  0.000234  3.988473  0.001
C  C209  1  0.77587189  0.05816044  0.45866879  1  -0.011319  0.000605  -0.105279  -0.203576  0.000234  3.988527  0.001
C  C210  1  0.28228820  0.05815244  0.95866629  1  0.035768  0.000604  -0.105303  -0.203688  0.000234  3.988559  0.001
C  C211  1  0.22412035  0.94184075  0.54133189  1  -0.011231  0.000605  -0.105162  -0.203362  0.000234  3.988244  0.001
C  C212  1  0.68321588  0.85347659  0.01597790  1  -0.076614  -0.000134  -0.081303  -0.06181  -0.000608  3.961096  0.0
C  C213  1  0.82973848  0.14652633  0.48402465  1  -0.063617  -0.000135  -0.081279  -0.061761  -0.000609  3.96098  0.0
C  C214  1  0.31678107  0.14651696  0.98402298  1  -0.076399  -0.000134  -0.081181  -0.061664  -0.000608  3.960831  0.0
C  C215  1  0.17025220  0.85347416  0.51597600  1  -0.063774  -0.000135  -0.081322  -0.061898  -0.000609  3.961186  0.0
C  C216  1  0.38747947  0.28286769  0.86222489  1  1.55318  -0.009895  0.211372  0.578821  -0.012529  4.196947  -0.008
C  C217  1  0.10460951  0.71713731  0.63777233  1  1.537758  -0.009854  0.211407  0.578863  -0.012536  4.196893  -0.008
C  C218  1  0.61252765  0.71713282  0.13777187  1  1.553677  -0.009898  0.211325  0.578711  -0.012532  4.197033  -0.008
C  C219  1  0.89538534  0.28286666  0.36222582  1  1.538214  -0.009848  0.211315  0.578872  -0.012529  4.196971  -0.008
C  C220  1  0.29960852  0.21108268  0.83185805  1  0.04092  0.010034  -0.024895  -0.059557  0.005181  3.989931  0.008
C  C221  1  0.08852084  0.78891897  0.66813692  1  0.013376  0.010003  -0.024953  -0.059569  0.00518  3.989998  0.008
C  C222  1  0.70039686  0.78891436  0.16813817  1  0.040585  0.010033  -0.024968  -0.059484  0.00518  3.989909  0.008
C  C223  1  0.91147002  0.21107944  0.33186324  1  0.013205  0.010006  -0.024974  -0.059725  0.005181  3.99007  0.008
C  C224  1  0.21177865  0.17989869  0.85690182  1  -0.103813  -0.001921  -0.080556  -0.074959  -0.002483  3.999891  -0.001
C  C225  1  0.03186870  0.82009825  0.64309607  1  -0.051142  -0.001956  -0.080622  -0.075023  -0.002483  3.999706  -0.001
C  C226  1  0.78822976  0.82009833  0.14309873  1  -0.103588  -0.001921  -0.080591  -0.074997  -0.002482  3.999771  -0.001
C  C227  1  0.96811963  0.17989876  0.35690622  1  -0.051875  -0.001956  -0.080519  -0.074886  -0.002484  3.999606  -0.001
C  C228  1  0.13071784  0.10962952  0.82943715  1  -0.004335  0.001405  -0.104605  -0.215204  0.000555  4.010826  0.001
C  C229  1  0.02107004  0.89035919  0.67056311  1  0.040445  0.001404  -0.104665  -0.21513  0.000555  4.010656  0.001
C  C230  1  0.86928719  0.89036194  0.17056541  1  -0.004223  0.001406  -0.104637  -0.215132  0.000555  4.010923  0.001
C  C231  1  0.97891379  0.10963368  0.32943689  1  0.040161  0.001403  -0.104603  -0.215142  0.000555  4.010815  0.001
C  C232  1  0.13800263  0.07155997  0.77602954  1  0.335512  -0.003516  0.080516  0.254245  -0.00402  4.067661  -0.002
C  C233  1  0.06642752  0.92842452  0.72396972  1  0.331004  -0.003507  0.080569  0.254213  -0.004022  4.067639  -0.002
C  C234  1  0.86199650  0.92842942  0.22397122  1  0.335184  -0.003516  0.080548  0.254235  -0.004021  4.067927  -0.002
C  C235  1  0.93355961  0.07156764  0.27603069  1  0.331354  -0.003505  0.080577  0.254356  -0.00402  4.067877  -0.002
C  C236  1  0.22452785  0.10511345  0.74898363  1  0.010754  0.001244  -0.102837  -0.213375  0.000447  4.019593  0.001
C  C237  1  0.11940654  0.89488270  0.75101206  1  -0.008854  0.001243  -0.10289  -0.213487  0.000447  4.019778  0.001
C  C238  1  0.77547284  0.89488151  0.25101383  1  0.010302  0.001244  -0.102852  -0.213366  0.000447  4.019678  0.001
C  C239  1  0.88058632  0.10511849  0.24898689  1  -0.008373  0.001243  -0.102936  -0.213557  0.000447  4.019822  0.001
C  C240  1  0.30490459  0.17388427  0.77734378  1  -0.035678  -0.002201  -0.080538  -0.068106  -0.002656  3.982778  -0.001
C  C241  1  0.13101523  0.82611525  0.72265199  1  -0.030587  -0.002194  -0.080472  -0.068038  -0.002659  3.982709  -0.001
C  C242  1  0.69509732  0.82611069  0.22265368  1  -0.035014  -0.002203  -0.080457  -0.068099  -0.002658  3.982692  -0.001
C  C243  1  0.86897467  0.17388246  0.27734902  1  -0.031155  -0.002191  -0.080462  -0.06796  -0.002656  3.982725  -0.001
C  C244  1  0.36853767  0.49782865  0.94056375  1  1.552538  0.012573  0.223446  0.599388  0.008338  4.143078  0.01
C  C245  1  0.87071580  0.50218239  0.55944524  1  1.557683  0.012542  0.223468  0.599774  0.008338  4.143037  0.01
C  C246  1  0.63146341  0.50218291  0.05944243  1  1.552312  0.012581  0.223342  0.599513  0.008339  4.143084  0.01
C  C247  1  0.12929397  0.49783195  0.44056059  1  1.557659  0.012542  0.223545  0.599609  0.008339  4.142927  0.01
C  C248  1  0.27015022  0.46272593  0.95856027  1  -0.026601  0.004755  -0.019129  -0.046529  0.002181  3.964906  0.003
C  C249  1  0.80742068  0.53727696  0.54144938  1  -0.08385  0.004792  -0.019098  -0.046507  0.002181  3.964946  0.003
C  C250  1  0.72985253  0.53727801  0.04144396  1  -0.026425  0.004754  -0.019076  -0.0464  0.002181  3.964877  0.003
C  C251  1  0.19257875  0.46272766  0.45855747  1  -0.083979  0.004792  -0.019111  -0.046462  0.002181  3.964935  0.003
C  C252  1  0.21629176  0.50079957  0.93894585  1  -0.017276  0.003765  -0.079584  -0.072535  0.001787  3.97389  0.002
C  C253  1  0.71548876  0.49920695  0.56106262  1  -0.036825  0.003758  -0.079523  -0.072516  0.001788  3.97381  0.002
C  C254  1  0.78371195  0.49920506  0.06105753  1  -0.017131  0.003765  -0.079589  -0.072606  0.001788  3.973863  0.002
C  C255  1  0.28450981  0.50079836  0.43894294  1  -0.036823  0.003757  -0.079621  -0.072564  0.001787  3.973939  0.002
C  C256  1  0.12784223  0.47268932  0.96144849  1  0.030518  -0.000542  -0.098517  -0.191305  -0.000668  3.979163  0.0
C  C257  1  0.65515179  0.52731876  0.53856005  1  0.00229  -0.000539  -0.098558  -0.19143  -0.000668  3.979298  0.0
C  C258  1  0.87216018  0.52731393  0.03855398  1  0.030714  -0.000542  -0.098471  -0.191172  -0.000668  3.979191  0.0
C  C259  1  0.34484808  0.47268795  0.46144598  1  0.002156  -0.000539  -0.098492  -0.191345  -0.000668  3.979243  0.0
C  C260  1  0.09367928  0.40556113  0.00308844  1  0.356666  0.002647  0.081878  0.253037  0.001376  4.053803  0.002
C  C261  1  0.68812104  0.59444674  0.49691870  1  0.378731  0.002643  0.081902  0.253133  0.001377  4.053833  0.002
C  C262  1  0.90631939  0.59444074  0.99691269  1  0.356651  0.002648  0.08189  0.253033  0.001377  4.053866  0.002
C  C263  1  0.31188015  0.40555650  0.50308594  1  0.378854  0.002642  0.081905  0.253119  0.001377  4.053862  0.002
C  C264  1  0.14420155  0.36330516  0.02096504  1  -0.036166  -0.000252  -0.095772  -0.192174  -0.000434  3.992846  0.0
C  C265  1  0.78089551  0.63669424  0.47903923  1  -0.015342  -0.000259  -0.095798  -0.192192  -0.000434  3.992929  0.0
C  C266  1  0.85579409  0.63669186  0.97903464  1  -0.036381  -0.000252  -0.095769  -0.19212  -0.000434  3.992956  0.0
C  C267  1  0.21910281  0.36330693  0.52096448  1  -0.015989  -0.000259  -0.095795  -0.192193  -0.000434  3.992867  0.0
C  C268  1  0.23272363  0.39246655  0.99893482  1  -0.029385  0.002839  -0.078365  -0.066892  0.001344  3.934946  0.002
C  C269  1  0.84025288  0.60753358  0.50107344  1  -0.05165  0.002835  -0.078403  -0.066989  0.001345  3.935167  0.002
C  C270  1  0.76727687  0.60753532  0.00106761  1  -0.029652  0.00284  -0.078419  -0.067044  0.001344  3.935108  0.002
C  C271  1  0.15974430  0.39246896  0.49893291  1  -0.051457  0.002834  -0.078413  -0.067008  0.001344  3.935094  0.002
C  C272  1  0.97906337  0.49476673  0.25658657  1  1.5539  -0.003226  0.209596  0.584555  -0.004742  4.201482  -0.002
C  C273  1  0.48428961  0.50522862  0.24341664  1  1.541552  -0.00327  0.209631  0.584606  -0.004744  4.20131  -0.002
C  C274  1  0.02094199  0.50523515  0.74341369  1  1.553962  -0.003221  0.209609  0.584484  -0.004739  4.201484  -0.002
C  C275  1  0.51570689  0.49476771  0.75658476  1  1.541668  -0.003274  0.209585  0.584554  -0.004747  4.201484  -0.002
C  C276  1  0.98939133  0.46678006  0.19600893  1  -0.02751  0.009331  -0.034183  -0.074234  0.00472  4.008628  0.007
C  C277  1  0.52260482  0.53321592  0.30399473  1  -0.017339  0.009326  -0.034185  -0.074409  0.004719  4.00856  0.007
C  C278  1  0.01061308  0.53322598  0.80399016  1  -0.027241  0.009328  -0.034117  -0.074043  0.004718  4.008414  0.007
C  C279  1  0.47739212  0.46678248  0.69600760  1  -0.017215  0.009329  -0.03419  -0.074387  0.00472  4.008466  0.007
C  C280  1  0.07547533  0.50874371  0.16811811  1  -0.043627  -0.00078  -0.086806  -0.066009  -0.001317  3.996644  -0.001
C  C281  1  0.56672776  0.49125393  0.33188486  1  -0.016782  -0.000783  -0.086838  -0.066032  -0.001315  3.996689  -0.001
C  C282  1  0.92452917  0.49126372  0.83188058  1  -0.044243  -0.000777  -0.086851  -0.066156  -0.001314  3.996756  -0.001
C  C283  1  0.43327283  0.50874933  0.66811588  1  -0.016923  -0.000786  -0.086874  -0.066002  -0.001318  3.996527  -0.001
C  C284  1  0.08430326  0.48046853  0.11197931  1  -0.018587  0.001192  -0.108278  -0.222818  0.000481  3.991763  0.001
C  C285  1  0.60383843  0.51953393  0.38802119  1  -0.017265  0.001185  -0.108195  -0.222607  0.000481  3.991753  0.001
C  C286  1  0.91569681  0.51953614  0.88801843  1  -0.01832  0.001192  -0.108302  -0.222824  0.000481  3.991884  0.001
C  C287  1  0.39616842  0.48047211  0.61197833  1  -0.016417  0.001186  -0.108232  -0.222733  0.000482  3.991682  0.001
C  C288  1  0.00494946  0.40886461  0.08308183  1  0.329651  -0.001808  0.087612  0.264166  -0.002026  4.042598  -0.001
C  C289  1  0.59609153  0.59113863  0.41692044  1  0.345956  -0.001806  0.087633  0.264101  -0.002025  4.0424  -0.001
C  C290  1  0.99504991  0.59113866  0.91691804  1  0.329706  -0.001805  0.087594  0.264168  -0.002023  4.042477  -0.001
C  C291  1  0.40391366  0.40886532  0.58308162  1  0.345307  -0.001808  0.0876  0.264059  -0.002028  4.042549  -0.001
C  C292  1  0.91813175  0.36535567  0.11034895  1  0.001752  0.000939  -0.105451  -0.208455  0.000376  4.001444  0.001
C  C293  1  0.55277584  0.63464453  0.38965354  1  -0.024635  0.000937  -0.105433  -0.208326  0.000376  4.00112  0.001
C  C294  1  0.08187144  0.63464551  0.88965216  1  0.001709  0.000938  -0.105497  -0.208471  0.000376  4.001325  0.001
C  C295  1  0.44722431  0.36535665  0.61034801  1  -0.030042  0.000939  -0.105424  -0.208342  0.000376  4.001324  0.001
C  C296  1  0.91077619  0.39459793  0.16632656  1  -0.078904  -0.001187  -0.084357  -0.075897  -0.001536  3.986782  -0.001
C  C297  1  0.51617740  0.60540162  0.33367548  1  -0.036285  -0.001178  -0.084402  -0.075907  -0.001536  3.986733  -0.001
C  C298  1  0.08922770  0.60540949  0.83367343  1  -0.078791  -0.001185  -0.084402  -0.076043  -0.001535  3.98691  -0.001
C  C299  1  0.48382327  0.39459818  0.66632516  1  -0.036948  -0.00118  -0.084358  -0.075784  -0.001538  3.98675  -0.001
C  C300  1  0.67497646  0.29520909  0.78648992  1  1.361358  -0.001303  0.175711  0.290648  -0.002057  4.096331  -0.001
C  C301  1  0.37977719  0.70479733  0.71351159  1  1.369093  -0.001282  0.175599  0.290421  -0.002054  4.096202  -0.001
C  C302  1  0.32502125  0.70479695  0.21351003  1  1.361252  -0.001301  0.175642  0.292007  -0.002051  4.09617  -0.001
C  C303  1  0.62023069  0.29520592  0.28649044  1  1.370235  -0.001285  0.175744  0.290744  -0.002056  4.096401  -0.001
C  C304  1  0.68225340  0.27498330  0.68244274  1  0.281626  0.000635  -0.13344  -0.268202  0.000344  3.873095  0.0
C  C305  1  0.40727424  0.72502240  0.81755875  1  0.271834  0.000634  -0.133462  -0.268284  0.000344  3.872957  0.0
C  C306  1  0.31775092  0.72502134  0.31755890  1  0.281672  0.000635  -0.133524  -0.268374  0.000344  3.873189  0.0
C  C307  1  0.59272721  0.27498017  0.18244283  1  0.271822  0.000634  -0.133414  -0.268174  0.000344  3.873051  0.0
C  C308  1  0.76727687  0.22651350  0.75051164  1  0.243622  0.001023  -0.127742  -0.273354  0.000567  3.927661  0.001
C  C309  1  0.54077265  0.77349403  0.74948900  1  0.323554  0.001011  -0.127782  -0.273559  0.000567  3.927715  0.001
C  C310  1  0.23272370  0.77349461  0.24948967  1  0.243905  0.001022  -0.127724  -0.273319  0.000567  3.927611  0.001
C  C311  1  0.45923575  0.22651270  0.25051183  1  0.323441  0.001012  -0.127714  -0.273288  0.000567  3.927602  0.001
C  C312  1  0.76569442  0.53544851  0.77763957  1  1.332561  -0.00186  0.177362  0.293428  -0.002518  4.071641  -0.002
C  C313  1  0.23025212  0.46455106  0.72235872  1  1.338563  -0.001841  0.177294  0.293331  -0.002516  4.071659  -0.002
C  C314  1  0.23430104  0.46455059  0.22236061  1  1.332635  -0.001859  0.177346  0.293484  -0.002517  4.071776  -0.002
C  C315  1  0.76974952  0.53544458  0.27764136  1  1.337874  -0.001842  0.177401  0.293454  -0.002518  4.071522  -0.002
C  C316  1  0.90474705  0.68561598  0.79840903  1  0.253982  0.000809  -0.133632  -0.271664  0.000506  3.892787  0.0
C  C317  1  0.21913915  0.31438691  0.70159063  1  0.237868  0.000811  -0.133632  -0.271603  0.000506  3.892707  0.0
C  C318  1  0.09524997  0.31438381  0.20159333  1  0.253297  0.000809  -0.133643  -0.271702  0.000506  3.892582  0.0
C  C319  1  0.78086466  0.68560941  0.29841120  1  0.238342  0.000811  -0.133624  -0.271601  0.000506  3.892762  0.0
C  C320  1  0.86846802  0.61240025  0.69878323  1  0.254085  0.000913  -0.133664  -0.275979  0.00041  3.893858  0.001
C  C321  1  0.25606754  0.38759916  0.80121763  1  0.230992  0.000918  -0.133622  -0.275777  0.00041  3.893891  0.001
C  C322  1  0.13153361  0.38760023  0.30121872  1  0.253663  0.000913  -0.133645  -0.275886  0.00041  3.893983  0.001
C  C323  1  0.74393313  0.61240062  0.19878430  1  0.230904  0.000918  -0.133623  -0.275804  0.00041  3.893918  0.001
N  N324  1  0.70474383  0.26363361  0.74172817  1  -1.211618  0.002023  -0.280121  0.028727  0.000588  3.715975  0.002
N  N325  1  0.44112040  0.73637410  0.75827293  1  -1.223895  0.002035  -0.28001  0.028947  0.000588  3.715751  0.002
N  N326  1  0.29525579  0.73637381  0.25827312  1  -1.211703  0.002024  -0.279992  0.0291  0.000588  3.714991  0.002
N  N327  1  0.55889009  0.26363193  0.24172875  1  -1.225312  0.002035  -0.280143  0.028657  0.000588  3.716062  0.002
N  N328  1  0.84203719  0.60904193  0.75911192  1  -1.224457  0.001485  -0.278381  0.037239  0.000374  3.730986  0.001
N  N329  1  0.23300192  0.39095894  0.74088856  1  -1.219049  0.001476  -0.278271  0.037328  0.000375  3.730905  0.001
N  N330  1  0.15795922  0.39095786  0.24089044  1  -1.224694  0.001486  -0.278354  0.037295  0.000375  3.730946  0.001
N  N331  1  0.76700007  0.60903739  0.25911284  1  -1.218849  0.001475  -0.278332  0.037333  0.000374  3.730859  0.001
O  O332  1  0.54898975  0.32958545  0.97573161  1  -1.152634  0.070431  -0.302867  -0.565173  0.036174  2.417391  0.064
O  O333  1  0.21940320  0.67040815  0.52426437  1  -1.150586  0.070504  -0.302849  -0.565131  0.036178  2.417264  0.064
O  O334  1  0.45100443  0.67040744  0.02426275  1  -1.152644  0.070438  -0.302875  -0.565157  0.036179  2.417311  0.064
O  O335  1  0.78059438  0.32958544  0.47572958  1  -1.150598  0.070495  -0.302948  -0.565249  0.036172  2.4174  0.064
O  O336  1  0.65730238  0.37307047  0.90513951  1  -1.161205  0.07314  -0.317694  -0.579165  0.037779  2.374985  0.062
O  O337  1  0.28423698  0.62692920  0.59485316  1  -1.157677  0.073121  -0.317437  -0.578874  0.037776  2.37513  0.062
O  O338  1  0.34269267  0.62692660  0.09485368  1  -1.160988  0.073137  -0.317491  -0.578719  0.037775  2.374507  0.062
O  O339  1  0.71576512  0.37306857  0.40513832  1  -1.157954  0.073119  -0.317589  -0.578952  0.037778  2.374913  0.062
O  O340  1  0.74526003  0.09569188  0.03875358  1  -1.104708  -0.000692  -0.166686  -0.23434  -0.000517  2.526469  0.0
O  O341  1  0.64957407  0.90431120  0.46124379  1  -1.098361  -0.000683  -0.166816  -0.234495  -0.000518  2.526567  0.0
O  O342  1  0.25474023  0.90430586  0.96124222  1  -1.104874  -0.000692  -0.166708  -0.234318  -0.000517  2.526361  0.0
O  O343  1  0.35042661  0.09568860  0.53875511  1  -1.098187  -0.000682  -0.166738  -0.234416  -0.000517  2.526524  0.0
O  O344  1  0.59587258  0.66912218  0.96332577  1  -1.172274  0.075394  -0.307604  -0.58244  0.039521  2.367874  0.061
O  O345  1  0.92675431  0.33087953  0.53668333  1  -1.174395  0.075416  -0.30762  -0.582508  0.039524  2.367771  0.061
O  O346  1  0.40412410  0.33087206  0.03667730  1  -1.172053  0.075383  -0.30761  -0.582468  0.039515  2.36786  0.061
O  O347  1  0.07325252  0.66912161  0.46332471  1  -1.174607  0.075419  -0.307597  -0.582525  0.039525  2.36791  0.061
O  O348  1  0.57401818  0.72129887  0.88099864  1  -1.138281  0.094196  -0.317881  -0.5604  0.047895  2.299908  0.077
O  O349  1  0.85271945  0.27869046  0.61900969  1  -1.138944  0.094218  -0.317892  -0.560419  0.047887  2.299679  0.077
O  O350  1  0.42597119  0.27869049  0.11900776  1  -1.138228  0.094177  -0.317893  -0.560463  0.047888  2.299552  0.077
O  O351  1  0.14728443  0.72130236  0.38099768  1  -1.138872  0.094237  -0.317919  -0.560456  0.047895  2.299748  0.077
O  O352  1  0.37830019  0.32354607  0.90782221  1  -1.157718  0.074144  -0.31035  -0.564151  0.038194  2.404489  0.066
O  O353  1  0.05475930  0.67646248  0.59217079  1  -1.159546  0.074166  -0.310377  -0.564236  0.038203  2.404593  0.066
O  O354  1  0.62170424  0.67646001  0.09217081  1  -1.158005  0.074162  -0.310376  -0.564189  0.038201  2.404656  0.066
O  O355  1  0.94524512  0.32354846  0.40782150  1  -1.159732  0.074148  -0.310281  -0.564169  0.038193  2.404509  0.066
O  O356  1  0.46472463  0.29735862  0.84093193  1  -1.147775  0.067917  -0.314173  -0.570837  0.034555  2.387131  0.061
O  O357  1  0.16737445  0.70265596  0.65905949  1  -1.148147  0.06789  -0.314175  -0.570837  0.034548  2.386924  0.061
O  O358  1  0.53528249  0.70265163  0.15905991  1  -1.148058  0.067902  -0.314117  -0.570756  0.034546  2.386857  0.061
O  O359  1  0.83262875  0.29735497  0.34093454  1  -1.147957  0.067899  -0.314163  -0.570842  0.034557  2.38717  0.061
O  O360  1  0.05686297  0.99999751  0.74999754  1  -1.101879  -0.001084  -0.166386  -0.233939  -0.000897  2.519237  -0.001
O  O361  1  0.94313224  0.00000231  0.24999833  1  -1.101541  -0.001084  -0.16645  -0.2341  -0.000897  2.519446  -0.001
O  O362  1  0.42142620  0.48667392  0.97688302  1  -1.185916  0.067391  -0.320737  -0.631257  0.036428  2.591876  0.049
O  O363  1  0.93475324  0.51333493  0.52312069  1  -1.189278  0.06742  -0.320722  -0.631449  0.036429  2.592051  0.049
O  O364  1  0.57857654  0.51333489  0.02311831  1  -1.185753  0.0674  -0.320628  -0.631296  0.036431  2.591914  0.049
O  O365  1  0.06525176  0.48668081  0.47688084  1  -1.189403  0.067416  -0.320808  -0.631457  0.036431  2.591961  0.049
O  O366  1  0.39692221  0.53681670  0.89275724  1  -1.144097  0.08725  -0.292446  -0.540903  0.044397  2.344245  0.074
O  O367  1  0.86012068  0.46319987  0.60725104  1  -1.145259  0.087156  -0.292495  -0.541177  0.044391  2.344219  0.074
O  O368  1  0.60307591  0.46319625  0.10724811  1  -1.144146  0.087234  -0.292506  -0.541133  0.044393  2.344259  0.074
O  O369  1  0.13989786  0.53681863  0.39275360  1  -1.145239  0.087182  -0.292468  -0.541007  0.044401  2.344316  0.074
O  O370  1  0.00610283  0.37880880  0.02660372  1  -1.102645  2.9e-05  -0.159269  -0.22866  -0.000158  2.542927  0.0
O  O371  1  0.62729680  0.62119579  0.47339945  1  -1.102923  3e-05  -0.159383  -0.2288  -0.000158  2.54295  0.0
O  O372  1  0.99389724  0.62119100  0.97339691  1  -1.102625  3e-05  -0.159253  -0.228682  -0.000157  2.542953  0.0
O  O373  1  0.37270404  0.37880677  0.52660300  1  -1.102987  2.8e-05  -0.159269  -0.228656  -0.000158  2.542983  0.0
O  O374  1  0.05286404  0.55193925  0.28612841  1  -1.163361  0.083395  -0.322413  -0.57851  0.042598  2.344155  0.069
O  O375  1  0.50093344  0.44806961  0.21387100  1  -1.15681  0.083393  -0.322383  -0.578489  0.042605  2.344213  0.069
O  O376  1  0.94713680  0.44807304  0.71387042  1  -1.163192  0.083404  -0.32241  -0.578485  0.042608  2.344212  0.069
O  O377  1  0.49907835  0.55193782  0.78612900  1  -1.156832  0.083386  -0.322424  -0.578466  0.0426  2.344205  0.069
O  O378  1  0.89605271  0.45895048  0.27491723  1  -1.171354  0.061378  -0.317753  -0.583387  0.031739  2.47191  0.051
O  O379  1  0.43708593  0.54103528  0.22508875  1  -1.167393  0.061389  -0.317882  -0.583477  0.031728  2.471862  0.051
O  O380  1  0.10395085  0.54103196  0.72508637  1  -1.171363  0.061352  -0.31785  -0.583451  0.031724  2.471891  0.051
O  O381  1  0.56289694  0.45894716  0.77491528  1  -1.167474  0.061413  -0.317768  -0.583426  0.031742  2.47192  0.051
O  O382  1  0.56938018  0.49363219  0.90280439  1  -1.192121  0.214294  -0.558163  -0.913628  0.117595  2.429766  0.183
O  O383  1  0.07574999  0.50637127  0.59718886  1  -1.168019  0.214251  -0.558118  -0.913615  0.117589  2.429646  0.183
O  O384  1  0.43061686  0.50636764  0.09719061  1  -1.192025  0.214294  -0.558138  -0.913611  0.117592  2.429824  0.183
O  O385  1  0.92425400  0.49363272  0.40280583  1  -1.167959  0.21425  -0.558163  -0.913656  0.117593  2.429719  0.183
O  O386  1  0.69461767  0.66113050  0.85313393  1  -1.204081  0.040277  -0.571499  -0.750867  0.019822  2.09192  0.033
O  O387  1  0.03347933  0.33887282  0.64686884  1  -1.19469  0.040427  -0.57151  -0.750842  0.019825  2.0922  0.033
O  O388  1  0.30539300  0.33887345  0.14686813  1  -1.204093  0.040282  -0.571533  -0.750895  0.019825  2.092062  0.033
O  O389  1  0.96651656  0.66112835  0.35313357  1  -1.193721  0.040414  -0.571444  -0.750846  0.019821  2.092046  0.033
O  O390  1  0.62735194  0.33431919  0.78016044  1  -1.140048  0.047126  -0.28807  -0.452187  0.024874  2.433917  0.04
O  O391  1  0.29304282  0.66569224  0.71984038  1  -1.14752  0.047116  -0.288011  -0.452108  0.024863  2.433878  0.04
O  O392  1  0.37265238  0.66569518  0.21983802  1  -1.139804  0.047107  -0.288053  -0.452028  0.024863  2.432902  0.04
O  O393  1  0.70696505  0.33431586  0.28016267  1  -1.147529  0.047139  -0.288088  -0.452219  0.024875  2.43398  0.04
O  O394  1  0.73801166  0.52701483  0.82926238  1  -1.168572  0.043114  -0.292372  -0.4748  0.022509  2.425592  0.037
O  O395  1  0.21100954  0.47298411  0.67073503  1  -1.165203  0.043109  -0.292394  -0.474794  0.022502  2.425456  0.037
O  O396  1  0.26197911  0.47298219  0.17073817  1  -1.168409  0.0431  -0.292434  -0.474911  0.022504  2.42562  0.037
O  O397  1  0.78899193  0.52700876  0.32926540  1  -1.164809  0.043115  -0.29244  -0.474867  0.022507  2.42535  0.037
