# generated using pymatgen
data_CoH16C24(NO2)2
_symmetry_space_group_name_H-M   'P 1'
_cell_length_a   14.36873377
_cell_length_b   18.07392058
_cell_length_c   19.06070155
_cell_angle_alpha   90.00008483
_cell_angle_beta   89.99997981
_cell_angle_gamma   89.99997527
_symmetry_Int_Tables_number   1
_chemical_formula_structural   CoH16C24(NO2)2
_chemical_formula_sum   'Co8 H128 C192 N16 O32'
_cell_volume   4950.05185993
_cell_formula_units_Z   8
loop_
 _symmetry_equiv_pos_site_id
 _symmetry_equiv_pos_as_xyz
  1  'x, y, z'
loop_
 _atom_site_type_symbol
 _atom_site_label
 _atom_site_symmetry_multiplicity
 _atom_site_fract_x
 _atom_site_fract_y
 _atom_site_fract_z
 _atom_site_occupancy
 _atom_site_pbe_bader_charge
 _atom_site_pbe_bader_spin_density
 _atom_site_pbe_cm5_charge
 _atom_site_pbe_ddec_charge
 _atom_site_pbe_ddec_spin_density
 _atom_site_pbe_ddec_sum_bond_order
 _atom_site_pbe_magmom
Co  Co0  1  0.97609668  0.90635013  0.94176752  1  1.288245  2.605637  0.676681  0.881395  2.845403  2.491294  2.584
Co  Co1  1  0.02390511  0.59365184  0.44176747  1  1.288171  2.60564  0.676637  0.88131  2.845412  2.491359  2.584
Co  Co2  1  0.52390825  0.40634677  0.05823259  1  1.288284  2.605642  0.676684  0.88139  2.845445  2.491423  2.584
Co  Co3  1  0.47609190  0.09365408  0.55823444  1  1.288212  2.605635  0.676663  0.881412  2.845428  2.491352  2.584
Co  Co4  1  0.02390882  0.09365653  0.05823611  1  1.288258  2.605642  0.676654  0.881398  2.845437  2.49145  2.584
Co  Co5  1  0.97609134  0.40634431  0.55823564  1  1.288244  2.605638  0.676633  0.881327  2.845432  2.491463  2.584
Co  Co6  1  0.47609307  0.59365381  0.94176527  1  1.288269  2.605624  0.67663  0.881345  2.845402  2.491259  2.584
Co  Co7  1  0.52390664  0.90634705  0.44176552  1  1.288282  2.60563  0.676658  0.88137  2.845412  2.491342  2.584
H  H8  1  0.28030218  0.62991588  0.02723287  1  0.16352  0.000112  0.105649  0.122136  -6e-05  1.05994  0.0
H  H9  1  0.71969980  0.87008323  0.52723452  1  0.163537  0.000112  0.105662  0.12215  -6e-05  1.059964  0.0
H  H10  1  0.21969899  0.12991775  0.97276541  1  0.163576  0.000112  0.105667  0.122111  -6e-05  1.059953  0.0
H  H11  1  0.78029680  0.37008319  0.47276712  1  0.163561  0.000112  0.105638  0.122083  -6e-05  1.059943  0.0
H  H12  1  0.71970679  0.37008636  0.97276656  1  0.163626  0.000112  0.105671  0.122133  -6e-05  1.059949  0.0
H  H13  1  0.28029665  0.12991458  0.47276649  1  0.163602  0.000112  0.105644  0.122112  -6e-05  1.059947  0.0
H  H14  1  0.78030164  0.87008283  0.02723455  1  0.163536  0.000112  0.105675  0.122178  -6e-05  1.059916  0.0
H  H15  1  0.21970104  0.62991739  0.52723389  1  0.163547  0.000112  0.105655  0.122155  -6e-05  1.059949  0.0
H  H16  1  0.93249933  0.70177459  0.78580460  1  0.049052  0.000501  0.103541  0.103458  0.000273  1.020867  0.0
H  H17  1  0.06749697  0.79822326  0.28580430  1  0.048971  0.000501  0.103543  0.103465  0.000273  1.020774  0.0
H  H18  1  0.56750015  0.20177478  0.21419575  1  0.049039  0.000501  0.103536  0.103451  0.000273  1.020852  0.0
H  H19  1  0.43249924  0.29822466  0.71419632  1  0.049069  0.000501  0.103546  0.103465  0.000273  1.020845  0.0
H  H20  1  0.06750060  0.29822433  0.21419693  1  0.049044  0.000501  0.103555  0.103465  0.000273  1.02087  0.0
H  H21  1  0.93249809  0.20177455  0.71419671  1  0.049074  0.000501  0.103555  0.103494  0.000273  1.02089  0.0
H  H22  1  0.43250048  0.79822525  0.78580369  1  0.049014  0.000501  0.103531  0.103451  0.000273  1.020836  0.0
H  H23  1  0.56750069  0.70177371  0.28580417  1  0.049048  0.000501  0.103545  0.103495  0.000273  1.020838  0.0
H  H24  1  0.19863733  0.56529314  0.27263986  1  0.090723  1.8e-05  0.096719  0.096075  -8.5e-05  1.036149  0.0
H  H25  1  0.80136037  0.93470857  0.77264052  1  0.090688  1.8e-05  0.096718  0.096051  -8.5e-05  1.036132  0.0
H  H26  1  0.30136179  0.06529128  0.72735623  1  0.090661  1.8e-05  0.096708  0.096043  -8.6e-05  1.036103  0.0
H  H27  1  0.69863620  0.43470652  0.22735753  1  0.090664  1.8e-05  0.096711  0.096038  -8.6e-05  1.036177  0.0
H  H28  1  0.80136469  0.43470800  0.72735800  1  0.090528  1.8e-05  0.096694  0.09604  -8.5e-05  1.036201  0.0
H  H29  1  0.19863747  0.06529256  0.22735734  1  0.090645  1.8e-05  0.096713  0.096067  -8.5e-05  1.03611  0.0
H  H30  1  0.69863814  0.93470709  0.27264058  1  0.090705  1.8e-05  0.096705  0.096036  -8.5e-05  1.036182  0.0
H  H31  1  0.30135886  0.56529351  0.77264191  1  0.090516  1.8e-05  0.09671  0.096048  -8.5e-05  1.036145  0.0
H  H32  1  0.01899303  0.47944494  0.69670501  1  0.146784  0.001261  0.118524  0.088442  0.000274  1.007208  0.001
H  H33  1  0.98100428  0.02055778  0.19670513  1  0.146697  0.001261  0.118494  0.088411  0.000274  1.007158  0.001
H  H34  1  0.48100725  0.97944177  0.30329533  1  0.146719  0.001261  0.118512  0.088413  0.000274  1.007209  0.001
H  H35  1  0.51899182  0.52055722  0.80329654  1  0.146754  0.001261  0.118525  0.088441  0.000274  1.007224  0.001
H  H36  1  0.98100829  0.52055674  0.30329914  1  0.146788  0.001261  0.118546  0.088456  0.000274  1.007211  0.001
H  H37  1  0.01899357  0.97944446  0.80329850  1  0.146803  0.001261  0.118519  0.08847  0.000274  1.007163  0.001
H  H38  1  0.51899268  0.02055715  0.69670253  1  0.146741  0.001261  0.118515  0.088406  0.000274  1.007238  0.001
H  H39  1  0.48100950  0.47944226  0.19670237  1  0.146762  0.001261  0.118543  0.08846  0.000274  1.007202  0.001
H  H40  1  0.95780153  0.58028240  0.77225307  1  0.087164  0.00087  0.110476  0.118724  0.000405  0.99091  0.0
H  H41  1  0.04219338  0.91972041  0.27225190  1  0.08715  0.00087  0.110493  0.118783  0.000405  0.990922  0.0
H  H42  1  0.54219662  0.08027984  0.22774659  1  0.08714  0.00087  0.110506  0.118761  0.000405  0.990917  0.0
H  H43  1  0.45780276  0.41971961  0.72774732  1  0.087164  0.00087  0.110484  0.118731  0.000405  0.9909  0.0
H  H44  1  0.04219631  0.41971929  0.22774846  1  0.087189  0.00087  0.110473  0.118711  0.000405  0.990886  0.0
H  H45  1  0.95780376  0.08028127  0.72774754  1  0.087176  0.00087  0.110461  0.118716  0.000405  0.990911  0.0
H  H46  1  0.45780400  0.91971963  0.77225128  1  0.087187  0.00087  0.11047  0.118714  0.000405  0.990921  0.0
H  H47  1  0.54219787  0.58027931  0.27225212  1  0.087189  0.00087  0.110458  0.118693  0.000405  0.990938  0.0
H  H48  1  0.73092353  0.60345770  0.62507176  1  0.088455  0.000865  0.107477  0.112555  0.000415  1.002338  0.0
H  H49  1  0.26907215  0.89654156  0.12507364  1  0.088598  0.000865  0.10747  0.112532  0.000415  1.002427  0.0
H  H50  1  0.76907461  0.10345696  0.37492898  1  0.088496  0.000865  0.107483  0.112603  0.000415  1.002317  0.0
H  H51  1  0.23092540  0.39654272  0.87493027  1  0.088357  0.000865  0.1075  0.112585  0.000415  1.002311  0.0
H  H52  1  0.26907849  0.39654509  0.37492873  1  0.088458  0.000865  0.10749  0.112567  0.000415  1.002339  0.0
H  H53  1  0.73092221  0.10345570  0.87493000  1  0.088448  0.000865  0.107509  0.112563  0.000415  1.002308  0.0
H  H54  1  0.23092532  0.89654251  0.62507045  1  0.088543  0.000865  0.107488  0.112579  0.000415  1.002335  0.0
H  H55  1  0.76907801  0.60345620  0.12507127  1  0.088443  0.000865  0.107494  0.112542  0.000415  1.002338  0.0
H  H56  1  0.58884830  0.72878651  0.80364032  1  0.132137  0.000263  0.100963  0.113668  0.00014  1.035024  0.0
H  H57  1  0.41115077  0.77121635  0.30363884  1  0.132191  0.000263  0.10093  0.113665  0.00014  1.035024  0.0
H  H58  1  0.91115325  0.22878268  0.19636112  1  0.13212  0.000263  0.100936  0.113673  0.00014  1.035056  0.0
H  H59  1  0.08884545  0.27121728  0.69636174  1  0.132101  0.000263  0.10092  0.113694  0.00014  1.035032  0.0
H  H60  1  0.41115372  0.27121683  0.19635964  1  0.132226  0.000263  0.10093  0.113716  0.00014  1.035002  0.0
H  H61  1  0.58884568  0.22878257  0.69636217  1  0.132111  0.000263  0.100914  0.113648  0.00014  1.035071  0.0
H  H62  1  0.08884599  0.77121680  0.80363936  1  0.132132  0.000263  0.100922  0.113675  0.00014  1.035053  0.0
H  H63  1  0.91115448  0.72878109  0.30363979  1  0.132203  0.000263  0.100928  0.1137  0.00014  1.035011  0.0
H  H64  1  0.93615811  0.81093408  0.07007341  1  0.101775  0.001548  0.114523  0.085868  0.000362  1.011432  0.001
H  H65  1  0.06384177  0.68906510  0.57007498  1  0.101729  0.001548  0.114519  0.085884  0.000362  1.011435  0.001
H  H66  1  0.56384549  0.31093483  0.92992499  1  0.101851  0.001549  0.114532  0.085919  0.000362  1.011443  0.001
H  H67  1  0.43615450  0.18906328  0.42992654  1  0.101668  0.001548  0.11454  0.085915  0.000362  1.011457  0.001
H  H68  1  0.06384669  0.18906429  0.92992602  1  0.101797  0.001548  0.11454  0.085918  0.000362  1.011456  0.001
H  H69  1  0.93615468  0.31093437  0.42992603  1  0.101829  0.001548  0.114539  0.085905  0.000362  1.011483  0.001
H  H70  1  0.43615723  0.68906575  0.07007444  1  0.101758  0.001548  0.114522  0.085876  0.000362  1.011456  0.001
H  H71  1  0.56384335  0.81093453  0.57007447  1  0.101723  0.001548  0.114543  0.085933  0.000362  1.011467  0.001
H  H72  1  0.31531640  0.48958011  0.20689562  1  0.083198  0.00019  0.09843  0.096303  7e-06  1.030675  0.0
H  H73  1  0.68468160  0.01041987  0.70689625  1  0.083213  0.00019  0.098432  0.096283  7e-06  1.030694  0.0
H  H74  1  0.18468249  0.98958445  0.79310159  1  0.083264  0.000189  0.098446  0.096319  7e-06  1.030679  0.0
H  H75  1  0.81531729  0.51041674  0.29310279  1  0.08325  0.00019  0.098451  0.096321  7e-06  1.030683  0.0
H  H76  1  0.68468423  0.51041881  0.79310224  1  0.083125  0.00019  0.098444  0.096307  7e-06  1.030669  0.0
H  H77  1  0.31531764  0.98958126  0.29310161  1  0.083196  0.00019  0.098431  0.096294  7e-06  1.030714  0.0
H  H78  1  0.81531883  0.01042001  0.20689575  1  0.083218  0.00019  0.098434  0.096299  8e-06  1.030688  0.0
H  H79  1  0.18467916  0.48958218  0.70689560  1  0.083215  0.00019  0.098444  0.096319  8e-06  1.030647  0.0
H  H80  1  0.16734902  0.83961268  0.94383833  1  0.143195  0.001314  0.117293  0.095549  0.000177  1.013295  0.001
H  H81  1  0.83265207  0.66038708  0.44383973  1  0.143246  0.001314  0.117291  0.09554  0.000177  1.013306  0.001
H  H82  1  0.33265412  0.33961031  0.05615972  1  0.143289  0.001314  0.1173  0.095537  0.000177  1.013371  0.001
H  H83  1  0.66734673  0.16038832  0.55615951  1  0.143272  0.001314  0.117306  0.095535  0.000177  1.013331  0.001
H  H84  1  0.83265230  0.16038956  0.05615953  1  0.143287  0.001314  0.117298  0.095513  0.000177  1.013353  0.001
H  H85  1  0.16734647  0.33961018  0.55616075  1  0.14327  0.001314  0.117297  0.095524  0.000177  1.013361  0.001
H  H86  1  0.66734790  0.66038695  0.94383919  1  0.143212  0.001314  0.117291  0.095542  0.000177  1.013332  0.001
H  H87  1  0.33265250  0.83961281  0.44383940  1  0.143248  0.001314  0.117294  0.095542  0.000177  1.013319  0.001
H  H88  1  0.25548578  0.74211399  0.00676939  1  0.122262  0.000982  0.106803  0.12041  0.000514  1.02428  0.0
H  H89  1  0.74451413  0.75788619  0.50677034  1  0.12225  0.000982  0.106776  0.120383  0.000514  1.024314  0.0
H  H90  1  0.24451742  0.24211312  0.99322853  1  0.122327  0.000982  0.106804  0.120388  0.000514  1.024257  0.0
H  H91  1  0.75548183  0.25788620  0.49322851  1  0.122345  0.000982  0.10679  0.120356  0.000514  1.024299  0.0
H  H92  1  0.74452181  0.25788991  0.99322848  1  0.122304  0.000982  0.106817  0.120381  0.000514  1.024338  0.0
H  H93  1  0.25548162  0.24211051  0.49322857  1  0.122312  0.000982  0.106815  0.120387  0.000514  1.024318  0.0
H  H94  1  0.75548529  0.75788469  0.00676985  1  0.122268  0.000982  0.106776  0.12035  0.000514  1.024285  0.0
H  H95  1  0.24451531  0.74211494  0.50677197  1  0.122294  0.000982  0.1068  0.120354  0.000514  1.024308  0.0
H  H96  1  0.65534829  0.63464029  0.72462479  1  0.034689  6.2e-05  0.100543  0.094689  1.6e-05  1.008472  0.0
H  H97  1  0.34464595  0.86536355  0.22462241  1  0.035181  6.2e-05  0.100577  0.094774  1.6e-05  1.008329  0.0
H  H98  1  0.84465053  0.13463660  0.27537704  1  0.035111  6.2e-05  0.10053  0.094653  1.6e-05  1.008399  0.0
H  H99  1  0.15534883  0.36536459  0.77537778  1  0.035067  6.2e-05  0.100568  0.094736  1.6e-05  1.008352  0.0
H  H100  1  0.34465303  0.36536471  0.27537675  1  0.035076  6.2e-05  0.10057  0.094755  1.6e-05  1.008332  0.0
H  H101  1  0.65534702  0.13463426  0.77537703  1  0.035055  6.2e-05  0.100556  0.094729  1.6e-05  1.008329  0.0
H  H102  1  0.15535010  0.86536453  0.72462344  1  0.035121  6.2e-05  0.100542  0.094711  1.6e-05  1.008351  0.0
H  H103  1  0.84465180  0.63463378  0.22462375  1  0.035066  6.2e-05  0.100564  0.094737  1.6e-05  1.008354  0.0
H  H104  1  0.11686602  0.66771084  0.21441543  1  0.067897  0.000121  0.098054  0.096703  1.7e-05  1.042561  0.0
H  H105  1  0.88313449  0.83228967  0.71441750  1  0.06789  0.000121  0.098044  0.096689  1.6e-05  1.042571  0.0
H  H106  1  0.38313861  0.16770738  0.78558080  1  0.068363  0.000121  0.09801  0.096686  1.7e-05  1.042591  0.0
H  H107  1  0.61686213  0.33229050  0.28558355  1  0.068369  0.000121  0.098049  0.096701  1.7e-05  1.042622  0.0
H  H108  1  0.88314087  0.33229251  0.78558295  1  0.068332  0.000121  0.098015  0.096644  1.7e-05  1.04265  0.0
H  H109  1  0.11686266  0.16770814  0.28558245  1  0.068379  0.000121  0.098054  0.096679  1.7e-05  1.042612  0.0
H  H110  1  0.61686619  0.83228932  0.21441601  1  0.067894  0.000121  0.098055  0.096703  1.6e-05  1.042571  0.0
H  H111  1  0.38313362  0.66771119  0.71441798  1  0.067865  0.000121  0.098072  0.096781  1.7e-05  1.042512  0.0
H  H112  1  0.80054627  0.50018287  0.55693567  1  0.095758  0.001417  0.121407  0.095453  0.000194  0.984109  0.001
H  H113  1  0.19945319  0.99981632  0.05693702  1  0.095797  0.001417  0.121371  0.095398  0.000194  0.984071  0.001
H  H114  1  0.69945193  0.00018170  0.44306440  1  0.095822  0.001417  0.121417  0.095458  0.000194  0.984109  0.001
H  H115  1  0.30054805  0.49981809  0.94306476  1  0.09574  0.001417  0.121437  0.09548  0.000194  0.984074  0.001
H  H116  1  0.19945575  0.49981882  0.44306429  1  0.095721  0.001417  0.121419  0.095483  0.000194  0.984083  0.001
H  H117  1  0.80054770  0.00018153  0.94306487  1  0.095796  0.001417  0.121452  0.095481  0.000194  0.984057  0.001
H  H118  1  0.30054688  0.99981669  0.55693539  1  0.095746  0.001417  0.121436  0.095463  0.000194  0.984083  0.001
H  H119  1  0.69945536  0.50018194  0.05693415  1  0.095704  0.001417  0.121459  0.095538  0.000194  0.984009  0.001
H  H120  1  0.69464603  0.81077540  0.87370808  1  0.065842  0.000333  0.105218  0.106997  0.000147  0.997639  0.0
H  H121  1  0.30535231  0.68922702  0.37370599  1  0.06594  0.000333  0.105219  0.10697  0.000147  0.997689  0.0
H  H122  1  0.80535338  0.31077315  0.12629452  1  0.065946  0.000333  0.105229  0.106972  0.000147  0.99771  0.0
H  H123  1  0.19464604  0.18922670  0.62629447  1  0.065851  0.000333  0.105238  0.107013  0.000147  0.997658  0.0
H  H124  1  0.30534972  0.18922628  0.12629397  1  0.065953  0.000333  0.105248  0.107005  0.000148  0.997645  0.0
H  H125  1  0.69464692  0.31077412  0.62629711  1  0.065877  0.000333  0.105237  0.107008  0.000148  0.997675  0.0
H  H126  1  0.19464863  0.68922577  0.87370492  1  0.065938  0.000333  0.105236  0.106969  0.000147  0.997683  0.0
H  H127  1  0.80535458  0.81077112  0.37370601  1  0.06587  0.000333  0.105253  0.107024  0.000147  0.99767  0.0
H  H128  1  0.01341919  0.71171951  0.13881490  1  0.095715  0.000936  0.105369  0.112561  0.000448  1.006762  0.0
H  H129  1  0.98658066  0.78828143  0.63881636  1  0.095665  0.000936  0.105417  0.112619  0.000448  1.006746  0.0
H  H130  1  0.48658472  0.21172057  0.86118350  1  0.095633  0.000936  0.105404  0.112625  0.000448  1.006713  0.0
H  H131  1  0.51341460  0.28827799  0.36118516  1  0.095666  0.000936  0.105387  0.112589  0.000448  1.006745  0.0
H  H132  1  0.98658770  0.28828052  0.86118715  1  0.095667  0.000936  0.105388  0.112604  0.000448  1.006831  0.0
H  H133  1  0.01341440  0.21171970  0.36118517  1  0.095644  0.000936  0.105414  0.112622  0.000448  1.006754  0.0
H  H134  1  0.51342147  0.78828112  0.13881437  1  0.095643  0.000936  0.105387  0.112586  0.000448  1.00682  0.0
H  H135  1  0.48658185  0.71172093  0.63881637  1  0.095679  0.000936  0.105419  0.112595  0.000448  1.006709  0.0
C  C136  1  0.83859758  0.60188144  0.70519733  1  -0.003335  -0.011774  0.01195  0.110431  -0.012229  3.994196  -0.008
C  C137  1  0.16139319  0.89811905  0.20519610  1  -0.003517  -0.011774  0.011951  0.110451  -0.01223  3.994304  -0.008
C  C138  1  0.66140056  0.10188061  0.29480183  1  -0.003276  -0.011776  0.012016  0.110501  -0.01223  3.994163  -0.008
C  C139  1  0.33859878  0.39811950  0.79480361  1  -0.002937  -0.011775  0.01194  0.110383  -0.01223  3.994238  -0.008
C  C140  1  0.16140166  0.39811914  0.29480420  1  -0.002935  -0.011775  0.011935  0.110368  -0.01223  3.994202  -0.008
C  C141  1  0.83859839  0.10188153  0.79480386  1  -0.00293  -0.011776  0.011937  0.110415  -0.012231  3.99423  -0.008
C  C142  1  0.33860076  0.89812052  0.70519603  1  -0.003386  -0.011774  0.011982  0.110537  -0.012229  3.994037  -0.008
C  C143  1  0.66140184  0.60187997  0.20519635  1  -0.002927  -0.011777  0.011982  0.110389  -0.012232  3.994174  -0.008
C  C144  1  0.38024490  0.51592569  0.07489472  1  1.54067  -0.00554  0.213462  0.5718  -0.006449  4.19679  -0.002
C  C145  1  0.61975498  0.98407516  0.57489445  1  1.540695  -0.005542  0.21341  0.571697  -0.006451  4.196741  -0.002
C  C146  1  0.11975912  0.01592918  0.92510550  1  1.540715  -0.00554  0.213498  0.571872  -0.006451  4.196591  -0.002
C  C147  1  0.88024296  0.48407058  0.42510629  1  1.544844  -0.005552  0.21355  0.571944  -0.006451  4.196646  -0.002
C  C148  1  0.61975642  0.48407323  0.92510576  1  1.540497  -0.005543  0.213476  0.571799  -0.006452  4.196573  -0.002
C  C149  1  0.38024287  0.01592764  0.42510498  1  1.540434  -0.005543  0.213438  0.571773  -0.006451  4.196651  -0.002
C  C150  1  0.88024638  0.98407583  0.07489446  1  1.540718  -0.005542  0.213454  0.571786  -0.006451  4.196627  -0.002
C  C151  1  0.11975419  0.51592502  0.57489471  1  1.540717  -0.005542  0.213434  0.571757  -0.006451  4.196739  -0.002
C  C152  1  0.26075070  0.61605451  0.08089563  1  -0.036972  -0.003113  -0.086352  -0.152265  -0.003403  3.915141  -0.002
C  C153  1  0.73924779  0.88394579  0.58089572  1  -0.037104  -0.003114  -0.086361  -0.152282  -0.003403  3.915197  -0.002
C  C154  1  0.23925187  0.11605630  0.91910158  1  -0.0369  -0.003115  -0.086314  -0.152145  -0.003404  3.915155  -0.002
C  C155  1  0.76074603  0.38394401  0.41910226  1  -0.036874  -0.003114  -0.086334  -0.152231  -0.003403  3.915147  -0.002
C  C156  1  0.73925619  0.38394773  0.91910328  1  -0.036933  -0.003114  -0.086395  -0.152304  -0.003403  3.915204  -0.002
C  C157  1  0.26074519  0.11605313  0.41910214  1  -0.036876  -0.003114  -0.086344  -0.152236  -0.003403  3.915198  -0.002
C  C158  1  0.76075362  0.88394539  0.08089628  1  -0.037023  -0.003113  -0.086367  -0.152298  -0.003402  3.915147  -0.002
C  C159  1  0.23924834  0.61605657  0.58089717  1  -0.036949  -0.003114  -0.086278  -0.152213  -0.003403  3.915097  -0.002
C  C160  1  0.79885083  0.66069219  0.74946175  1  -0.006977  0.001347  -0.010062  0.052337  0.000365  4.015518  0.001
C  C161  1  0.20114200  0.83930893  0.24946095  1  -0.00727  0.001347  -0.010018  0.052281  0.000365  4.015485  0.001
C  C162  1  0.70114867  0.16069238  0.25053959  1  -0.007164  0.001347  -0.010059  0.052326  0.000365  4.015576  0.001
C  C163  1  0.29885070  0.33930877  0.75054025  1  -0.007406  0.001347  -0.010008  0.052358  0.000365  4.01545  0.001
C  C164  1  0.20114840  0.33930839  0.25054083  1  -0.007221  0.001347  -0.01002  0.052385  0.000365  4.015479  0.001
C  C165  1  0.79885097  0.16069110  0.75054059  1  -0.00723  0.001347  -0.00999  0.052395  0.000365  4.015442  0.001
C  C166  1  0.29885474  0.83930875  0.74945932  1  -0.007229  0.001347  -0.01002  0.052268  0.000365  4.015586  0.001
C  C167  1  0.70114853  0.66069015  0.24946023  1  -0.007216  0.001347  -0.010078  0.052322  0.000365  4.015435  0.001
C  C168  1  0.88138274  0.81066195  0.87471904  1  1.527859  -0.00578  0.191729  0.541882  -0.007497  4.229557  -0.007
C  C169  1  0.11861630  0.68933715  0.37471910  1  1.527876  -0.00578  0.191744  0.541981  -0.007497  4.229471  -0.007
C  C170  1  0.61861807  0.31066031  0.12528146  1  1.527831  -0.005782  0.191712  0.541828  -0.007499  4.229485  -0.007
C  C171  1  0.38138205  0.18933843  0.62528084  1  1.527865  -0.005783  0.191679  0.54179  -0.0075  4.229734  -0.007
C  C172  1  0.11861580  0.18933808  0.12528197  1  1.527744  -0.005784  0.191698  0.541795  -0.0075  4.229598  -0.007
C  C173  1  0.88138293  0.31066121  0.62528244  1  1.527773  -0.005784  0.191727  0.541774  -0.0075  4.229619  -0.007
C  C174  1  0.38138534  0.68933805  0.87471850  1  1.527762  -0.005782  0.191736  0.541876  -0.007498  4.229301  -0.007
C  C175  1  0.61861857  0.81065939  0.37471859  1  1.527889  -0.005781  0.191636  0.541704  -0.007498  4.229657  -0.007
C  C176  1  0.85699094  0.70653450  0.78955002  1  -0.027601  -0.002116  -0.081927  -0.14534  -0.002378  3.945382  -0.001
C  C177  1  0.14300536  0.79346391  0.28954916  1  -0.027622  -0.002116  -0.081903  -0.145271  -0.002378  3.945242  -0.001
C  C178  1  0.64300854  0.20653355  0.21045034  1  -0.027633  -0.002117  -0.081961  -0.145413  -0.002379  3.945425  -0.001
C  C179  1  0.35698946  0.29346532  0.71045092  1  -0.027565  -0.002117  -0.081981  -0.145388  -0.002379  3.945438  -0.001
C  C180  1  0.14300899  0.29346608  0.21045152  1  -0.027613  -0.002118  -0.081964  -0.14539  -0.002379  3.945461  -0.001
C  C181  1  0.85698970  0.20653391  0.71045080  1  -0.027606  -0.002118  -0.082  -0.145486  -0.002379  3.945506  -0.001
C  C182  1  0.35699209  0.79346648  0.78954910  1  -0.027651  -0.002116  -0.081931  -0.145352  -0.002378  3.945459  -0.001
C  C183  1  0.64300908  0.70653249  0.28954904  1  -0.027625  -0.002117  -0.081942  -0.145428  -0.002379  3.945428  -0.001
C  C184  1  0.19084125  0.65609290  0.11567456  1  -0.038463  0.001654  -0.012431  0.056897  0.000571  4.002655  0.002
C  C185  1  0.80915861  0.84390856  0.61567457  1  -0.038436  0.001654  -0.012403  0.056954  0.000572  4.002651  0.002
C  C186  1  0.30916409  0.15609295  0.88432376  1  -0.03845  0.001654  -0.012487  0.056964  0.000571  4.002443  0.002
C  C187  1  0.69083383  0.34390675  0.38432493  1  -0.038405  0.001654  -0.012387  0.057142  0.000571  4.002294  0.002
C  C188  1  0.80916773  0.34390934  0.88432645  1  -0.038299  0.001654  -0.012419  0.056964  0.000571  4.002403  0.002
C  C189  1  0.19083506  0.15609092  0.38432434  1  -0.038359  0.001654  -0.012442  0.056951  0.000571  4.002429  0.002
C  C190  1  0.69084211  0.84390763  0.11567357  1  -0.038531  0.001654  -0.012436  0.056864  0.000571  4.002722  0.002
C  C191  1  0.30915914  0.65609328  0.61567503  1  -0.038486  0.001654  -0.012474  0.056844  0.000571  4.002632  0.002
C  C192  1  0.14240552  0.71701160  0.07904164  1  -0.060181  -0.011255  0.00925  0.111348  -0.011686  3.984291  -0.007
C  C193  1  0.85759505  0.78298870  0.57904260  1  -0.060138  -0.011256  0.00921  0.111279  -0.011687  3.984072  -0.007
C  C194  1  0.35759839  0.21701279  0.92095519  1  -0.060384  -0.011257  0.009245  0.111285  -0.011689  3.984002  -0.007
C  C195  1  0.64240090  0.28298586  0.42095629  1  -0.060082  -0.011257  0.009185  0.111174  -0.011688  3.984091  -0.007
C  C196  1  0.85760277  0.28298843  0.92095727  1  -0.061159  -0.011257  0.009234  0.111322  -0.011689  3.984314  -0.007
C  C197  1  0.14240000  0.21701078  0.42095736  1  -0.060824  -0.011257  0.009203  0.11132  -0.011689  3.983983  -0.007
C  C198  1  0.64240502  0.78298724  0.07904215  1  -0.060063  -0.011254  0.009204  0.111239  -0.011685  3.984274  -0.007
C  C199  1  0.35759625  0.71701251  0.57904315  1  -0.060199  -0.011256  0.009175  0.111221  -0.011687  3.984172  -0.007
C  C200  1  0.30514362  0.55629052  0.11340698  1  -0.092699  0.008912  -0.022412  -0.03377  0.004407  4.004792  0.007
C  C201  1  0.69485693  0.94370983  0.61340716  1  -0.094033  0.008913  -0.022438  -0.0338  0.004407  4.004806  0.007
C  C202  1  0.19485898  0.05629227  0.88659172  1  -0.092594  0.008912  -0.022443  -0.033973  0.004406  4.005177  0.007
C  C203  1  0.80514172  0.44370799  0.38659300  1  -0.097019  0.008922  -0.022438  -0.033934  0.004407  4.005126  0.007
C  C204  1  0.69486118  0.44371117  0.88659298  1  -0.092602  0.008913  -0.022419  -0.03375  0.004407  4.005007  0.007
C  C205  1  0.30514091  0.05629020  0.38659175  1  -0.092595  0.008912  -0.022432  -0.03383  0.004407  4.005061  0.007
C  C206  1  0.80514304  0.94371053  0.11340719  1  -0.094025  0.008913  -0.022434  -0.033745  0.004407  4.004723  0.007
C  C207  1  0.19485682  0.55629093  0.61340801  1  -0.094107  0.008914  -0.022433  -0.03377  0.004407  4.004793  0.007
C  C208  1  0.81947752  0.76036570  0.83386165  1  -0.034555  0.003635  -0.018017  -0.026331  0.001971  3.99969  0.003
C  C209  1  0.18051946  0.73963444  0.33386071  1  -0.034584  0.003634  -0.018058  -0.026478  0.00197  3.999955  0.003
C  C210  1  0.68052193  0.26036356  0.16613931  1  -0.034472  0.003635  -0.018014  -0.026276  0.001971  3.999671  0.003
C  C211  1  0.31947748  0.23963470  0.66613877  1  -0.034593  0.003634  -0.018022  -0.026288  0.00197  3.99977  0.003
C  C212  1  0.18051963  0.23963543  0.16613936  1  -0.034498  0.003634  -0.018035  -0.026371  0.00197  3.999897  0.003
C  C213  1  0.81947769  0.26036392  0.66613977  1  -0.034433  0.003634  -0.018025  -0.026253  0.00197  3.999751  0.003
C  C214  1  0.31948078  0.73963592  0.83386065  1  -0.034227  0.003634  -0.018054  -0.026378  0.00197  3.99985  0.003
C  C215  1  0.68052245  0.76036257  0.33386014  1  -0.034451  0.003635  -0.018051  -0.026327  0.001971  3.999798  0.003
C  C216  1  0.21473618  0.57819013  0.21820378  1  -0.028368  0.001597  -0.096093  -0.081345  0.000631  4.027971  0.001
C  C217  1  0.78526293  0.92181094  0.71820495  1  -0.028411  0.001597  -0.096077  -0.081292  0.000631  4.027996  0.001
C  C218  1  0.28526641  0.07819002  0.78179443  1  -0.028377  0.001597  -0.096047  -0.081241  0.000631  4.027846  0.001
C  C219  1  0.71473364  0.42180952  0.28179518  1  -0.028302  0.001597  -0.096032  -0.081238  0.000631  4.027962  0.001
C  C220  1  0.78526862  0.42180990  0.78179460  1  -0.028215  0.001597  -0.09603  -0.081294  0.000631  4.02798  0.001
C  C221  1  0.21473421  0.07818964  0.28179448  1  -0.028371  0.001597  -0.096087  -0.081324  0.000631  4.027873  0.001
C  C222  1  0.71473631  0.92180945  0.21820448  1  -0.028367  0.001597  -0.096061  -0.081287  0.000631  4.028108  0.001
C  C223  1  0.28526420  0.57819051  0.71820478  1  -0.028207  0.001597  -0.096085  -0.081345  0.000631  4.028019  0.001
C  C224  1  0.95569213  0.50900725  0.68253124  1  0.423508  -0.008345  0.043301  0.09299  -0.008646  3.965164  -0.005
C  C225  1  0.04430561  0.99099376  0.18253227  1  0.423656  -0.008346  0.043404  0.093137  -0.008647  3.965229  -0.005
C  C226  1  0.54430815  0.00900484  0.31746884  1  0.423729  -0.008346  0.04332  0.093074  -0.008647  3.965181  -0.005
C  C227  1  0.45569119  0.49099420  0.81746862  1  0.423517  -0.008346  0.043294  0.092994  -0.008646  3.965254  -0.005
C  C228  1  0.04430850  0.49099388  0.31747029  1  0.42348  -0.008346  0.043323  0.09307  -0.008646  3.965281  -0.005
C  C229  1  0.95569293  0.00900738  0.81747084  1  0.423512  -0.008346  0.043344  0.093045  -0.008647  3.965138  -0.005
C  C230  1  0.45569248  0.99099408  0.68253060  1  0.423484  -0.008346  0.043352  0.093114  -0.008646  3.965329  -0.005
C  C231  1  0.54430944  0.50900417  0.18252819  1  0.42364  -0.008346  0.043287  0.093017  -0.008648  3.965175  -0.005
C  C232  1  0.92144274  0.56577472  0.72403868  1  -0.033723  0.00554  -0.083353  -0.17661  0.002542  3.956404  0.004
C  C233  1  0.07855220  0.93422580  0.22403857  1  -0.033291  0.00554  -0.083451  -0.176739  0.002542  3.956723  0.004
C  C234  1  0.57855612  0.06577279  0.27596043  1  -0.033738  0.00554  -0.083388  -0.17666  0.002542  3.956417  0.004
C  C235  1  0.42144254  0.43422674  0.77596119  1  -0.03382  0.00554  -0.083357  -0.17659  0.002542  3.956463  0.004
C  C236  1  0.07855650  0.43422696  0.27596285  1  -0.033789  0.00554  -0.083375  -0.176599  0.002542  3.956439  0.004
C  C237  1  0.92144286  0.06577312  0.77596192  1  -0.033828  0.00554  -0.083343  -0.176631  0.002542  3.956412  0.004
C  C238  1  0.42144451  0.93422669  0.72403743  1  -0.033312  0.00554  -0.083399  -0.176655  0.002542  3.956458  0.004
C  C239  1  0.57855669  0.56577162  0.22403772  1  -0.033756  0.005541  -0.083352  -0.176584  0.002543  3.956348  0.004
C  C240  1  0.79461599  0.57725310  0.64362981  1  -0.089974  0.004891  -0.085386  -0.182967  0.002283  3.958059  0.004
C  C241  1  0.20537898  0.92274675  0.14362964  1  -0.089948  0.004891  -0.085378  -0.183004  0.002282  3.958158  0.004
C  C242  1  0.70538216  0.07725180  0.35637037  1  -0.08993  0.004891  -0.085409  -0.183108  0.002283  3.958126  0.004
C  C243  1  0.29461716  0.42274731  0.85637167  1  -0.089857  0.004891  -0.08542  -0.183042  0.002283  3.95815  0.004
C  C244  1  0.20538533  0.42274859  0.35637068  1  -0.090009  0.004891  -0.08542  -0.183051  0.002283  3.958234  0.004
C  C245  1  0.79461538  0.07725107  0.85637032  1  -0.089959  0.004892  -0.085401  -0.182998  0.002283  3.958094  0.004
C  C246  1  0.29461777  0.92274768  0.64362802  1  -0.090025  0.004891  -0.085392  -0.183112  0.002283  3.958134  0.004
C  C247  1  0.70538486  0.57725161  0.14362881  1  -0.089961  0.004892  -0.085379  -0.182913  0.002283  3.958128  0.004
C  C248  1  0.66413886  0.72435359  0.79827429  1  -0.039598  0.001611  -0.087762  -0.073139  0.000662  3.991448  0.001
C  C249  1  0.33585882  0.77564760  0.29827283  1  -0.039642  0.001612  -0.087705  -0.073175  0.000662  3.99121  0.001
C  C250  1  0.83586269  0.22435200  0.20172872  1  -0.039571  0.001612  -0.087675  -0.073169  0.000662  3.991223  0.001
C  C251  1  0.16413670  0.27564852  0.70172880  1  -0.039545  0.001612  -0.087704  -0.073253  0.000662  3.991207  0.001
C  C252  1  0.33586246  0.27564699  0.20172725  1  -0.039629  0.001612  -0.087721  -0.073293  0.000662  3.991297  0.001
C  C253  1  0.66413763  0.22435242  0.70172870  1  -0.039551  0.001612  -0.087701  -0.073178  0.000662  3.991188  0.001
C  C254  1  0.16413863  0.77564692  0.79827229  1  -0.039511  0.001612  -0.087735  -0.07329  0.000662  3.991327  0.001
C  C255  1  0.83586392  0.72435151  0.29827326  1  -0.039683  0.001612  -0.087696  -0.073225  0.000662  3.991243  0.001
C  C256  1  0.00709921  0.79378299  0.05781637  1  0.463858  -0.00789  0.042738  0.098343  -0.008356  3.954772  -0.005
C  C257  1  0.99290137  0.70621671  0.55781771  1  0.463553  -0.00789  0.042757  0.098407  -0.008356  3.954622  -0.005
C  C258  1  0.49290326  0.29378307  0.94218267  1  0.463348  -0.007892  0.042732  0.098267  -0.008358  3.954677  -0.005
C  C259  1  0.50709602  0.20621617  0.44218265  1  0.463393  -0.007891  0.042803  0.098415  -0.008357  3.954736  -0.005
C  C260  1  0.99290559  0.20621593  0.94218307  1  0.462864  -0.00789  0.042795  0.098417  -0.008357  3.954774  -0.005
C  C261  1  0.00709508  0.29378276  0.44218277  1  0.463213  -0.007891  0.042774  0.098433  -0.008357  3.95481  -0.005
C  C262  1  0.50709876  0.70621696  0.05781677  1  0.46385  -0.007889  0.042728  0.098336  -0.008355  3.954726  -0.005
C  C263  1  0.49290321  0.79378330  0.55781784  1  0.463481  -0.00789  0.042702  0.098235  -0.008356  3.954731  -0.005
C  C264  1  0.28121527  0.53675857  0.18222186  1  -0.067588  -0.003783  -0.086852  -0.097187  -0.004084  3.970474  -0.002
C  C265  1  0.71878386  0.96324023  0.68222363  1  -0.066182  -0.003784  -0.086882  -0.097175  -0.004085  3.970607  -0.002
C  C266  1  0.21878387  0.03676075  0.81777630  1  -0.067597  -0.003785  -0.086888  -0.097185  -0.004086  3.970601  -0.002
C  C267  1  0.78121617  0.46323940  0.31777761  1  -0.067572  -0.003784  -0.086872  -0.097189  -0.004085  3.970588  -0.002
C  C268  1  0.71878745  0.46324091  0.81777653  1  -0.067438  -0.003784  -0.086908  -0.097275  -0.004085  3.970663  -0.002
C  C269  1  0.28121607  0.03675924  0.31777633  1  -0.067579  -0.003784  -0.086847  -0.097182  -0.004085  3.970556  -0.002
C  C270  1  0.78121606  0.96323983  0.18222366  1  -0.066159  -0.003783  -0.086888  -0.097221  -0.004084  3.970615  -0.002
C  C271  1  0.21878376  0.53676063  0.68222340  1  -0.066145  -0.003784  -0.086893  -0.097214  -0.004084  3.970662  -0.002
C  C272  1  0.13599344  0.80959267  0.98738918  1  0.457812  -0.00754  0.044229  0.097111  -0.008123  3.951786  -0.005
C  C273  1  0.86400764  0.69040716  0.48739009  1  0.457627  -0.00754  0.044198  0.097094  -0.008124  3.95183  -0.005
C  C274  1  0.36400972  0.30959188  0.01260988  1  0.457611  -0.00754  0.044199  0.097044  -0.008124  3.951961  -0.005
C  C275  1  0.63599115  0.19040724  0.51260972  1  0.457651  -0.007541  0.044226  0.097102  -0.008124  3.951883  -0.005
C  C276  1  0.86400788  0.19040847  0.01260921  1  0.457586  -0.00754  0.044232  0.09719  -0.008124  3.951895  -0.005
C  C277  1  0.13599090  0.30959065  0.51261040  1  0.45763  -0.007541  0.044221  0.097138  -0.008124  3.951911  -0.005
C  C278  1  0.63599369  0.69040649  0.98738903  1  0.458135  -0.007539  0.044206  0.097091  -0.008122  3.951884  -0.005
C  C279  1  0.36400808  0.80959279  0.48739024  1  0.457639  -0.00754  0.044222  0.097083  -0.008124  3.951804  -0.005
C  C280  1  0.18482401  0.75526501  0.02334067  1  -0.067011  0.005319  -0.086887  -0.181267  0.002571  3.940827  0.004
C  C281  1  0.81517659  0.74473520  0.52334159  1  -0.067011  0.00532  -0.086883  -0.181283  0.002571  3.940736  0.004
C  C282  1  0.31517988  0.25526519  0.97665726  1  -0.06708  0.00532  -0.086906  -0.181237  0.002571  3.940662  0.004
C  C283  1  0.68481939  0.24473465  0.47665725  1  -0.067156  0.00532  -0.086901  -0.181201  0.002571  3.940754  0.004
C  C284  1  0.81518288  0.24473613  0.97665719  1  -0.067027  0.005319  -0.086977  -0.181353  0.00257  3.940942  0.004
C  C285  1  0.18481917  0.25526372  0.47665732  1  -0.067064  0.00532  -0.086944  -0.181338  0.002571  3.940837  0.004
C  C286  1  0.68482214  0.74473373  0.02334112  1  -0.06714  0.00532  -0.086836  -0.181162  0.002571  3.940895  0.004
C  C287  1  0.31517776  0.75526538  0.52334271  1  -0.067111  0.00532  -0.086884  -0.181166  0.002571  3.94074  0.004
C  C288  1  0.70195990  0.67078465  0.75410221  1  -0.008155  -0.003399  -0.082461  -0.112919  -0.003546  3.955384  -0.002
C  C289  1  0.29803224  0.82921703  0.25410032  1  -0.008546  -0.003399  -0.082484  -0.112924  -0.003546  3.955073  -0.002
C  C290  1  0.79804029  0.17078259  0.24590020  1  -0.008504  -0.0034  -0.082453  -0.112788  -0.003547  3.955114  -0.002
C  C291  1  0.20195908  0.32921800  0.74590087  1  -0.008491  -0.0034  -0.082485  -0.112848  -0.003547  3.955  -0.002
C  C292  1  0.29804073  0.32921759  0.24590037  1  -0.008625  -0.003401  -0.082478  -0.112876  -0.003548  3.955019  -0.002
C  C293  1  0.70195864  0.17078245  0.74590122  1  -0.008657  -0.003401  -0.082465  -0.112843  -0.003548  3.954951  -0.002
C  C294  1  0.20196312  0.82921688  0.75409924  1  -0.00869  -0.003399  -0.082469  -0.112827  -0.003547  3.955026  -0.002
C  C295  1  0.79804155  0.67078203  0.25410014  1  -0.008625  -0.0034  -0.082492  -0.112882  -0.003548  3.955012  -0.002
C  C296  1  0.16872307  0.63645694  0.18509539  1  -0.009014  -0.00431  -0.086746  -0.118952  -0.004467  3.956301  -0.003
C  C297  1  0.83127606  0.86354353  0.68509595  1  -0.00897  -0.004311  -0.086714  -0.118944  -0.004469  3.956242  -0.003
C  C298  1  0.33127949  0.13645686  0.81490238  1  -0.009644  -0.004312  -0.086748  -0.119068  -0.004469  3.956368  -0.003
C  C299  1  0.66871846  0.36354217  0.31490410  1  -0.009816  -0.004311  -0.086844  -0.119122  -0.004468  3.956479  -0.003
C  C300  1  0.83128312  0.36354364  0.81490509  1  -0.009857  -0.004311  -0.086752  -0.118917  -0.004468  3.956388  -0.003
C  C301  1  0.16871831  0.13645595  0.31490296  1  -0.009799  -0.004311  -0.086763  -0.118966  -0.004468  3.956405  -0.003
C  C302  1  0.66872392  0.86354150  0.18509496  1  -0.008992  -0.004311  -0.086733  -0.118938  -0.004468  3.956359  -0.003
C  C303  1  0.33127660  0.63645896  0.68509638  1  -0.009023  -0.004311  -0.086775  -0.119035  -0.004468  3.956273  -0.003
C  C304  1  0.83360066  0.52010387  0.60479646  1  0.506551  -0.008002  0.049847  0.104573  -0.008764  3.945326  -0.005
C  C305  1  0.16639781  0.97989592  0.10479691  1  0.506352  -0.008002  0.049909  0.104752  -0.008763  3.945209  -0.005
C  C306  1  0.66639961  0.02010264  0.39520364  1  0.506365  -0.008002  0.049824  0.104654  -0.008764  3.94532  -0.005
C  C307  1  0.33359969  0.47989652  0.89520449  1  0.506419  -0.008002  0.049782  0.104565  -0.008764  3.945343  -0.005
C  C308  1  0.16640205  0.47989671  0.39520402  1  0.506408  -0.008003  0.049822  0.104617  -0.008764  3.945335  -0.005
C  C309  1  0.83360073  0.02010300  0.89520515  1  0.506372  -0.008003  0.049742  0.104572  -0.008765  3.945288  -0.005
C  C310  1  0.33360032  0.97989683  0.60479527  1  0.506397  -0.008002  0.049774  0.104666  -0.008763  3.945322  -0.005
C  C311  1  0.66640094  0.52010240  0.10479547  1  0.50643  -0.008004  0.049719  0.104425  -0.008765  3.945385  -0.005
C  C312  1  0.72271812  0.76894272  0.83837567  1  -0.034641  -0.002719  -0.078254  -0.08536  -0.002982  3.954174  -0.002
C  C313  1  0.27727955  0.73105854  0.33837417  1  -0.034661  -0.002719  -0.078277  -0.085282  -0.002981  3.954224  -0.002
C  C314  1  0.77728202  0.26893998  0.16162687  1  -0.034622  -0.00272  -0.078273  -0.085338  -0.002983  3.954092  -0.002
C  C315  1  0.22271739  0.23105992  0.66162636  1  -0.034512  -0.00272  -0.078245  -0.08535  -0.002983  3.954132  -0.002
C  C316  1  0.27727973  0.23106063  0.16162586  1  -0.034594  -0.002721  -0.078272  -0.085274  -0.002983  3.954198  -0.002
C  C317  1  0.72271829  0.26894094  0.66162789  1  -0.034601  -0.002721  -0.07827  -0.085402  -0.002983  3.954112  -0.002
C  C318  1  0.22272000  0.73105894  0.83837309  1  -0.034832  -0.002719  -0.078236  -0.085214  -0.002982  3.954166  -0.002
C  C319  1  0.77728184  0.76893900  0.33837360  1  -0.034553  -0.00272  -0.078268  -0.085342  -0.002983  3.954231  -0.002
C  C320  1  0.05125760  0.73871915  0.09635740  1  -0.034239  0.005528  -0.090095  -0.186501  0.002603  3.960764  0.004
C  C321  1  0.94874366  0.76128118  0.59635936  1  -0.033921  0.005528  -0.090113  -0.186546  0.002603  3.960636  0.004
C  C322  1  0.44874630  0.23872028  0.90363946  1  -0.033643  0.005528  -0.090099  -0.186492  0.002603  3.960631  0.004
C  C323  1  0.55125300  0.26127945  0.40364055  1  -0.03386  0.005528  -0.090123  -0.186517  0.002603  3.960769  0.004
C  C324  1  0.94875068  0.26127977  0.90364203  1  -0.032484  0.005528  -0.090099  -0.186534  0.002603  3.961017  0.004
C  C325  1  0.05125279  0.23871996  0.40364060  1  -0.033124  0.005529  -0.0901  -0.186566  0.002603  3.960837  0.004
C  C326  1  0.55125711  0.76128030  0.09635788  1  -0.034184  0.005527  -0.090065  -0.186439  0.002603  3.960751  0.004
C  C327  1  0.44874414  0.73872058  0.59635888  1  -0.033797  0.005528  -0.090063  -0.186384  0.002603  3.960622  0.004
N  N328  1  0.04779870  0.82868904  0.00332731  1  -1.222367  0.052828  -0.328642  -0.252764  0.02814  3.580282  0.048
N  N329  1  0.95220121  0.67131003  0.50332809  1  -1.222129  0.052829  -0.32862  -0.252761  0.028142  3.580281  0.048
N  N330  1  0.45220376  0.32868866  0.99667335  1  -1.22219  0.052828  -0.328631  -0.252701  0.028142  3.580298  0.048
N  N331  1  0.54779619  0.17131122  0.49667327  1  -1.222052  0.052831  -0.328645  -0.252793  0.028143  3.580345  0.048
N  N332  1  0.95220332  0.17131209  0.99667265  1  -1.222018  0.052832  -0.328631  -0.252812  0.028143  3.580368  0.048
N  N333  1  0.04779524  0.32868723  0.49667344  1  -1.222039  0.052831  -0.328622  -0.25276  0.028143  3.58027  0.048
N  N334  1  0.54779965  0.67131192  0.00332714  1  -1.222636  0.05283  -0.328614  -0.252748  0.028142  3.580258  0.048
N  N335  1  0.45220304  0.82868881  0.50332722  1  -1.222117  0.052829  -0.328628  -0.252741  0.028142  3.580254  0.048
N  N336  1  0.91349010  0.48627335  0.62314989  1  -1.215139  0.050225  -0.328509  -0.250492  0.026933  3.583921  0.045
N  N337  1  0.08650863  0.01372926  0.12315181  1  -1.215194  0.050223  -0.32856  -0.250662  0.026933  3.583912  0.045
N  N338  1  0.58650992  0.98627154  0.37685033  1  -1.215338  0.050222  -0.328552  -0.25064  0.026932  3.584063  0.045
N  N339  1  0.41348981  0.51372756  0.87685103  1  -1.215106  0.050223  -0.328477  -0.250498  0.026932  3.583953  0.045
N  N340  1  0.08651053  0.51372723  0.37685216  1  -1.215117  0.050221  -0.328488  -0.25056  0.026931  3.583904  0.045
N  N341  1  0.91349060  0.98627188  0.87685234  1  -1.215181  0.050221  -0.328501  -0.250574  0.026932  3.583996  0.045
N  N342  1  0.41349001  0.01372682  0.62314911  1  -1.215073  0.050226  -0.328491  -0.250584  0.026933  3.583968  0.045
N  N343  1  0.58651012  0.48627081  0.12314683  1  -1.215328  0.050221  -0.32846  -0.250467  0.026932  3.583946  0.045
O  O344  1  0.39795072  0.44881463  0.09169678  1  -1.155687  0.079162  -0.30828  -0.551123  0.041837  2.351637  0.065
O  O345  1  0.60204942  0.05118571  0.59169801  1  -1.15572  0.079158  -0.308242  -0.551054  0.041835  2.351613  0.065
O  O346  1  0.10205445  0.94881918  0.90830195  1  -1.155747  0.079148  -0.308322  -0.551115  0.041836  2.351559  0.065
O  O347  1  0.89794596  0.55118218  0.40830423  1  -1.155432  0.079151  -0.308304  -0.551071  0.041836  2.351541  0.065
O  O348  1  0.60205339  0.55118429  0.90830213  1  -1.155638  0.079158  -0.308272  -0.551092  0.041835  2.351529  0.065
O  O349  1  0.39794773  0.94881597  0.40830195  1  -1.155622  0.079162  -0.308285  -0.551103  0.041836  2.351444  0.065
O  O350  1  0.89794965  0.05118748  0.09169801  1  -1.155762  0.079157  -0.308265  -0.551109  0.041835  2.351512  0.065
O  O351  1  0.10204909  0.44881397  0.59169783  1  -1.155714  0.079157  -0.308231  -0.551056  0.041835  2.351585  0.065
O  O352  1  0.84810212  0.84419705  0.92819821  1  -1.148336  0.078757  -0.312951  -0.556874  0.040552  2.28304  0.069
O  O353  1  0.15190176  0.65580379  0.42819874  1  -1.148268  0.078752  -0.312931  -0.556868  0.04055  2.282925  0.069
O  O354  1  0.65189797  0.34419643  0.07180234  1  -1.148231  0.07876  -0.312914  -0.556806  0.040555  2.282979  0.069
O  O355  1  0.34810009  0.15580222  0.57180168  1  -1.148309  0.078758  -0.312943  -0.556819  0.040553  2.283149  0.069
O  O356  1  0.15189850  0.15580242  0.07180280  1  -1.148255  0.078759  -0.3129  -0.55675  0.040554  2.283158  0.069
O  O357  1  0.84810025  0.34419845  0.57180384  1  -1.148247  0.07876  -0.312908  -0.556751  0.040554  2.283146  0.069
O  O358  1  0.34809917  0.65580359  0.92819762  1  -1.148238  0.078754  -0.312924  -0.556841  0.040551  2.282819  0.069
O  O359  1  0.65190054  0.84419670  0.42819670  1  -1.148271  0.078755  -0.312867  -0.556708  0.040551  2.283027  0.069
O  O360  1  0.96537483  0.82171265  0.85571921  1  -1.15158  0.072682  -0.310851  -0.54452  0.03754  2.188274  0.063
O  O361  1  0.03462352  0.67828587  0.35571823  1  -1.151623  0.072681  -0.310861  -0.544556  0.037538  2.188232  0.063
O  O362  1  0.53462597  0.32171329  0.14428078  1  -1.151653  0.072686  -0.310842  -0.54451  0.037541  2.188337  0.063
O  O363  1  0.46537484  0.17828659  0.64428013  1  -1.151562  0.072688  -0.310796  -0.544489  0.037541  2.188359  0.063
O  O364  1  0.03462301  0.17828683  0.14428180  1  -1.151651  0.07269  -0.310817  -0.544483  0.037542  2.188274  0.063
O  O365  1  0.96537571  0.32171305  0.64428173  1  -1.151624  0.072688  -0.310831  -0.544463  0.037541  2.188323  0.063
O  O366  1  0.46537744  0.67828785  0.85571603  1  -1.151665  0.072681  -0.310844  -0.5445  0.037538  2.188204  0.063
O  O367  1  0.53462648  0.82171067  0.35571878  1  -1.151668  0.072684  -0.310823  -0.544471  0.037539  2.188334  0.063
O  O368  1  0.42480694  0.55143537  0.02841429  1  -1.170472  0.095462  -0.309862  -0.568992  0.050348  2.552873  0.082
O  O369  1  0.57519366  0.94856429  0.52841346  1  -1.170479  0.095465  -0.309821  -0.568926  0.050349  2.552819  0.082
O  O370  1  0.07519636  0.05143785  0.97158756  1  -1.17041  0.095461  -0.309829  -0.568994  0.050348  2.552737  0.082
O  O371  1  0.92480429  0.44856088  0.47158724  1  -1.170467  0.095461  -0.309887  -0.569073  0.050348  2.552814  0.082
O  O372  1  0.57519508  0.44856134  0.97158567  1  -1.17044  0.095468  -0.309841  -0.568958  0.05035  2.552781  0.082
O  O373  1  0.42480488  0.05143739  0.47158598  1  -1.170403  0.095462  -0.309804  -0.568946  0.050347  2.552854  0.082
O  O374  1  0.92480844  0.94856439  0.02841502  1  -1.170498  0.095466  -0.309873  -0.568971  0.050348  2.552862  0.082
O  O375  1  0.07519216  0.55143638  0.52841482  1  -1.170505  0.09547  -0.309886  -0.568987  0.050351  2.552892  0.082
