# generated using pymatgen
data_Mn2H31C40(N4O5)2
_symmetry_space_group_name_H-M   'P 1'
_cell_length_a   14.24483155
_cell_length_b   15.55899459
_cell_length_c   19.73943303
_cell_angle_alpha   89.99992758
_cell_angle_beta   94.51001776
_cell_angle_gamma   89.99994307
_symmetry_Int_Tables_number   1
_chemical_formula_structural   Mn2H31C40(N4O5)2
_chemical_formula_sum   'Mn8 H124 C160 N32 O40'
_cell_volume   4361.40770506
_cell_formula_units_Z   4
loop_
 _symmetry_equiv_pos_site_id
 _symmetry_equiv_pos_as_xyz
  1  'x, y, z'
loop_
 _atom_site_type_symbol
 _atom_site_label
 _atom_site_symmetry_multiplicity
 _atom_site_fract_x
 _atom_site_fract_y
 _atom_site_fract_z
 _atom_site_occupancy
 _atom_site_pbe_bader_charge
 _atom_site_pbe_bader_spin_density
 _atom_site_pbe_cm5_charge
 _atom_site_pbe_ddec_charge
 _atom_site_pbe_ddec_spin_density
 _atom_site_pbe_ddec_sum_bond_order
 _atom_site_pbe_magmom
Mn  Mn0  1  0.89380182  0.49351742  0.70697422  1  1.530209  4.53439  0.602632  1.009826  4.664834  2.36523  4.466
Mn  Mn1  1  0.60620069  0.99351420  0.29302535  1  1.530141  4.534405  0.602602  1.009697  4.664881  2.365291  4.466
Mn  Mn2  1  0.10620257  0.50648810  0.29302195  1  1.530113  4.534443  0.602589  1.009694  4.664915  2.365359  4.466
Mn  Mn3  1  0.39379376  0.00647910  0.70697575  1  1.530147  4.534387  0.602632  1.009781  4.664854  2.36532  4.466
Mn  Mn4  1  0.86428430  0.61270624  0.86121879  1  1.4916  4.559623  0.599289  0.961177  4.680649  2.300292  4.472
Mn  Mn5  1  0.63570948  0.11270740  0.13878261  1  1.491593  4.559596  0.599306  0.961215  4.68069  2.300291  4.472
Mn  Mn6  1  0.13571370  0.38729413  0.13878052  1  1.49157  4.559618  0.599307  0.961137  4.680651  2.300387  4.472
Mn  Mn7  1  0.36428353  0.88728912  0.86121991  1  1.491705  4.55956  0.599317  0.961231  4.680605  2.300285  4.472
H  H8  1  0.89883226  0.54774691  0.98751800  1  0.615318  0.001764  0.316823  0.390593  0.000967  0.890675  0.001
H  H9  1  0.60117081  0.04774509  0.01248052  1  0.615529  0.001763  0.316834  0.390618  0.000966  0.890661  0.001
H  H10  1  0.10116927  0.45225282  0.01248103  1  0.615513  0.001763  0.316809  0.390553  0.000967  0.8907  0.001
H  H11  1  0.39883283  0.95225335  0.98751865  1  0.6155  0.001763  0.316809  0.390591  0.000967  0.890643  0.001
H  H12  1  0.86717998  0.46649364  0.94306371  1  0.643337  0.000977  0.278435  0.333634  0.000788  1.036435  0.002
H  H13  1  0.63281767  0.96649014  0.05693354  1  0.643321  0.000977  0.27841  0.33357  0.000788  1.036533  0.002
H  H14  1  0.13281519  0.53350609  0.05693642  1  0.643329  0.000977  0.278438  0.333627  0.000788  1.036439  0.002
H  H15  1  0.36718038  0.03350638  0.94306273  1  0.643331  0.000977  0.278447  0.333672  0.000788  1.036381  0.002
H  H16  1  0.04060909  0.43653795  0.64229190  1  0.6525  0.000365  0.279524  0.362744  0.000541  0.998576  0.001
H  H17  1  0.45939234  0.93653431  0.35770724  1  0.652485  0.000365  0.279537  0.362759  0.000541  0.998538  0.001
H  H18  1  0.95938959  0.56346371  0.35770897  1  0.652483  0.000364  0.279546  0.362785  0.000541  0.998512  0.001
H  H19  1  0.54060708  0.06346221  0.64229165  1  0.65252  0.000365  0.279538  0.362772  0.000541  0.99853  0.001
H  H20  1  0.07439178  0.53141808  0.66810643  1  0.584844  0.002167  0.319906  0.397848  0.001326  0.884919  0.002
H  H21  1  0.42561292  0.03141738  0.33189484  1  0.584939  0.002167  0.319933  0.397872  0.001327  0.884929  0.002
H  H22  1  0.92561250  0.46858101  0.33189632  1  0.584901  0.002165  0.319913  0.397901  0.001325  0.884911  0.002
H  H23  1  0.57438722  0.96858107  0.66810309  1  0.584932  0.002166  0.319926  0.39788  0.001326  0.884909  0.002
H  H24  1  0.19714166  0.53442122  0.92835764  1  0.090381  0.000896  0.103295  0.108609  0.000364  1.015622  0.0
H  H25  1  0.30285105  0.03442362  0.07164437  1  0.090492  0.000896  0.103319  0.108639  0.000364  1.015484  0.0
H  H26  1  0.80285906  0.46558301  0.07164793  1  0.090181  0.000896  0.103298  0.108558  0.000364  1.015635  0.0
H  H27  1  0.69714271  0.96557803  0.92835568  1  0.090404  0.000896  0.103304  0.108648  0.000364  1.015578  0.0
H  H28  1  0.05026960  0.40267448  0.76012652  1  0.139328  0.001313  0.102772  0.091567  0.001315  1.100062  0.0
H  H29  1  0.44973543  0.90268004  0.23987035  1  0.139183  0.001315  0.102815  0.091668  0.001315  1.099997  0.0
H  H30  1  0.94973827  0.59732653  0.23987292  1  0.139095  0.001316  0.102764  0.09158  0.001315  1.100058  0.0
H  H31  1  0.55027394  0.09732162  0.76012362  1  0.139408  0.001312  0.102786  0.091627  0.001314  1.099981  0.0
H  H32  1  0.54258483  0.57270514  0.80096088  1  0.062807  0.000322  0.106792  0.107879  -5.2e-05  0.996571  0.0
H  H33  1  0.95741252  0.07270333  0.19904130  1  0.062826  0.000322  0.106739  0.107801  -5.2e-05  0.996657  0.0
H  H34  1  0.45741452  0.42729845  0.19904256  1  0.062888  0.000322  0.106719  0.107742  -5.2e-05  0.996628  0.0
H  H35  1  0.04258630  0.92730090  0.80095148  1  0.063007  0.000322  0.106722  0.10776  -5.2e-05  0.996642  0.0
H  H36  1  0.39070999  0.49736035  0.81075401  1  0.099561  0.000135  0.099081  0.098281  6.7e-05  1.044193  0.0
H  H37  1  0.10928921  0.99736116  0.18924745  1  0.099533  0.000134  0.09906  0.098263  6.7e-05  1.044276  0.0
H  H38  1  0.60929288  0.50264002  0.18924916  1  0.099475  0.000135  0.09909  0.098338  6.7e-05  1.044141  0.0
H  H39  1  0.89071166  0.00264179  0.81074900  1  0.099576  0.000135  0.099058  0.098271  6.7e-05  1.044134  0.0
H  H40  1  0.34621935  0.28217812  0.77108339  1  0.129892  0.000308  0.124807  0.0899  6.4e-05  0.994508  0.0
H  H41  1  0.15378367  0.78217689  0.22891600  1  0.129894  0.000308  0.124793  0.089819  6.4e-05  0.994555  0.0
H  H42  1  0.65378645  0.71782482  0.22891338  1  0.129912  0.000308  0.124812  0.089877  6.4e-05  0.994562  0.0
H  H43  1  0.84622065  0.21782284  0.77108524  1  0.129907  0.000308  0.124785  0.089811  6.4e-05  0.994493  0.0
H  H44  1  0.41801238  0.19285608  0.02314877  1  0.158621  0.000199  0.133834  0.110944  -0.00017  1.006008  0.0
H  H45  1  0.08197809  0.69286078  0.97684939  1  0.158576  0.000199  0.1338  0.110893  -0.000169  1.006016  0.0
H  H46  1  0.58198563  0.80713336  0.97685054  1  0.158617  0.000199  0.133812  0.110862  -0.00017  1.006096  0.0
H  H47  1  0.91801359  0.30714152  0.02314849  1  0.158498  0.000199  0.133826  0.110909  -0.00017  1.00604  0.0
H  H48  1  0.35533984  0.13700867  0.81598134  1  0.221049  0.000184  0.143745  0.127097  -0.000562  1.045563  0.0
H  H49  1  0.14466058  0.63700946  0.18401549  1  0.221237  0.000184  0.143683  0.126971  -0.000562  1.045677  0.0
H  H50  1  0.64466172  0.86298913  0.18401566  1  0.221261  0.000184  0.143701  0.127068  -0.000562  1.045594  0.0
H  H51  1  0.85533952  0.36299156  0.81598496  1  0.221152  0.000184  0.143696  0.126979  -0.000563  1.045697  0.0
H  H52  1  0.33747738  0.44174616  0.91648560  1  0.097137  6.3e-05  0.097619  0.096899  2.2e-05  1.059968  0.0
H  H53  1  0.16251910  0.94174644  0.08351422  1  0.097097  6.3e-05  0.097623  0.096884  2.2e-05  1.059893  0.0
H  H54  1  0.66252061  0.55825100  0.08351472  1  0.097111  6.3e-05  0.097603  0.096829  2.2e-05  1.059955  0.0
H  H55  1  0.83747749  0.05825136  0.91648550  1  0.09712  6.3e-05  0.097616  0.09689  2.2e-05  1.059935  0.0
H  H56  1  0.19266741  0.31779748  0.74307463  1  0.067474  9.8e-05  0.10173  0.105404  3.8e-05  1.024569  0.0
H  H57  1  0.30733845  0.81780057  0.25692086  1  0.067638  9.8e-05  0.101752  0.105377  3.8e-05  1.024631  0.0
H  H58  1  0.80733761  0.68220482  0.25692665  1  0.067507  9.8e-05  0.101756  0.105415  3.8e-05  1.024571  0.0
H  H59  1  0.69267096  0.18220238  0.74307058  1  0.06778  9.8e-05  0.10176  0.105404  3.9e-05  1.024627  0.0
H  H60  1  0.53224418  0.25324362  0.80328198  1  0.078753  0.000236  0.102329  0.105945  5e-06  1.023423  0.0
H  H61  1  0.96775729  0.75324538  0.19671269  1  0.078764  0.000236  0.102348  0.106007  5e-06  1.023431  0.0
H  H62  1  0.46775736  0.74675547  0.19671603  1  0.078752  0.000236  0.102342  0.105997  5e-06  1.023457  0.0
H  H63  1  0.03225053  0.24675950  0.80328979  1  0.078691  0.000236  0.102305  0.105951  5e-06  1.023465  0.0
H  H64  1  0.68210742  0.32946122  0.78746520  1  0.072365  0.000271  0.099373  0.093432  -8.3e-05  1.042469  0.0
H  H65  1  0.81789673  0.82945537  0.21253261  1  0.072554  0.000271  0.099403  0.093476  -8.3e-05  1.042415  0.0
H  H66  1  0.31789763  0.67054301  0.21253406  1  0.072564  0.000271  0.099408  0.093481  -8.3e-05  1.042431  0.0
H  H67  1  0.18210966  0.17053536  0.78747130  1  0.072386  0.000271  0.099412  0.093497  -8.3e-05  1.0425  0.0
H  H68  1  0.77434006  0.27956089  0.65546299  1  0.085859  0.000116  0.10318  0.105484  -0.000276  1.010042  0.0
H  H69  1  0.72565786  0.77955812  0.34453143  1  0.085932  0.000116  0.10318  0.105516  -0.000276  1.010055  0.0
H  H70  1  0.22566792  0.72043499  0.34452988  1  0.085735  0.000116  0.10314  0.105462  -0.000276  1.009954  0.0
H  H71  1  0.27433664  0.22043583  0.65546613  1  0.085794  0.000116  0.10317  0.105503  -0.000276  1.010023  0.0
H  H72  1  0.68999942  0.14795734  0.61309777  1  0.114712  0.000216  0.099015  0.112975  0.000117  1.047584  0.0
H  H73  1  0.80999443  0.64795250  0.38689701  1  0.114802  0.000216  0.098995  0.11293  0.000117  1.047552  0.0
H  H74  1  0.31000291  0.85204496  0.38689574  1  0.114654  0.000216  0.099053  0.113046  0.000117  1.047417  0.0
H  H75  1  0.18999660  0.35204337  0.61309728  1  0.114647  0.000216  0.099015  0.113019  0.000117  1.0475  0.0
H  H76  1  0.68970419  0.01139842  0.57715194  1  0.083423  0.001379  0.123804  0.080899  0.000849  0.980754  0.0
H  H77  1  0.81029753  0.51139673  0.42284552  1  0.083396  0.001379  0.123801  0.080954  0.000849  0.980746  0.0
H  H78  1  0.31030162  0.98860646  0.42284433  1  0.083267  0.00138  0.123808  0.080935  0.000849  0.980749  0.0
H  H79  1  0.18970192  0.48860300  0.57715135  1  0.083387  0.00138  0.123793  0.080934  0.000849  0.980771  0.0
H  H80  1  0.84122321  0.95651423  0.35157336  1  0.155086  0.000274  0.137442  0.103782  -0.000163  0.992905  0.0
H  H81  1  0.65878139  0.45651647  0.64842993  1  0.155175  0.000274  0.137436  0.103809  -0.000163  0.992884  0.0
H  H82  1  0.15877836  0.04348422  0.64842313  1  0.155217  0.000274  0.137361  0.103673  -0.000163  0.992825  0.0
H  H83  1  0.34122497  0.54348069  0.35157499  1  0.1551  0.000274  0.137374  0.103723  -0.000163  0.992843  0.0
H  H84  1  0.60938760  0.00424577  0.46490077  1  0.1783  0.000456  0.152301  0.128471  3e-05  0.965359  0.0
H  H85  1  0.89061339  0.50424769  0.53509918  1  0.178171  0.000456  0.152318  0.128495  3e-05  0.965325  0.0
H  H86  1  0.39061674  0.99574946  0.53509895  1  0.178141  0.000456  0.152344  0.128507  3e-05  0.965268  0.0
H  H87  1  0.10938746  0.49575076  0.46489879  1  0.17822  0.000455  0.152331  0.128508  3e-05  0.965333  0.0
H  H88  1  0.79185073  0.83464056  0.51784396  1  0.043582  8.8e-05  0.102044  0.102016  1e-06  1.024671  0.0
H  H89  1  0.70815476  0.33463917  0.48215799  1  0.043505  8.8e-05  0.102062  0.102074  1e-06  1.024649  0.0
H  H90  1  0.20815787  0.16535789  0.48215401  1  0.043385  8.8e-05  0.102052  0.102011  1e-06  1.024658  0.0
H  H91  1  0.29184179  0.66535864  0.51784375  1  0.043586  8.8e-05  0.102053  0.10205  1e-06  1.024589  0.0
H  H92  1  0.83920747  0.70615596  0.58640250  1  0.102529  0.000333  0.104914  0.108049  -0.000151  1.002446  0.0
H  H93  1  0.66079320  0.20615279  0.41360179  1  0.102449  0.000334  0.104946  0.108028  -0.000151  1.002326  0.0
H  H94  1  0.16079471  0.29384570  0.41359961  1  0.102502  0.000333  0.104955  0.10805  -0.000151  1.002355  0.0
H  H95  1  0.33919700  0.79384822  0.58640055  1  0.102482  0.000334  0.104997  0.108128  -0.000151  1.002416  0.0
H  H96  1  0.94474318  0.80682477  0.87880604  1  0.154157  0.000423  0.142583  0.110613  -5.7e-05  0.999746  0.0
H  H97  1  0.55525604  0.30682218  0.12119350  1  0.154157  0.000423  0.142619  0.110633  -5.7e-05  0.999723  0.0
H  H98  1  0.05525267  0.19317367  0.12119566  1  0.15419  0.000423  0.142591  0.110621  -5.7e-05  0.999683  0.0
H  H99  1  0.44474198  0.69317305  0.87880479  1  0.15413  0.000423  0.142594  0.110632  -5.7e-05  0.99977  0.0
H  H100  1  0.07542604  0.88321245  0.93763655  1  0.096588  5.9e-05  0.117226  0.124449  -8.2e-05  0.987256  0.0
H  H101  1  0.42456558  0.38320575  0.06236251  1  0.096681  5.9e-05  0.117256  0.124509  -8.2e-05  0.98702  0.0
H  H102  1  0.92456492  0.11678986  0.06236230  1  0.09633  5.9e-05  0.117296  0.124579  -8.2e-05  0.986962  0.0
H  H103  1  0.57543096  0.61679012  0.93763974  1  0.096341  5.9e-05  0.117276  0.124569  -8.2e-05  0.987096  0.0
H  H104  1  0.84293506  0.97856860  0.04461744  1  0.107976  0.000157  0.114864  0.129545  -0.000193  0.990466  0.0
H  H105  1  0.65706387  0.47856970  0.95538697  1  0.108054  0.000157  0.11478  0.129409  -0.000193  0.990707  0.0
H  H106  1  0.15706506  0.02143049  0.95538200  1  0.10798  0.000157  0.114895  0.129569  -0.000193  0.99059  0.0
H  H107  1  0.34292981  0.52142875  0.04461813  1  0.107878  0.000157  0.114853  0.129565  -0.000193  0.99057  0.0
H  H108  1  0.84257781  0.82793609  0.07437679  1  0.142022  0.000645  0.119464  0.118923  0.000399  1.041074  0.0
H  H109  1  0.65742135  0.32793852  0.92562475  1  0.142002  0.000645  0.119468  0.118899  0.000399  1.041069  0.0
H  H110  1  0.15742019  0.17206621  0.92562302  1  0.142055  0.000645  0.11947  0.118926  0.000399  1.041085  0.0
H  H111  1  0.34257735  0.67206313  0.07437511  1  0.141986  0.000645  0.119479  0.11894  0.000399  1.041042  0.0
H  H112  1  0.78251047  0.67387287  0.01440708  1  0.141944  0.000483  0.118162  0.114935  0.000128  1.026025  0.0
H  H113  1  0.71748747  0.17387258  0.98559403  1  0.141981  0.000483  0.118142  0.114947  0.000128  1.026079  0.0
H  H114  1  0.21748255  0.32612750  0.98559494  1  0.142246  0.000482  0.118124  0.114998  0.000128  1.026063  0.0
H  H115  1  0.28251473  0.82612522  0.01440758  1  0.141979  0.000483  0.118136  0.114986  0.000128  1.026074  0.0
H  H116  1  0.85481875  0.85745928  0.76832990  1  0.047146  0.000346  0.099729  0.096865  -0.000111  1.025424  0.0
H  H117  1  0.64517393  0.35745450  0.23167726  1  0.047273  0.000346  0.099681  0.09675  -0.000111  1.025435  0.0
H  H118  1  0.14517070  0.14254430  0.23167543  1  0.047261  0.000346  0.099729  0.096853  -0.000111  1.025471  0.0
H  H119  1  0.35482044  0.64254266  0.76832839  1  0.04719  0.000346  0.099682  0.096809  -0.000111  1.025421  0.0
H  H120  1  0.81080227  0.98847489  0.70029566  1  0.076799  0.000157  0.094752  0.095367  6.7e-05  1.038712  0.0
H  H121  1  0.68919182  0.48847767  0.29970184  1  0.076259  0.000156  0.094755  0.095393  6.7e-05  1.038642  0.0
H  H122  1  0.18918662  0.01152227  0.29970001  1  0.076308  0.000156  0.09473  0.095358  6.7e-05  1.038669  0.0
H  H123  1  0.31080546  0.51152271  0.70029843  1  0.076731  0.000157  0.094718  0.09533  6.7e-05  1.038718  0.0
H  H124  1  0.95508525  0.03580798  0.56654059  1  0.11303  0.000123  0.10437  0.10812  6.5e-05  1.015628  0.0
H  H125  1  0.54491495  0.53580395  0.43346232  1  0.113151  0.000123  0.104333  0.108095  6.5e-05  1.015603  0.0
H  H126  1  0.04492256  0.96419239  0.43346240  1  0.113423  0.000123  0.104361  0.108172  6.5e-05  1.015601  0.0
H  H127  1  0.45508302  0.46419321  0.56653901  1  0.113247  0.000123  0.104375  0.10812  6.5e-05  1.015615  0.0
H  H128  1  0.03698029  0.17102918  0.60411135  1  0.094624  9e-05  0.101972  0.102019  2.4e-05  1.01113  0.0
H  H129  1  0.46302348  0.67102548  0.39589327  1  0.094774  9e-05  0.101964  0.102013  2.4e-05  1.011199  0.0
H  H130  1  0.96302608  0.82897376  0.39589357  1  0.094759  9e-05  0.101972  0.10203  2.4e-05  1.011091  0.0
H  H131  1  0.53698155  0.32897361  0.60410700  1  0.094703  9e-05  0.10201  0.102116  2.4e-05  1.011083  0.0
C  C132  1  0.03040443  0.52977389  0.85247081  1  1.521456  0.015578  0.210475  0.572718  0.015426  4.187345  0.013
C  C133  1  0.46959393  0.02977344  0.14753055  1  1.521427  0.015581  0.210504  0.572883  0.015426  4.187226  0.013
C  C134  1  0.96959916  0.47022649  0.14753190  1  1.52133  0.015582  0.210615  0.572895  0.015428  4.187189  0.013
C  C135  1  0.53040265  0.97022693  0.85246917  1  1.521504  0.015578  0.210491  0.572738  0.015425  4.187244  0.013
C  C136  1  0.11534342  0.47582950  0.84417358  1  -0.001431  0.000329  -0.021622  -0.041402  -0.00089  3.987175  -0.001
C  C137  1  0.38465372  0.97583268  0.15582625  1  -0.001551  0.000329  -0.021613  -0.041401  -0.00089  3.987253  -0.001
C  C138  1  0.88465736  0.52417216  0.15582793  1  -0.001463  0.00033  -0.021656  -0.041522  -0.000889  3.987303  -0.001
C  C139  1  0.61534571  0.02416962  0.84417213  1  -0.00178  0.000329  -0.021583  -0.041332  -0.000889  3.98715  -0.001
C  C140  1  0.19674232  0.48633717  0.88824699  1  -0.047936  0.003911  -0.084195  -0.088715  0.002812  3.970624  0.002
C  C141  1  0.30325330  0.98634564  0.11175830  1  -0.048275  0.00391  -0.084222  -0.088717  0.002811  3.970529  0.002
C  C142  1  0.80325627  0.51366449  0.11175944  1  -0.047543  0.00391  -0.084187  -0.088611  0.002811  3.970582  0.002
C  C143  1  0.69674324  0.01365988  0.88824394  1  -0.047624  0.00391  -0.084245  -0.088789  0.002811  3.970663  0.002
C  C144  1  0.11412102  0.41336663  0.79308202  1  -0.091147  0.003934  -0.090149  -0.101029  0.0028  3.991326  0.003
C  C145  1  0.38588468  0.91336844  0.20691590  1  -0.091535  0.003934  -0.090201  -0.101198  0.0028  3.991232  0.003
C  C146  1  0.88588260  0.58663503  0.20691867  1  -0.090992  0.003934  -0.09017  -0.101063  0.002801  3.991298  0.003
C  C147  1  0.61412539  0.08662936  0.79307811  1  -0.091198  0.003932  -0.090177  -0.101127  0.002799  3.99134  0.003
C  C148  1  0.71511960  0.49908206  0.79177379  1  1.575019  0.023069  0.225518  0.588582  0.023098  4.187783  0.02
C  C149  1  0.78487514  0.99908010  0.20822628  1  1.574136  0.023079  0.225496  0.588486  0.023104  4.187791  0.02
C  C150  1  0.28488185  0.50092089  0.20822979  1  1.574725  0.023064  0.225482  0.588433  0.023096  4.188055  0.02
C  C151  1  0.21512574  0.00091770  0.79176967  1  1.574159  0.023085  0.225339  0.588241  0.023112  4.188052  0.02
C  C152  1  0.62206126  0.45577017  0.79543263  1  -0.092281  0.003131  -0.019502  -0.045263  0.001757  4.005604  0.001
C  C153  1  0.87793989  0.95576749  0.20456689  1  -0.092158  0.003132  -0.019477  -0.045078  0.001758  4.005382  0.001
C  C154  1  0.37794159  0.54423277  0.20457156  1  -0.092724  0.003132  -0.019384  -0.045086  0.001758  4.00555  0.001
C  C155  1  0.12206237  0.04423095  0.79543066  1  -0.092375  0.003132  -0.019407  -0.044992  0.001758  4.005337  0.001
C  C156  1  0.53960748  0.50268969  0.80116455  1  0.047227  0.003149  -0.082893  -0.089493  0.002291  3.993695  0.002
C  C157  1  0.96039348  0.00268917  0.19883692  1  0.047276  0.003148  -0.082806  -0.089434  0.002291  3.993655  0.002
C  C158  1  0.46039532  0.49731326  0.19884267  1  0.047393  0.003148  -0.082753  -0.089294  0.002291  3.993715  0.002
C  C159  1  0.03960878  0.99731249  0.80116064  1  0.04729  0.003149  -0.082825  -0.089385  0.002292  3.993558  0.002
C  C160  1  0.45462740  0.46004301  0.80697966  1  -0.103486  -0.000162  -0.0898  -0.127346  -0.00022  3.982749  0.0
C  C161  1  0.04537468  0.96004386  0.19302051  1  -0.103581  -0.000162  -0.089799  -0.127367  -0.00022  3.982796  0.0
C  C162  1  0.54537550  0.53995929  0.19302148  1  -0.103136  -0.000162  -0.089894  -0.127537  -0.00022  3.982801  0.0
C  C163  1  0.95462963  0.03996037  0.80698073  1  -0.103516  -0.000162  -0.089817  -0.127424  -0.00022  3.982801  0.0
C  C164  1  0.45142864  0.37034376  0.80972890  1  0.018091  0.002322  -0.003306  0.076446  0.001838  3.924667  0.001
C  C165  1  0.04857146  0.87034269  0.19026971  1  0.017538  0.002322  -0.003325  0.076388  0.001838  3.924631  0.001
C  C166  1  0.54857219  0.62965918  0.19026958  1  0.017385  0.002322  -0.003326  0.07648  0.001837  3.924738  0.001
C  C167  1  0.95143072  0.12965896  0.80973240  1  0.017448  0.002323  -0.003322  0.076433  0.001838  3.924666  0.001
C  C168  1  0.36100904  0.32056873  0.81760467  1  0.284256  0.000205  0.036855  -0.003634  0.000162  3.863225  0.0
C  C169  1  0.13899111  0.82056759  0.18239450  1  0.284138  0.000205  0.036869  -0.003325  0.000162  3.862913  0.0
C  C170  1  0.63899247  0.67943100  0.18239537  1  0.284076  0.000205  0.036835  -0.003594  0.000162  3.86324  0.0
C  C171  1  0.86101038  0.17943342  0.81760655  1  0.284068  0.000205  0.036895  -0.003261  0.000162  3.862949  0.0
C  C172  1  0.40236542  0.20091883  0.96873075  1  0.95001  0.000197  0.140843  0.125825  7.2e-05  3.999014  0.0
C  C173  1  0.09762994  0.70092440  0.03126873  1  0.949802  0.000197  0.140868  0.125794  7.2e-05  3.99903  0.0
C  C174  1  0.59763680  0.79906997  0.03126934  1  0.949984  0.000197  0.140862  0.125868  7.2e-05  3.999138  0.0
C  C175  1  0.90236310  0.29907340  0.96873177  1  0.95006  0.000197  0.140822  0.125732  7.2e-05  3.999059  0.0
C  C176  1  0.37039590  0.16946638  0.86437077  1  0.977625  0.000286  0.160385  0.08632  -0.000113  3.888012  0.0
C  C177  1  0.12959883  0.66946661  0.13562667  1  0.977238  0.000286  0.160488  0.086794  -0.000113  3.887872  0.0
C  C178  1  0.62960073  0.83053335  0.13562591  1  0.977259  0.000286  0.160419  0.086397  -0.000113  3.887926  0.0
C  C179  1  0.87040270  0.33053376  0.86437236  1  0.977346  0.000286  0.160467  0.086826  -0.000113  3.887798  0.0
C  C180  1  0.27518159  0.37452662  0.82833193  1  -0.052569  0.002581  -0.008428  0.065955  0.001995  3.956281  0.002
C  C181  1  0.22481920  0.87452928  0.17166774  1  -0.052465  0.002581  -0.008457  0.065842  0.001995  3.956204  0.002
C  C182  1  0.72481994  0.62547504  0.17166710  1  -0.052484  0.002581  -0.008469  0.06588  0.001995  3.956381  0.002
C  C183  1  0.77518018  0.12547817  0.82833368  1  -0.052549  0.00258  -0.008455  0.065766  0.001994  3.956334  0.002
C  C184  1  0.27531328  0.43498742  0.88112999  1  -0.057148  -0.000209  -0.093327  -0.13366  -0.000345  3.98527  0.0
C  C185  1  0.22468525  0.93499466  0.11887352  1  -0.057161  -0.000209  -0.093282  -0.133572  -0.000345  3.98523  0.0
C  C186  1  0.72468751  0.56501231  0.11887101  1  -0.057351  -0.000208  -0.093285  -0.133537  -0.000344  3.985249  0.0
C  C187  1  0.77531055  0.06501406  0.88113071  1  -0.057148  -0.000209  -0.093286  -0.133587  -0.000344  3.985225  0.0
C  C188  1  0.19400501  0.36426189  0.78449596  1  -0.048815  0.0001  -0.093047  -0.135457  -3.2e-05  3.98359  0.0
C  C189  1  0.30599867  0.86426440  0.21549985  1  -0.048188  0.0001  -0.093078  -0.135424  -3.2e-05  3.983575  0.0
C  C190  1  0.80599367  0.63573784  0.21550491  1  -0.048896  0.000101  -0.093023  -0.135437  -3.2e-05  3.983597  0.0
C  C191  1  0.69400717  0.13573790  0.78449389  1  -0.049132  0.000101  -0.093047  -0.135379  -3.2e-05  3.983725  0.0
C  C192  1  0.53396711  0.32330856  0.80242434  1  -0.05323  -0.000111  -0.091779  -0.130849  -0.000189  3.984797  0.0
C  C193  1  0.96603492  0.82330774  0.19757435  1  -0.052727  -0.000111  -0.091791  -0.130818  -0.000189  3.984845  0.0
C  C194  1  0.46603372  0.67669245  0.19757413  1  -0.052615  -0.000111  -0.091808  -0.130879  -0.000189  3.985024  0.0
C  C195  1  0.03396797  0.17669391  0.80242781  1  -0.052609  -0.000111  -0.091722  -0.130729  -0.000189  3.984863  0.0
C  C196  1  0.61802981  0.36563517  0.79412958  1  -0.061805  0.003037  -0.089567  -0.102526  0.0021  4.005827  0.002
C  C197  1  0.88197145  0.86563378  0.20587003  1  -0.061995  0.003036  -0.089631  -0.102725  0.0021  4.005862  0.002
C  C198  1  0.38197242  0.63436777  0.20587000  1  -0.062017  0.003036  -0.089631  -0.102671  0.002099  4.005994  0.002
C  C199  1  0.11802933  0.13436596  0.79413199  1  -0.061781  0.003037  -0.089664  -0.102825  0.002101  4.006079  0.002
C  C200  1  0.95937481  0.31354307  0.65868310  1  1.542063  0.014337  0.209442  0.57242  0.01346  4.194888  0.012
C  C201  1  0.54062298  0.81354048  0.34131685  1  1.542233  0.014334  0.209486  0.572521  0.013456  4.19497  0.012
C  C202  1  0.04062247  0.68646051  0.34131768  1  1.542273  0.014333  0.209495  0.572517  0.013455  4.194999  0.012
C  C203  1  0.45937431  0.18645861  0.65868241  1  1.541753  0.014332  0.209465  0.572521  0.013453  4.195074  0.012
C  C204  1  0.91104321  0.23266000  0.63377860  1  0.012777  0.000496  -0.020532  -0.039813  -0.000372  3.984531  0.0
C  C205  1  0.58895466  0.73265603  0.36622244  1  0.012878  0.000495  -0.020507  -0.039761  -0.000371  3.984492  0.0
C  C206  1  0.08895688  0.76734038  0.36622236  1  0.012994  0.000494  -0.020546  -0.039869  -0.000372  3.984733  0.0
C  C207  1  0.41104265  0.26734177  0.63377581  1  0.013102  0.000494  -0.020508  -0.039695  -0.000371  3.984448  0.0
C  C208  1  0.81322316  0.22583376  0.63574715  1  -0.097855  0.003465  -0.091425  -0.100168  0.002461  3.996426  0.002
C  C209  1  0.68677547  0.72583421  0.36425141  1  -0.09791  0.003464  -0.091442  -0.100202  0.00246  3.996428  0.002
C  C210  1  0.18677773  0.77416083  0.36424829  1  -0.097984  0.003465  -0.091389  -0.100208  0.002461  3.996273  0.002
C  C211  1  0.31322039  0.27416423  0.63574978  1  -0.097986  0.003463  -0.091477  -0.100343  0.00246  3.996493  0.002
C  C212  1  0.76643366  0.15171462  0.61216899  1  -0.017716  -0.000107  -0.097925  -0.148809  -0.000192  3.991173  0.0
C  C213  1  0.73356227  0.65171435  0.38782744  1  -0.017772  -0.000107  -0.097916  -0.148817  -0.000192  3.991274  0.0
C  C214  1  0.23356729  0.84828447  0.38782240  1  -0.017654  -0.000107  -0.097986  -0.148852  -0.000192  3.991034  0.0
C  C215  1  0.26643289  0.34828410  0.61217320  1  -0.017623  -0.000107  -0.097945  -0.148825  -0.000192  3.991152  0.0
C  C216  1  0.81719130  0.08247556  0.58827989  1  -0.095399  0.004537  -0.011196  0.061991  0.00353  3.958792  0.003
C  C217  1  0.68280955  0.58247658  0.41172251  1  -0.095371  0.004535  -0.011136  0.062088  0.003529  3.958874  0.003
C  C218  1  0.18281239  0.91752288  0.41171624  1  -0.095389  0.004536  -0.011193  0.061991  0.003529  3.959226  0.003
C  C219  1  0.31719125  0.41752122  0.58827850  1  -0.095283  0.004535  -0.01109  0.062058  0.003528  3.958798  0.003
C  C220  1  0.76374293  0.00130712  0.56645825  1  0.309169  0.001266  0.040037  -0.00338  0.001173  3.874059  0.0
C  C221  1  0.73625874  0.50130870  0.43354327  1  0.309261  0.001266  0.040075  -0.003503  0.001173  3.874205  0.0
C  C222  1  0.23626287  0.99868875  0.43353853  1  0.309278  0.001266  0.040033  -0.003521  0.001173  3.874317  0.0
C  C223  1  0.26374274  0.49868846  0.56645880  1  0.309195  0.001266  0.040067  -0.003494  0.001173  3.874258  0.0
C  C224  1  0.79884135  0.96874765  0.39387490  1  0.953884  0.004562  0.153057  0.141558  0.00298  3.976123  0.004
C  C225  1  0.70116118  0.46874671  0.60612520  1  0.953852  0.004561  0.153009  0.141479  0.00298  3.976241  0.004
C  C226  1  0.20116095  0.03125144  0.60612012  1  0.953765  0.004562  0.153118  0.141728  0.00298  3.976295  0.004
C  C227  1  0.29884381  0.53124981  0.39387760  1  0.953949  0.004561  0.153067  0.141567  0.002979  3.97623  0.004
C  C228  1  0.67984817  0.99251719  0.44972916  1  0.988809  0.006195  0.172668  0.087993  0.004956  3.893944  0.005
C  C229  1  0.82015363  0.49252201  0.55027087  1  0.988946  0.006194  0.172665  0.087935  0.004955  3.894017  0.005
C  C230  1  0.32015482  0.00747997  0.55026693  1  0.988425  0.006196  0.172606  0.08781  0.004956  3.893931  0.005
C  C231  1  0.17984927  0.50748029  0.44973078  1  0.988437  0.006193  0.17262  0.087869  0.004954  3.893937  0.005
C  C232  1  0.79795375  0.92070710  0.60446267  1  -0.06643  0.005756  -0.007097  0.068431  0.004515  3.950492  0.004
C  C233  1  0.70204811  0.42070714  0.39553895  1  -0.066265  0.005756  -0.007083  0.068509  0.004515  3.950435  0.004
C  C234  1  0.20205203  0.07929006  0.39553512  1  -0.066355  0.005755  -0.007072  0.0685  0.004514  3.95048  0.004
C  C235  1  0.29794631  0.57929323  0.60446366  1  -0.066565  0.005759  -0.007118  0.068423  0.004518  3.950492  0.004
C  C236  1  0.80588362  0.84089605  0.57264793  1  -0.007725  -0.001025  -0.093659  -0.137322  -0.001174  3.991899  -0.001
C  C237  1  0.69411551  0.34089476  0.42735410  1  -0.007703  -0.001025  -0.093633  -0.137333  -0.001174  3.991972  -0.001
C  C238  1  0.19412007  0.15910432  0.42734820  1  -0.007332  -0.001025  -0.093599  -0.137258  -0.001173  3.991973  -0.001
C  C239  1  0.30587818  0.65910625  0.57264999  1  -0.007681  -0.001026  -0.093616  -0.137218  -0.001175  3.99186  -0.001
C  C240  1  0.83242665  0.76835212  0.61089039  1  -0.021651  0.00585  -0.079544  -0.071766  0.004309  3.963636  0.004
C  C241  1  0.66757324  0.26835091  0.38911379  1  -0.022043  0.005849  -0.079505  -0.071675  0.004308  3.963448  0.004
C  C242  1  0.16757271  0.23164633  0.38911154  1  -0.021976  0.005847  -0.079589  -0.071753  0.004306  3.963641  0.004
C  C243  1  0.33242330  0.73164946  0.61088896  1  -0.021684  0.005852  -0.079649  -0.071994  0.00431  3.963759  0.004
C  C244  1  0.85044268  0.77391475  0.68150284  1  -0.053832  0.002109  -0.019013  -0.042453  0.000586  3.97658  0.001
C  C245  1  0.64955365  0.27391368  0.31850262  1  -0.053677  0.00211  -0.018997  -0.042387  0.000587  3.976429  0.001
C  C246  1  0.14955102  0.22608691  0.31850074  1  -0.053748  0.00211  -0.018997  -0.042298  0.000587  3.9763  0.001
C  C247  1  0.35044003  0.72608734  0.68150198  1  -0.053783  0.002108  -0.019014  -0.042318  0.000585  3.976352  0.001
C  C248  1  0.87729278  0.69549833  0.72259848  1  1.54293  0.027832  0.226036  0.603082  0.026752  4.17925  0.024
C  C249  1  0.62270440  0.19549349  0.27740458  1  1.542654  0.027839  0.225954  0.602871  0.026758  4.179094  0.024
C  C250  1  0.12270518  0.30450654  0.27740335  1  1.542607  0.02783  0.226041  0.603028  0.026749  4.179193  0.024
C  C251  1  0.37729004  0.80450496  0.72259703  1  1.542589  0.027843  0.226076  0.603105  0.026761  4.179163  0.024
C  C252  1  0.90942892  0.79057499  0.92376221  1  0.965144  0.013543  0.152019  0.103053  0.01129  3.895354  0.01
C  C253  1  0.59057171  0.29057307  0.07623794  1  0.965254  0.013543  0.151981  0.102966  0.01129  3.895502  0.01
C  C254  1  0.09056765  0.20942474  0.07623852  1  0.965486  0.013541  0.152058  0.103051  0.01129  3.895411  0.01
C  C255  1  0.40942981  0.70942344  0.92376160  1  0.965499  0.013545  0.152009  0.102973  0.011293  3.895454  0.01
C  C256  1  0.95383900  0.92207313  0.98969620  1  0.273458  0.001043  0.097204  0.158015  0.000974  4.017985  0.001
C  C257  1  0.54615648  0.42207136  0.01030754  1  0.2734  0.001043  0.097178  0.157989  0.000974  4.018068  0.001
C  C258  1  0.04615476  0.07793046  0.01030435  1  0.273709  0.001043  0.097194  0.158043  0.000974  4.018244  0.001
C  C259  1  0.45383793  0.57792451  0.98969558  1  0.273391  0.001043  0.097226  0.158062  0.000974  4.017934  0.001
C  C260  1  0.04140993  0.93474598  0.96385244  1  0.072404  0.000802  -0.078838  -0.145776  0.000551  3.99516  0.0
C  C261  1  0.45858797  0.43474315  0.03614698  1  0.07268  0.000802  -0.078894  -0.145805  0.000551  3.995371  0.0
C  C262  1  0.95858742  0.06525568  0.03614378  1  0.072823  0.000803  -0.078923  -0.145885  0.000551  3.995605  0.0
C  C263  1  0.54141142  0.56525594  0.96385394  1  0.072634  0.000803  -0.07892  -0.145941  0.000552  3.995286  0.0
C  C264  1  0.91234084  0.98714369  0.02594035  1  -0.039007  0.00064  -0.080838  -0.137685  0.000476  3.955077  0.0
C  C265  1  0.58766163  0.48714225  0.97406175  1  -0.038819  0.00064  -0.080671  -0.137371  0.000476  3.954822  0.0
C  C266  1  0.08766213  0.01286183  0.97405674  1  -0.039142  0.000641  -0.080848  -0.137626  0.000476  3.954894  0.0
C  C267  1  0.41233770  0.51285620  0.02594220  1  -0.039152  0.000641  -0.08084  -0.137768  0.000477  3.954918  0.0
C  C268  1  0.85291135  0.80083605  0.02503649  1  0.196412  0.001225  0.000745  -0.096813  0.000695  3.908572  0.001
C  C269  1  0.64708434  0.30083648  0.97496383  1  0.196472  0.001226  0.000908  -0.096493  0.000695  3.908609  0.001
C  C270  1  0.14708100  0.19916368  0.97496345  1  0.196485  0.001226  0.000937  -0.096479  0.000695  3.908617  0.001
C  C271  1  0.35291574  0.69916325  0.02503764  1  0.196491  0.001225  0.000917  -0.096555  0.000694  3.908243  0.001
C  C272  1  0.82506889  0.72457328  0.99491874  1  0.461204  0.006499  0.002252  -0.026138  0.004441  3.990895  0.005
C  C273  1  0.67492901  0.22457654  0.00508130  1  0.46119  0.0065  0.002133  -0.026452  0.004442  3.991188  0.005
C  C274  1  0.17492767  0.27542388  0.00508250  1  0.46081  0.006501  0.002111  -0.026537  0.004443  3.991015  0.005
C  C275  1  0.32507321  0.77542640  0.99491879  1  0.461047  0.006501  0.002109  -0.026505  0.004443  3.99096  0.005
C  C276  1  0.84174729  0.85373223  0.71327515  1  0.034833  0.005601  -0.086763  -0.085644  0.004137  3.992897  0.003
C  C277  1  0.65824611  0.35373312  0.28673156  1  0.034962  0.005601  -0.086786  -0.085582  0.004138  3.992987  0.003
C  C278  1  0.15824572  0.14626750  0.28672788  1  0.034723  0.0056  -0.086787  -0.085805  0.004137  3.993119  0.003
C  C279  1  0.34174616  0.64626789  0.71327345  1  0.034891  0.005604  -0.086702  -0.085647  0.00414  3.992888  0.003
C  C280  1  0.81631192  0.92642077  0.67518665  1  -0.066587  -0.00089  -0.09936  -0.145116  -0.001094  4.003038  -0.001
C  C281  1  0.68368500  0.42642480  0.32481515  1  -0.066153  -0.00089  -0.099381  -0.145206  -0.001094  4.002961  -0.001
C  C282  1  0.18368893  0.07357575  0.32481132  1  -0.066025  -0.000889  -0.099396  -0.14514  -0.001094  4.003068  -0.001
C  C283  1  0.31631013  0.57357686  0.67518751  1  -0.066492  -0.000891  -0.099365  -0.145108  -0.001095  4.003101  -0.001
C  C284  1  0.91514859  0.08908585  0.58585876  1  -0.019573  -0.000909  -0.086286  -0.120681  -0.001035  3.956062  -0.001
C  C285  1  0.58485015  0.58908052  0.41414299  1  -0.019833  -0.000908  -0.086318  -0.12077  -0.001035  3.95606  -0.001
C  C286  1  0.08485929  0.91091710  0.41413967  1  -0.020119  -0.000908  -0.08632  -0.120811  -0.001035  3.956179  -0.001
C  C287  1  0.41514855  0.41091535  0.58585687  1  -0.019856  -0.000908  -0.086365  -0.120731  -0.001035  3.956095  -0.001
C  C288  1  0.96126138  0.16443515  0.60732005  1  -0.054164  0.004445  -0.081783  -0.081922  0.00339  3.961385  0.003
C  C289  1  0.53873871  0.66442926  0.39267969  1  -0.054209  0.004444  -0.081789  -0.081894  0.003389  3.96147  0.003
C  C290  1  0.03874300  0.83556972  0.39267714  1  -0.05407  0.004445  -0.081747  -0.081848  0.003389  3.961334  0.003
C  C291  1  0.46126351  0.33556726  0.60732040  1  -0.05425  0.004444  -0.081785  -0.081995  0.003389  3.961389  0.003
N  N292  1  0.37633871  0.25542694  0.87149485  1  -0.821358  0.00039  -0.130623  0.111301  0.000321  3.755142  0.0
N  N293  1  0.12366153  0.75542912  0.12850388  1  -0.821723  0.00039  -0.13063  0.110922  0.000321  3.75502  0.0
N  N294  1  0.62366282  0.74457150  0.12850418  1  -0.821376  0.00039  -0.130584  0.111328  0.000321  3.755064  0.0
N  N295  1  0.87634423  0.24457190  0.87149542  1  -0.821195  0.000389  -0.130676  0.110807  0.000321  3.755052  0.0
N  N296  1  0.39720116  0.27693341  0.93787241  1  -0.687745  0.000142  -0.221751  -0.263101  9.5e-05  3.155211  0.0
N  N297  1  0.10279763  0.77693699  0.06212721  1  -0.687413  0.000142  -0.22177  -0.262895  9.5e-05  3.155006  0.0
N  N298  1  0.60280316  0.72305861  0.06212832  1  -0.687715  0.000142  -0.221731  -0.263104  9.5e-05  3.155329  0.0
N  N299  1  0.89720107  0.22306081  0.93787214  1  -0.687797  0.000142  -0.221719  -0.262836  9.5e-05  3.155072  0.0
N  N300  1  0.38635519  0.13300446  0.92544920  1  -1.213647  0.001206  -0.326053  -0.310488  0.000145  3.361437  0.001
N  N301  1  0.11363678  0.63300866  0.07454759  1  -1.213095  0.001207  -0.326059  -0.310669  0.000145  3.361478  0.001
N  N302  1  0.61364220  0.86698885  0.07454449  1  -1.213379  0.001207  -0.326054  -0.310486  0.000146  3.361281  0.001
N  N303  1  0.88635696  0.36698915  0.92545347  1  -1.213437  0.001207  -0.326045  -0.310608  0.000145  3.361306  0.001
N  N304  1  0.75814287  0.98975987  0.49260518  1  -0.79649  0.003756  -0.125257  0.137478  0.002448  3.74391  0.002
N  N305  1  0.74185962  0.48976098  0.50739541  1  -0.795962  0.003756  -0.125246  0.137576  0.002448  3.743952  0.002
N  N306  1  0.24186152  0.01023922  0.50739100  1  -0.796144  0.003756  -0.125111  0.137924  0.002448  3.744018  0.002
N  N307  1  0.25814187  0.51024004  0.49260615  1  -0.796069  0.003754  -0.125198  0.137759  0.002447  3.743964  0.002
N  N308  1  0.83521353  0.97468627  0.45777285  1  -0.63909  0.0023  -0.214721  -0.254739  0.001509  3.104279  0.001
N  N309  1  0.66478898  0.47468482  0.54222775  1  -0.639723  0.0023  -0.214768  -0.254822  0.001509  3.104382  0.001
N  N310  1  0.16479089  0.02531668  0.54222181  1  -0.639189  0.002299  -0.214829  -0.255066  0.001509  3.104789  0.001
N  N311  1  0.33521388  0.52531298  0.45777592  1  -0.63922  0.0023  -0.214751  -0.254874  0.001509  3.104541  0.001
N  N312  1  0.70323099  0.97928630  0.38654010  1  -1.265341  0.049626  -0.330135  -0.317673  0.035345  3.480167  0.017
N  N313  1  0.79677154  0.47928718  0.61345897  1  -1.265364  0.049623  -0.330091  -0.31759  0.035345  3.480257  0.017
N  N314  1  0.29677129  0.02071150  0.61345644  1  -1.264912  0.04962  -0.330116  -0.317625  0.035345  3.480135  0.017
N  N315  1  0.20323421  0.52071062  0.38654033  1  -1.265222  0.049619  -0.330115  -0.317635  0.035342  3.480099  0.017
N  N316  1  0.86046599  0.71909417  0.93177872  1  -1.235746  0.05382  -0.345932  -0.298424  0.035017  3.525785  0.01
N  N317  1  0.63953190  0.21909286  0.06822182  1  -1.235796  0.053817  -0.345916  -0.298299  0.035015  3.525813  0.01
N  N318  1  0.13952914  0.28090492  0.06822343  1  -1.235914  0.053822  -0.345949  -0.298295  0.035016  3.525843  0.01
N  N319  1  0.36046890  0.78090430  0.93177868  1  -1.23594  0.053833  -0.345939  -0.298362  0.035017  3.525907  0.01
N  N320  1  0.90688359  0.84220939  0.97942717  1  -1.259055  0.00531  -0.224105  0.006962  0.003198  3.81986  0.003
N  N321  1  0.59311485  0.34220692  0.02057380  1  -1.259209  0.00531  -0.224147  0.006875  0.003198  3.819879  0.003
N  N322  1  0.09311087  0.15779356  0.02057342  1  -1.259257  0.005311  -0.224142  0.006788  0.003198  3.820143  0.003
N  N323  1  0.40688524  0.65778896  0.97942666  1  -1.259075  0.005311  -0.224095  0.007039  0.003199  3.819803  0.003
O  O324  1  0.95504508  0.51507590  0.81278989  1  -1.223801  0.099022  -0.310221  -0.598078  0.074442  2.41608  0.044
O  O325  1  0.54495517  0.01507448  0.18721101  1  -1.2238  0.099033  -0.310224  -0.598103  0.074444  2.415937  0.044
O  O326  1  0.04495994  0.48492833  0.18721089  1  -1.223781  0.099048  -0.310299  -0.598189  0.074447  2.416123  0.044
O  O327  1  0.45504425  0.98492332  0.81278788  1  -1.223896  0.09904  -0.310226  -0.598056  0.074439  2.416006  0.044
O  O328  1  0.03096238  0.58680260  0.89795709  1  -1.172834  0.050862  -0.308271  -0.556423  0.036756  2.162591  0.031
O  O329  1  0.46902954  0.08680287  0.10204582  1  -1.172782  0.050853  -0.308312  -0.556558  0.036757  2.16263  0.031
O  O330  1  0.96903900  0.41319327  0.10205054  1  -1.172753  0.050868  -0.308318  -0.556437  0.036763  2.162629  0.031
O  O331  1  0.53096422  0.91319750  0.89795422  1  -1.172798  0.050861  -0.30829  -0.556472  0.036756  2.162673  0.031
O  O332  1  0.77414964  0.45936098  0.75808385  1  -1.209811  0.067598  -0.30682  -0.566833  0.048462  2.388594  0.031
O  O333  1  0.72585145  0.95935195  0.24191819  1  -1.209077  0.06758  -0.306785  -0.566683  0.048459  2.388518  0.031
O  O334  1  0.22585883  0.54065032  0.24192120  1  -1.209436  0.067579  -0.306814  -0.566708  0.048461  2.388547  0.031
O  O335  1  0.27415154  0.04064263  0.75807739  1  -1.209248  0.067607  -0.306738  -0.566633  0.04847  2.388579  0.031
O  O336  1  0.72963176  0.56994586  0.82329517  1  -1.1927  0.07293  -0.31165  -0.544053  0.048936  2.244906  0.03
O  O337  1  0.77035431  0.06994426  0.17670729  1  -1.192533  0.072943  -0.311658  -0.544096  0.048942  2.245028  0.03
O  O338  1  0.27036330  0.43005837  0.17671154  1  -1.192575  0.072918  -0.311683  -0.544038  0.048935  2.245081  0.03
O  O339  1  0.22964446  0.93005483  0.82328852  1  -1.192528  0.072956  -0.311611  -0.543987  0.048947  2.245253  0.03
O  O340  1  0.91874956  0.35691025  0.70348163  1  -1.220392  0.050615  -0.325409  -0.593437  0.035326  2.337206  0.018
O  O341  1  0.58125167  0.85690512  0.29652002  1  -1.220235  0.050608  -0.325357  -0.593359  0.035321  2.337165  0.018
O  O342  1  0.08125335  0.64309848  0.29651952  1  -1.220304  0.050606  -0.325436  -0.593379  0.035321  2.337202  0.018
O  O343  1  0.41874912  0.14309268  0.70348099  1  -1.22029  0.0506  -0.325341  -0.593432  0.03532  2.337145  0.018
O  O344  1  0.03553053  0.33561756  0.63393847  1  -1.186072  0.012867  -0.325538  -0.554025  0.008978  2.159653  0.01
O  O345  1  0.46446820  0.83561261  0.36606059  1  -1.186527  0.012863  -0.325574  -0.554147  0.008975  2.159879  0.01
O  O346  1  0.96446541  0.66438346  0.36605766  1  -1.186543  0.012862  -0.325512  -0.554064  0.008974  2.159748  0.01
O  O347  1  0.53552844  0.16438776  0.63393559  1  -1.186054  0.012862  -0.325589  -0.554127  0.008974  2.159854  0.01
O  O348  1  0.88987664  0.70432403  0.78699768  1  -1.186959  0.073147  -0.318385  -0.576931  0.05016  2.331043  0.033
O  O349  1  0.61012690  0.20431674  0.21300376  1  -1.186823  0.07316  -0.318359  -0.57683  0.050166  2.331032  0.033
O  O350  1  0.11012275  0.29568148  0.21300323  1  -1.186844  0.073146  -0.31828  -0.576792  0.050159  2.331102  0.033
O  O351  1  0.38987529  0.79568171  0.78699785  1  -1.186897  0.073158  -0.318396  -0.576938  0.05017  2.331023  0.033
O  O352  1  0.85126914  0.52964425  0.95227360  1  -1.27878  0.054918  -0.566382  -0.747091  0.03949  2.143346  0.025
O  O353  1  0.64873040  0.02964040  0.04772674  1  -1.278955  0.054911  -0.566388  -0.7471  0.039488  2.143382  0.025
O  O354  1  0.14872955  0.47035676  0.04772677  1  -1.27898  0.05492  -0.566373  -0.747038  0.039491  2.143376  0.025
O  O355  1  0.35126826  0.97035676  0.95227514  1  -1.278983  0.054915  -0.566376  -0.747136  0.039489  2.143181  0.025
O  O356  1  0.88520052  0.62542570  0.69033443  1  -1.202427  0.071426  -0.314541  -0.574253  0.050337  2.358399  0.032
O  O357  1  0.61479108  0.12542339  0.30967036  1  -1.202251  0.071428  -0.314531  -0.574209  0.050333  2.358306  0.032
O  O358  1  0.11479956  0.37457789  0.30966704  1  -1.202176  0.07142  -0.314626  -0.574309  0.050332  2.358404  0.032
O  O359  1  0.38519771  0.87457442  0.69033189  1  -1.202122  0.071425  -0.314601  -0.574309  0.05034  2.358499  0.032
O  O360  1  0.02290294  0.50033257  0.64387610  1  -1.25781  0.052799  -0.567698  -0.764118  0.03886  2.058515  0.024
O  O361  1  0.47710185  0.00032792  0.35612216  1  -1.257838  0.052799  -0.567736  -0.764138  0.03886  2.058497  0.024
O  O362  1  0.97709564  0.49966973  0.35613084  1  -1.257845  0.052788  -0.567732  -0.764213  0.038852  2.058392  0.024
O  O363  1  0.52289902  0.99966988  0.64387379  1  -1.257882  0.052787  -0.567738  -0.76417  0.038852  2.058419  0.024
