# generated using pymatgen
data_Ni4H33C40N5O17
_symmetry_space_group_name_H-M   'P 1'
_cell_length_a   12.87869782
_cell_length_b   18.56722121
_cell_length_c   21.86348368
_cell_angle_alpha   90.00000720
_cell_angle_beta   102.66349379
_cell_angle_gamma   90.00044849
_symmetry_Int_Tables_number   1
_chemical_formula_structural   Ni4H33C40N5O17
_chemical_formula_sum   'Ni16 H132 C160 N20 O68'
_cell_volume   5100.85698323
_cell_formula_units_Z   4
loop_
 _symmetry_equiv_pos_site_id
 _symmetry_equiv_pos_as_xyz
  1  'x, y, z'
loop_
 _atom_site_type_symbol
 _atom_site_label
 _atom_site_symmetry_multiplicity
 _atom_site_fract_x
 _atom_site_fract_y
 _atom_site_fract_z
 _atom_site_occupancy
 _atom_site_pbe_bader_charge
 _atom_site_pbe_bader_spin_density
 _atom_site_pbe_cm5_charge
 _atom_site_pbe_ddec_charge
 _atom_site_pbe_ddec_spin_density
 _atom_site_pbe_ddec_sum_bond_order
 _atom_site_pbe_magmom
Ni  Ni0  1  0.78010352  0.71870095  0.12739033  1  1.193636  1.569951  0.650427  0.832684  1.773642  2.485287  1.557
Ni  Ni1  1  0.71989188  0.21870084  0.37260680  1  1.193509  1.569942  0.650486  0.832785  1.773643  2.485362  1.557
Ni  Ni2  1  0.21989205  0.28130177  0.87260973  1  1.193677  1.569955  0.650439  0.832775  1.773659  2.485235  1.557
Ni  Ni3  1  0.28010535  0.78130135  0.62738571  1  1.193952  1.569954  0.650436  0.832768  1.773653  2.485268  1.557
Ni  Ni4  1  0.98677541  0.77576122  0.21550050  1  1.203676  1.571038  0.628147  0.894772  1.769875  2.442578  1.558
Ni  Ni5  1  0.51321112  0.27575673  0.28449455  1  1.203808  1.571055  0.62819  0.894857  1.769865  2.442667  1.558
Ni  Ni6  1  0.01322017  0.22423989  0.78449728  1  1.203772  1.571043  0.62815  0.894743  1.769871  2.442804  1.558
Ni  Ni7  1  0.48679083  0.72424114  0.71550452  1  1.203825  1.571057  0.628186  0.894853  1.769872  2.442543  1.558
Ni  Ni8  1  0.98945586  0.61705089  0.23509246  1  1.208025  1.576843  0.630521  0.90138  1.780294  2.467375  1.563
Ni  Ni9  1  0.51054468  0.11705016  0.26490626  1  1.20801  1.576835  0.63046  0.901307  1.78029  2.467498  1.563
Ni  Ni10  1  0.01054131  0.38294861  0.76490644  1  1.208087  1.576842  0.630482  0.901435  1.780298  2.467515  1.563
Ni  Ni11  1  0.48945090  0.88294988  0.73509243  1  1.207951  1.576841  0.63047  0.901324  1.780293  2.467402  1.563
Ni  Ni12  1  0.10114552  0.63765413  0.12357290  1  1.214179  1.557066  0.638218  0.902562  1.748902  2.392819  1.544
Ni  Ni13  1  0.39884832  0.13765391  0.37642731  1  1.214232  1.557056  0.638262  0.902704  1.748897  2.392811  1.544
Ni  Ni14  1  0.89884849  0.36234375  0.87642330  1  1.214077  1.557051  0.638265  0.902661  1.748886  2.392891  1.544
Ni  Ni15  1  0.60115284  0.86234504  0.62357075  1  1.214286  1.557068  0.63829  0.902853  1.748906  2.392624  1.544
H  H16  1  0.90903565  0.90147448  0.09301823  1  0.101152  4e-06  0.106891  0.126452  -0.000131  1.020157  0.0
H  H17  1  0.59096031  0.40146720  0.40698082  1  0.101202  4e-06  0.106926  0.126476  -0.000131  1.020191  0.0
H  H18  1  0.09096231  0.09853525  0.90698169  1  0.101148  4e-06  0.106903  0.126402  -0.000131  1.020218  0.0
H  H19  1  0.40903767  0.59853337  0.59301727  1  0.101212  4e-06  0.106936  0.126448  -0.000131  1.020197  0.0
H  H20  1  0.16546290  0.78470269  0.04396448  1  0.115705  1e-05  0.104735  0.127149  -9.6e-05  1.039788  0.0
H  H21  1  0.33453584  0.28469836  0.45603913  1  0.115383  1e-05  0.104701  0.127047  -9.6e-05  1.039828  0.0
H  H22  1  0.83453030  0.21530057  0.95603253  1  0.115627  1e-05  0.104735  0.127112  -9.6e-05  1.039765  0.0
H  H23  1  0.66548356  0.71529144  0.54396820  1  0.115689  1e-05  0.104719  0.127057  -9.6e-05  1.039818  0.0
H  H24  1  0.84472539  0.96055801  0.28884917  1  0.083296  0.001127  0.111621  0.122543  0.000548  0.998962  0.001
H  H25  1  0.65527452  0.46056129  0.21114309  1  0.083451  0.001127  0.111655  0.122552  0.000548  0.998887  0.001
H  H26  1  0.15526781  0.03944310  0.71114829  1  0.083139  0.001127  0.1116  0.122524  0.000548  0.998861  0.001
H  H27  1  0.34472900  0.53943928  0.78885893  1  0.083344  0.001127  0.111668  0.122584  0.000548  0.998867  0.001
H  H28  1  0.73659062  0.06658765  0.31058995  1  0.145953  0.002151  0.115011  0.08983  0.000831  1.037855  0.001
H  H29  1  0.76340861  0.56659199  0.18939991  1  0.145643  0.002151  0.114986  0.08987  0.000831  1.037845  0.001
H  H30  1  0.26340498  0.93341508  0.68940600  1  0.14605  0.00215  0.115006  0.089814  0.000831  1.03796  0.001
H  H31  1  0.23659252  0.43340858  0.81060089  1  0.145665  0.002151  0.115035  0.089874  0.000832  1.037815  0.001
H  H32  1  0.48716971  0.01357634  0.16334566  1  0.151495  0.001899  0.126703  0.107946  0.000667  0.990464  0.002
H  H33  1  0.01282104  0.51358310  0.33665596  1  0.151685  0.001899  0.126681  0.107983  0.000667  0.990472  0.002
H  H34  1  0.51282263  0.98642046  0.83665810  1  0.151708  0.001898  0.126684  0.107933  0.000667  0.990473  0.002
H  H35  1  0.98718090  0.48641854  0.66334357  1  0.151724  0.001898  0.126687  0.107992  0.000667  0.990432  0.002
H  H36  1  0.58594900  0.90610865  0.13492341  1  0.064565  0.001127  0.109342  0.118235  0.000585  1.008276  0.0
H  H37  1  0.91403432  0.40611336  0.36507031  1  0.064885  0.001126  0.109369  0.118307  0.000585  1.008252  0.0
H  H38  1  0.41403858  0.09388653  0.86507880  1  0.064632  0.001127  0.109345  0.118255  0.000585  1.008266  0.0
H  H39  1  0.08597160  0.59388721  0.63493021  1  0.064938  0.001126  0.109365  0.118331  0.000585  1.008226  0.0
H  H40  1  0.38972874  0.63613772  0.07599193  1  0.128375  0.00109  0.111259  0.123253  0.000505  1.000065  0.001
H  H41  1  0.11026266  0.13615264  0.42401161  1  0.128578  0.00109  0.111256  0.12327  0.000505  1.00004  0.001
H  H42  1  0.61027323  0.36386285  0.92400532  1  0.128386  0.00109  0.111265  0.123289  0.000505  1.000059  0.001
H  H43  1  0.88972889  0.86385332  0.57599157  1  0.128473  0.00109  0.111246  0.123274  0.000505  1.000102  0.001
H  H44  1  0.58063712  0.63761773  0.06447414  1  0.106006  0.002112  0.119435  0.091465  0.000711  0.988599  0.001
H  H45  1  0.91935880  0.13763917  0.43553357  1  0.105744  0.002112  0.119443  0.091377  0.00071  0.988695  0.001
H  H46  1  0.41936721  0.36238015  0.93552616  1  0.106066  0.002111  0.119429  0.09144  0.00071  0.988647  0.001
H  H47  1  0.08063517  0.86237109  0.56446628  1  0.105651  0.002112  0.119425  0.09139  0.00071  0.988611  0.001
H  H48  1  0.67959918  0.73827712  0.23626627  1  0.073699  0.002776  0.118113  0.083611  0.001061  0.996537  0.001
H  H49  1  0.82040835  0.23828777  0.26373658  1  0.073075  0.002777  0.118085  0.083604  0.001062  0.996469  0.001
H  H50  1  0.32039478  0.26171483  0.76373495  1  0.073593  0.002776  0.118065  0.083511  0.001062  0.99645  0.001
H  H51  1  0.17960473  0.76171603  0.73626534  1  0.073596  0.002776  0.118085  0.083599  0.001062  0.996433  0.001
H  H52  1  0.49538184  0.73397119  0.25711537  1  0.113135  0.001137  0.114735  0.126999  0.000521  0.987243  0.001
H  H53  1  0.00462507  0.23397150  0.24288795  1  0.113139  0.001137  0.114751  0.126982  0.000521  0.987288  0.001
H  H54  1  0.50461371  0.26602184  0.74288652  1  0.113013  0.001137  0.114744  0.126966  0.000521  0.987281  0.001
H  H55  1  0.99538798  0.76603015  0.75711717  1  0.112649  0.001137  0.114783  0.126977  0.000521  0.987257  0.001
H  H56  1  0.21898287  0.80707724  0.38847882  1  0.113646  0.001294  0.116348  0.131408  0.000578  0.977082  0.001
H  H57  1  0.28102892  0.30706988  0.11152149  1  0.113381  0.001294  0.116257  0.131336  0.000578  0.977094  0.001
H  H58  1  0.78104066  0.19292172  0.61151351  1  0.113843  0.001294  0.116295  0.131305  0.000578  0.977188  0.001
H  H59  1  0.71897536  0.69292315  0.88848475  1  0.113887  0.001294  0.116242  0.1313  0.000578  0.977145  0.001
H  H60  1  0.31070951  0.82407034  0.50177910  1  0.111689  0.002322  0.116598  0.087301  0.000886  1.032055  0.002
H  H61  1  0.18930109  0.32407331  0.99822266  1  0.11123  0.002322  0.116559  0.087309  0.000886  1.031977  0.002
H  H62  1  0.68929885  0.17592861  0.49821625  1  0.111779  0.002321  0.116562  0.087336  0.000886  1.032074  0.002
H  H63  1  0.81070637  0.67592888  0.00178401  1  0.11157  0.002322  0.116557  0.087296  0.000886  1.032016  0.002
H  H64  1  0.11180233  0.67833448  0.56093437  1  0.125142  0.001901  0.116524  0.086835  0.000648  1.033464  0.001
H  H65  1  0.38819862  0.17833368  0.93906244  1  0.125155  0.001901  0.116525  0.086846  0.000648  1.033406  0.001
H  H66  1  0.88819890  0.32167955  0.43905729  1  0.124952  0.001902  0.116482  0.086749  0.000649  1.0335  0.001
H  H67  1  0.61179938  0.82166905  0.06093337  1  0.125294  0.001901  0.116526  0.086816  0.000648  1.03348  0.001
H  H68  1  0.02161844  0.64720356  0.44920028  1  0.087505  0.001319  0.113516  0.121539  0.000622  0.994186  0.0
H  H69  1  0.47837874  0.14719565  0.05079579  1  0.087355  0.001319  0.113527  0.121549  0.000622  0.994013  0.0
H  H70  1  0.97836761  0.35281694  0.55079440  1  0.087178  0.001319  0.113543  0.121662  0.000623  0.993986  0.0
H  H71  1  0.52162963  0.85280869  0.94919819  1  0.087448  0.001318  0.113558  0.121641  0.000622  0.99412  0.0
H  H72  1  0.16189764  0.40553610  0.29795061  1  0.114546  0.001266  0.110894  0.121098  0.00059  0.988743  0.001
H  H73  1  0.33809380  0.90554139  0.20204975  1  0.114745  0.001266  0.11094  0.121182  0.00059  0.988727  0.001
H  H74  1  0.83810658  0.59447039  0.70206111  1  0.114781  0.001266  0.110917  0.121201  0.00059  0.988642  0.001
H  H75  1  0.66190425  0.09446726  0.79794057  1  0.11515  0.001265  0.110927  0.121248  0.00059  0.988693  0.001
H  H76  1  0.29856369  0.30692883  0.32104267  1  0.08267  0.002397  0.117615  0.091508  0.000932  1.026568  0.001
H  H77  1  0.20142579  0.80693229  0.17895743  1  0.082734  0.002397  0.117684  0.091598  0.000932  1.026523  0.001
H  H78  1  0.70143183  0.69307012  0.67896287  1  0.082752  0.002398  0.117667  0.091591  0.000932  1.026504  0.001
H  H79  1  0.79857303  0.19307312  0.82103574  1  0.08312  0.002397  0.117745  0.091748  0.000932  1.026444  0.001
H  H80  1  0.50479770  0.41825568  0.23526409  1  0.12925  0.001657  0.114923  0.089284  0.000531  1.053626  0.002
H  H81  1  0.99519288  0.91825053  0.26473562  1  0.129119  0.001657  0.114905  0.089288  0.000531  1.053561  0.002
H  H82  1  0.49519394  0.58174273  0.76472996  1  0.129213  0.001657  0.114955  0.089256  0.000531  1.05373  0.002
H  H83  1  0.00480908  0.08174089  0.73526254  1  0.129404  0.001656  0.114928  0.089231  0.000531  1.053655  0.002
H  H84  1  0.37532108  0.52030883  0.20603995  1  0.081754  0.000952  0.107507  0.116142  0.000447  1.009746  0.0
H  H85  1  0.12466895  0.02030765  0.29396203  1  0.081699  0.000951  0.1075  0.116163  0.000447  1.009714  0.0
H  H86  1  0.62466652  0.47968958  0.79395951  1  0.081236  0.000952  0.107481  0.116097  0.000447  1.00977  0.0
H  H87  1  0.87532186  0.97969022  0.70603466  1  0.081297  0.000952  0.107504  0.116101  0.000447  1.009877  0.0
H  H88  1  0.73329671  0.56003955  0.98723446  1  0.070388  0.000876  0.107498  0.114475  0.000432  1.014667  0.0
H  H89  1  0.76670819  0.06004234  0.51276141  1  0.070305  0.000876  0.107495  0.114457  0.000432  1.014667  0.0
H  H90  1  0.26670761  0.43995671  0.01276722  1  0.070328  0.000876  0.10751  0.114518  0.000432  1.014625  0.0
H  H91  1  0.23328657  0.93995715  0.48723946  1  0.0771  0.000875  0.107506  0.114462  0.000432  1.014719  0.0
H  H92  1  0.75013900  0.47335457  0.90164439  1  0.134243  0.001493  0.118253  0.093828  0.000461  1.033112  0.001
H  H93  1  0.74985888  0.97335613  0.59834920  1  0.134235  0.001493  0.118224  0.09372  0.000461  1.033292  0.001
H  H94  1  0.24985179  0.52664169  0.09835503  1  0.134456  0.001493  0.118192  0.093743  0.000461  1.033224  0.001
H  H95  1  0.25013909  0.02663959  0.40164980  1  0.134345  0.001493  0.118183  0.093645  0.000461  1.03329  0.001
H  H96  1  0.00400108  0.36970046  0.01530439  1  0.132823  0.001595  0.119283  0.100125  0.000503  1.012331  0.001
H  H97  1  0.49600202  0.86970503  0.48468334  1  0.133142  0.001595  0.119237  0.100084  0.000503  1.01225  0.001
H  H98  1  0.99599611  0.63029526  0.98469314  1  0.133037  0.001595  0.119287  0.100096  0.000503  1.012272  0.001
H  H99  1  0.50400961  0.13028585  0.51530421  1  0.133021  0.001595  0.119212  0.100025  0.000503  1.012155  0.001
H  H100  1  0.00417612  0.45629770  0.10445421  1  0.087098  0.000956  0.116054  0.131373  0.000374  0.981048  0.0
H  H101  1  0.49582798  0.95630657  0.39553640  1  0.086913  0.000956  0.116014  0.131347  0.000374  0.981003  0.0
H  H102  1  0.99583060  0.54369587  0.89554595  1  0.087078  0.000956  0.116066  0.131394  0.000374  0.981139  0.0
H  H103  1  0.50417965  0.04368754  0.60445245  1  0.087109  0.000955  0.116069  0.131441  0.000374  0.981035  0.0
H  H104  1  0.84367085  0.70268258  0.24986073  1  0.587931  0.0018  0.299383  0.370317  0.001893  0.927206  0.002
H  H105  1  0.65632358  0.20268857  0.25013444  1  0.588317  0.001798  0.29945  0.370401  0.001892  0.92709  0.002
H  H106  1  0.15632793  0.29731799  0.75013701  1  0.587842  0.001802  0.299374  0.370318  0.001894  0.927239  0.002
H  H107  1  0.34367601  0.79731146  0.74986203  1  0.588378  0.001797  0.299414  0.370254  0.001894  0.927337  0.002
H  H108  1  0.15755792  0.69447593  0.22434316  1  0.635545  8.8e-05  0.280699  0.37029  0.000953  0.972498  0.001
H  H109  1  0.34243898  0.19447378  0.27565699  1  0.635632  9e-05  0.280651  0.37017  0.000953  0.972697  0.001
H  H110  1  0.84243690  0.30552302  0.77565131  1  0.63565  8.9e-05  0.280698  0.370265  0.000953  0.972511  0.001
H  H111  1  0.65756216  0.80552841  0.72434335  1  0.635424  8.9e-05  0.280654  0.370181  0.000953  0.972687  0.001
H  H112  1  0.83257456  0.00934239  0.06600148  1  0.075664  6e-06  0.099454  0.104169  -8e-06  1.016509  0.0
H  H113  1  0.66742474  0.50933385  0.43399386  1  0.075616  6e-06  0.099409  0.104124  -8e-06  1.016534  0.0
H  H114  1  0.16742747  0.99066411  0.93398983  1  0.07557  6e-06  0.09935  0.103968  -8e-06  1.016458  0.0
H  H115  1  0.33256128  0.49067426  0.56600448  1  0.075393  6e-06  0.099428  0.104161  -8e-06  1.016492  0.0
H  H116  1  0.87696736  0.09148350  0.10668193  1  0.079174  5e-06  0.105424  0.113148  2e-06  0.974589  0.0
H  H117  1  0.62303768  0.59147472  0.39331556  1  0.079126  5e-06  0.105431  0.113174  2e-06  0.974552  0.0
H  H118  1  0.12303387  0.90852676  0.89330974  1  0.079044  5e-06  0.105387  0.113128  2e-06  0.974589  0.0
H  H119  1  0.37694116  0.40853878  0.60668412  1  0.079073  5e-06  0.105334  0.113045  2e-06  0.974801  0.0
H  H120  1  0.90048191  0.00679508  0.14731415  1  0.05101  1e-05  0.09175  0.089378  -4.3e-05  1.013949  0.0
H  H121  1  0.59951652  0.50679101  0.35268611  1  0.050845  1e-05  0.091714  0.089336  -4.3e-05  1.013991  0.0
H  H122  1  0.09951370  0.99321088  0.85268180  1  0.050784  1e-05  0.091716  0.08927  -4.3e-05  1.01414  0.0
H  H123  1  0.40047588  0.49321818  0.64731216  1  0.051072  1e-05  0.091731  0.089363  -4.3e-05  1.014085  0.0
H  H124  1  0.29477113  0.80860544  0.98791631  1  0.048133  3.2e-05  0.096706  0.09458  6e-06  0.984722  0.0
H  H125  1  0.20524545  0.30859928  0.51210682  1  0.047749  3.2e-05  0.096744  0.094735  6e-06  0.984383  0.0
H  H126  1  0.70521976  0.19139944  0.01207216  1  0.048011  3.2e-05  0.096662  0.094498  6e-06  0.984762  0.0
H  H127  1  0.79479989  0.69139591  0.48793733  1  0.048264  3.2e-05  0.096688  0.094541  6e-06  0.984549  0.0
H  H128  1  0.34083021  0.80317066  0.07112465  1  0.054695  0.000151  0.095124  0.099014  8.1e-05  1.013774  0.0
H  H129  1  0.15917816  0.30316161  0.42889487  1  0.055393  0.00015  0.095043  0.098926  8.1e-05  1.014121  0.0
H  H130  1  0.65916147  0.19682829  0.92886484  1  0.054561  0.000151  0.095142  0.099062  8.1e-05  1.013681  0.0
H  H131  1  0.84084734  0.69682227  0.57114162  1  0.054059  0.000151  0.095155  0.099026  8.1e-05  1.013638  0.0
H  H132  1  0.41647309  0.85240871  0.02504778  1  0.049077  4.7e-05  0.099907  0.100293  2.3e-05  1.014612  0.0
H  H133  1  0.08353744  0.35240517  0.47497432  1  0.049412  4.7e-05  0.09986  0.100211  2.3e-05  1.014681  0.0
H  H134  1  0.58352021  0.14759401  0.97494009  1  0.049072  4.7e-05  0.099922  0.100275  2.3e-05  1.014448  0.0
H  H135  1  0.91649198  0.64758947  0.52506818  1  0.048803  4.7e-05  0.099873  0.100256  2.3e-05  1.014444  0.0
H  H136  1  0.16134174  0.13347599  0.07207754  1  0.045417  0.000194  0.094394  0.099417  6.5e-05  0.994112  0.0
H  H137  1  0.33863208  0.63347431  0.42792779  1  0.04561  0.000193  0.094322  0.099387  6.5e-05  0.994173  0.0
H  H138  1  0.83865860  0.86652781  0.92792315  1  0.045498  0.000194  0.094403  0.099463  6.5e-05  0.994141  0.0
H  H139  1  0.66136257  0.36651980  0.57208450  1  0.04563  0.000193  0.094332  0.099466  6.5e-05  0.994219  0.0
H  H140  1  0.28659768  0.09881525  0.11625758  1  0.079125  0.000241  0.095642  0.108521  7e-05  1.020152  0.0
H  H141  1  0.21339572  0.59879673  0.38373983  1  0.079234  0.000241  0.09571  0.108503  7e-05  1.020125  0.0
H  H142  1  0.71340345  0.90118963  0.88374368  1  0.079163  0.000241  0.095655  0.10854  7e-05  1.020097  0.0
H  H143  1  0.78658609  0.40119092  0.61628220  1  0.07971  0.000241  0.095654  0.108588  7e-05  1.020154  0.0
H  H144  1  0.16456623  0.07423451  0.13703595  1  0.084561  1.2e-05  0.099942  0.104833  -3.2e-05  1.020634  0.0
H  H145  1  0.33544582  0.57423711  0.36298038  1  0.084313  1.2e-05  0.099915  0.104719  -3.2e-05  1.020613  0.0
H  H146  1  0.83544125  0.92576714  0.86296797  1  0.084307  1.2e-05  0.099991  0.104868  -3.2e-05  1.02058  0.0
H  H147  1  0.66452653  0.42575377  0.63703079  1  0.08382  1.2e-05  0.099979  0.104963  -3.2e-05  1.02073  0.0
C  C148  1  0.03193972  0.83760739  0.06794567  1  -0.007738  0.004467  -0.035353  -0.02996  0.002324  4.074569  0.003
C  C149  1  0.46805490  0.33760002  0.43205420  1  -0.008233  0.004466  -0.035397  -0.03011  0.002322  4.074851  0.003
C  C150  1  0.96805665  0.16240018  0.93205312  1  -0.007387  0.004465  -0.035386  -0.030048  0.002322  4.074636  0.003
C  C151  1  0.53195418  0.66239517  0.56794902  1  -0.007951  0.004465  -0.03545  -0.030235  0.002322  4.075012  0.003
C  C152  1  0.98560142  0.90285454  0.07983548  1  0.048823  0.007608  -0.111525  -0.229909  0.004098  4.013726  0.004
C  C153  1  0.51439374  0.40284631  0.42016530  1  0.049117  0.007609  -0.11146  -0.229801  0.004098  4.013799  0.004
C  C154  1  0.01439654  0.09715465  0.92016399  1  0.049084  0.007611  -0.111399  -0.229616  0.004099  4.01373  0.004
C  C155  1  0.48560501  0.59715211  0.57983564  1  0.049471  0.007606  -0.111484  -0.229681  0.004097  4.013778  0.004
C  C156  1  0.03780163  0.96773404  0.07540360  1  0.411439  -0.000814  0.071678  0.152701  -0.001398  4.06769  -0.001
C  C157  1  0.46219531  0.46772394  0.42459887  1  0.411146  -0.000814  0.071635  0.152634  -0.001399  4.067879  -0.001
C  C158  1  0.96219556  0.03227622  0.92459301  1  0.411075  -0.000814  0.071545  0.15238  -0.001399  4.067932  -0.001
C  C159  1  0.53779706  0.53227124  0.57540214  1  0.410831  -0.000814  0.071589  0.152422  -0.001398  4.067703  -0.001
C  C160  1  0.14014899  0.96764384  0.06120066  1  0.600805  0.013717  0.079121  0.06495  0.007892  4.018169  0.009
C  C161  1  0.35985189  0.46763803  0.43880691  1  0.600903  0.013719  0.079032  0.064758  0.007893  4.018614  0.009
C  C162  1  0.85985138  0.03236050  0.93879684  1  0.600767  0.013721  0.079149  0.065129  0.007894  4.01828  0.009
C  C163  1  0.64015232  0.53235608  0.56120527  1  0.600237  0.013716  0.079157  0.065159  0.007891  4.018056  0.009
C  C164  1  0.18492225  0.90097755  0.04854115  1  0.519125  -0.000472  0.06824  0.152897  -0.00103  4.085877  -0.001
C  C165  1  0.31507624  0.40097096  0.45146656  1  0.518628  -0.000472  0.068176  0.152929  -0.00103  4.086185  -0.001
C  C166  1  0.81507419  0.09902787  0.95145080  1  0.519112  -0.000472  0.068184  0.152921  -0.00103  4.085938  -0.001
C  C167  1  0.68493905  0.59901722  0.54855486  1  0.518874  -0.000473  0.068219  0.152829  -0.00103  4.086069  -0.001
C  C168  1  0.13037681  0.83661720  0.05051358  1  -0.100618  0.008309  -0.11707  -0.25199  0.004495  4.027504  0.005
C  C169  1  0.36962333  0.33661307  0.44949205  1  -0.100322  0.00831  -0.116976  -0.25181  0.004495  4.027767  0.005
C  C170  1  0.86961878  0.16338768  0.94948419  1  -0.100823  0.00831  -0.117017  -0.251936  0.004495  4.027508  0.005
C  C171  1  0.63039917  0.66338050  0.55052484  1  -0.100288  0.008312  -0.116987  -0.251804  0.004496  4.02775  0.005
C  C172  1  0.78228173  0.85912047  0.19656379  1  1.60288  -0.001885  0.212499  0.561819  -0.002339  4.200717  -0.002
C  C173  1  0.71770662  0.35912087  0.30342739  1  1.603382  -0.001889  0.212427  0.561731  -0.002339  4.200905  -0.002
C  C174  1  0.21770747  0.14087741  0.80343497  1  1.602951  -0.001886  0.212384  0.561678  -0.002341  4.20092  -0.002
C  C175  1  0.28229534  0.64087916  0.69657031  1  1.603207  -0.001888  0.212489  0.56183  -0.002338  4.200971  -0.002
C  C176  1  0.72289359  0.92491044  0.21016419  1  -0.051642  0.003122  -0.002407  0.007373  2.5e-05  3.965002  0.004
C  C177  1  0.77710035  0.42491009  0.28982453  1  -0.051038  0.003122  -0.002345  0.007431  2.5e-05  3.965086  0.004
C  C178  1  0.27710038  0.07508797  0.78983566  1  -0.08135  0.003145  -0.002272  0.007484  2.5e-05  3.964924  0.004
C  C179  1  0.22290321  0.57508994  0.71017293  1  -0.080744  0.003145  -0.002364  0.007409  2.5e-05  3.965218  0.004
C  C180  1  0.76609878  0.97105317  0.25978137  1  -0.007805  0.005954  -0.082721  -0.147955  0.003174  3.961417  0.005
C  C181  1  0.73389890  0.47105689  0.24020739  1  -0.006304  0.005951  -0.08289  -0.148013  0.003174  3.961504  0.005
C  C182  1  0.23388881  0.02894094  0.74021947  1  0.021915  0.00593  -0.082785  -0.147924  0.003174  3.961163  0.005
C  C183  1  0.26610863  0.52894261  0.75979196  1  0.02359  0.005928  -0.082925  -0.148156  0.003174  3.96149  0.005
C  C184  1  0.70640152  0.02940322  0.27224951  1  0.440187  -0.004888  0.040349  0.083069  -0.005788  3.93805  -0.003
C  C185  1  0.79359883  0.52940934  0.22774369  1  0.43861  -0.004885  0.04039  0.083018  -0.005788  3.938026  -0.003
C  C186  1  0.29359084  0.97059466  0.72775241  1  0.440187  -0.004887  0.040365  0.083001  -0.005787  3.938017  -0.003
C  C187  1  0.20640470  0.47059177  0.77225651  1  0.43839  -0.004883  0.040518  0.083301  -0.005786  3.938017  -0.003
C  C188  1  0.56679181  0.99992232  0.18942166  1  0.463179  -0.00617  0.04965  0.098143  -0.00738  3.924342  -0.004
C  C189  1  0.93319974  0.49992820  0.31057727  1  0.4651  -0.006171  0.049657  0.098115  -0.007382  3.92465  -0.004
C  C190  1  0.43320295  0.00007771  0.81057875  1  0.464561  -0.006169  0.04977  0.098236  -0.007381  3.924327  -0.004
C  C191  1  0.06680140  0.50007237  0.68942307  1  0.46508  -0.006172  0.049735  0.098238  -0.007383  3.924471  -0.004
C  C192  1  0.62172180  0.94071275  0.17406333  1  0.019464  0.005275  -0.080691  -0.144787  0.00281  3.954082  0.004
C  C193  1  0.87826273  0.44071726  0.32593056  1  0.017079  0.005274  -0.080628  -0.144755  0.002809  3.954173  0.004
C  C194  1  0.37827302  0.05928782  0.82593206  1  0.017932  0.005271  -0.080778  -0.144919  0.002809  3.954286  0.004
C  C195  1  0.12174240  0.55928116  0.67407031  1  0.017117  0.005273  -0.080677  -0.144866  0.002809  3.954266  0.004
C  C196  1  0.31500719  0.68899088  0.17598713  1  1.586155  0.001424  0.201191  0.553066  0.000708  4.230433  0.0
C  C197  1  0.18499523  0.18898519  0.32401285  1  1.58605  0.001425  0.201118  0.552881  0.000709  4.230428  0.0
C  C198  1  0.68498605  0.31100592  0.82400668  1  1.586594  0.001426  0.201373  0.553422  0.00071  4.229946  0.0
C  C199  1  0.81501303  0.81101269  0.67599255  1  1.585623  0.001426  0.201309  0.553216  0.000708  4.229986  0.0
C  C200  1  0.42840156  0.68618786  0.16731038  1  -0.004015  0.000719  0.004579  0.022466  -0.001742  3.942663  0.001
C  C201  1  0.07159520  0.18619017  0.33269479  1  -0.004388  0.000718  0.00443  0.022411  -0.001745  3.942461  0.001
C  C202  1  0.57159720  0.31381109  0.83268873  1  -0.004047  0.000716  0.004492  0.022182  -0.001746  3.942703  0.001
C  C203  1  0.92841069  0.81380986  0.66730893  1  -0.003823  0.000715  0.004392  0.022141  -0.001745  3.94249  0.001
C  C204  1  0.45299448  0.65774641  0.11287668  1  -0.045785  0.006196  -0.082219  -0.152165  0.003549  3.95745  0.005
C  C205  1  0.04699713  0.15776313  0.38713101  1  -0.045567  0.006197  -0.082142  -0.152139  0.003549  3.957326  0.005
C  C206  1  0.54700667  0.34225470  0.88712229  1  -0.045771  0.006198  -0.082201  -0.152138  0.00355  3.95744  0.005
C  C207  1  0.95300160  0.84224229  0.61287085  1  -0.045407  0.006196  -0.08208  -0.152096  0.003549  3.95741  0.005
C  C208  1  0.55794502  0.65909261  0.10610308  1  0.434339  -0.002695  0.044659  0.083297  -0.003863  3.959024  -0.002
C  C209  1  0.94204716  0.15911256  0.39390551  1  0.43445  -0.002701  0.044564  0.083334  -0.003868  3.959102  -0.002
C  C210  1  0.44205853  0.34091119  0.89389529  1  0.434279  -0.002696  0.0447  0.083314  -0.003864  3.958835  -0.002
C  C211  1  0.05795155  0.84090040  0.60609862  1  0.4345  -0.002699  0.044577  0.083361  -0.003867  3.959029  -0.002
C  C212  1  0.61388131  0.71431428  0.20241164  1  0.446739  -0.003356  0.043878  0.089371  -0.004376  3.964608  -0.002
C  C213  1  0.88611878  0.21431614  0.29758931  1  0.447448  -0.003358  0.043874  0.08935  -0.004377  3.964462  -0.002
C  C214  1  0.38611582  0.28567821  0.79759092  1  0.446715  -0.003358  0.04394  0.089511  -0.004378  3.964388  -0.002
C  C215  1  0.11388554  0.78568282  0.70241190  1  0.446668  -0.003357  0.043875  0.089357  -0.004376  3.964664  -0.002
C  C216  1  0.51189824  0.71301817  0.21368013  1  0.012239  0.007673  -0.077846  -0.146246  0.004195  3.955926  0.006
C  C217  1  0.98810500  0.21302112  0.28632261  1  0.012383  0.007676  -0.077859  -0.146232  0.004197  3.955811  0.006
C  C218  1  0.48809732  0.28697809  0.78632039  1  0.012452  0.007674  -0.077801  -0.146093  0.004196  3.955689  0.006
C  C219  1  0.01190647  0.78698268  0.71368092  1  0.012908  0.007674  -0.077841  -0.146104  0.004196  3.955933  0.006
C  C220  1  0.05601894  0.71501401  0.34359902  1  1.608562  -0.0022  0.215126  0.574675  -0.00288  4.188726  -0.003
C  C221  1  0.44398780  0.21500970  0.15639787  1  1.607177  -0.002198  0.21527  0.575142  -0.002882  4.188323  -0.003
C  C222  1  0.94398941  0.28498764  0.65639770  1  1.6071  -0.002198  0.215137  0.574982  -0.00288  4.188591  -0.003
C  C223  1  0.55601893  0.78498872  0.84360092  1  1.608498  -0.002198  0.215266  0.575053  -0.002881  4.188241  -0.003
C  C224  1  0.11129950  0.72697934  0.41076784  1  -0.062875  0.007486  0.009728  0.029957  0.003205  3.955018  0.007
C  C225  1  0.38870658  0.22697041  0.08922942  1  -0.062429  0.007484  0.009772  0.029783  0.003206  3.955233  0.007
C  C226  1  0.88870727  0.27302770  0.58922639  1  -0.067604  0.007489  0.009825  0.029763  0.003207  3.955497  0.007
C  C227  1  0.61129457  0.77302693  0.91077001  1  -0.067945  0.007489  0.009772  0.029905  0.003205  3.955145  0.007
C  C228  1  0.19395082  0.77713462  0.42562041  1  0.038222  0.007462  -0.076804  -0.147685  0.004288  3.945604  0.005
C  C229  1  0.30606064  0.27713224  0.07437711  1  0.039029  0.007458  -0.076846  -0.147659  0.004285  3.945973  0.005
C  C230  1  0.80606156  0.22286972  0.57437136  1  0.043601  0.007455  -0.076794  -0.147432  0.004286  3.94602  0.005
C  C231  1  0.69394765  0.72287103  0.92562555  1  0.043395  0.007456  -0.076726  -0.147519  0.004286  3.945717  0.005
C  C232  1  0.24354582  0.78761505  0.48805461  1  0.413792  -0.002119  0.043886  0.086554  -0.002993  3.946764  -0.002
C  C233  1  0.25646970  0.28761886  0.01194802  1  0.413826  -0.002116  0.043944  0.086528  -0.002989  3.946914  -0.002
C  C234  1  0.75646496  0.21238229  0.51193740  1  0.413442  -0.00212  0.043927  0.08639  -0.002993  3.946852  -0.002
C  C235  1  0.74353618  0.71238279  0.98805706  1  0.413753  -0.002117  0.043862  0.086405  -0.00299  3.946969  -0.002
C  C236  1  0.13282594  0.70501650  0.52099524  1  0.458576  -0.004057  0.045721  0.087201  -0.005143  3.944953  -0.003
C  C237  1  0.36718329  0.20502044  0.97900176  1  0.458404  -0.004058  0.045783  0.087379  -0.005143  3.94479  -0.003
C  C238  1  0.86717211  0.29499268  0.47899509  1  0.458512  -0.004058  0.04576  0.08743  -0.005143  3.945009  -0.003
C  C239  1  0.63282265  0.79498229  0.02099693  1  0.458356  -0.004059  0.045817  0.087468  -0.005144  3.944971  -0.003
C  C240  1  0.08279749  0.68869728  0.45955615  1  0.008629  0.0078  -0.077993  -0.150744  0.004328  3.957405  0.006
C  C241  1  0.41720656  0.18869335  0.04043992  1  0.008554  0.007798  -0.077943  -0.150734  0.004327  3.95737  0.006
C  C242  1  0.91720372  0.31131244  0.54043734  1  0.008788  0.0078  -0.078019  -0.151021  0.004329  3.957519  0.006
C  C243  1  0.58279382  0.81130453  0.95955758  1  0.008587  0.007799  -0.078109  -0.151091  0.004328  3.957798  0.006
C  C244  1  0.17737183  0.52880499  0.22724739  1  1.597783  -0.002932  0.220291  0.58469  -0.003572  4.168475  -0.003
C  C245  1  0.32262788  0.02880865  0.27275404  1  1.597725  -0.002928  0.22039  0.58502  -0.003572  4.168616  -0.003
C  C246  1  0.82262848  0.47119666  0.77275650  1  1.598017  -0.00293  0.220302  0.584752  -0.003573  4.168851  -0.003
C  C247  1  0.67737170  0.97119407  0.72724289  1  1.597681  -0.002926  0.220336  0.584821  -0.00357  4.169057  -0.003
C  C248  1  0.25760550  0.47022025  0.24896162  1  -0.05439  0.007477  0.002108  0.015487  0.003569  3.953083  0.007
C  C249  1  0.24238909  0.97022502  0.25104099  1  -0.054368  0.007477  0.002069  0.01526  0.003569  3.953472  0.007
C  C250  1  0.74239160  0.52978140  0.75104504  1  -0.054165  0.007477  0.002104  0.01555  0.003569  3.953133  0.007
C  C251  1  0.75760733  0.02977824  0.74895323  1  -0.054416  0.007477  0.001948  0.01527  0.003569  3.953523  0.007
C  C252  1  0.23693092  0.41019398  0.28295557  1  -0.057612  0.00644  -0.078744  -0.145225  0.003557  3.934073  0.005
C  C253  1  0.26305899  0.91020048  0.21704459  1  -0.058073  0.006441  -0.078764  -0.145293  0.003557  3.934331  0.005
C  C254  1  0.76306857  0.58980767  0.71705095  1  -0.057765  0.006439  -0.078744  -0.14545  0.003557  3.934147  0.005
C  C255  1  0.73693905  0.08980710  0.78294711  1  -0.058017  0.006441  -0.078707  -0.145309  0.003557  3.934237  0.005
C  C256  1  0.31276822  0.35546063  0.29627737  1  0.531639  -0.003359  0.052394  0.101981  -0.004223  3.924109  -0.002
C  C257  1  0.18722504  0.85546510  0.20372186  1  0.531958  -0.003359  0.052308  0.101965  -0.004223  3.924349  -0.002
C  C258  1  0.68723131  0.64453617  0.70372505  1  0.531094  -0.003357  0.052271  0.101917  -0.004221  3.924329  -0.002
C  C259  1  0.81277856  0.14453870  0.79627194  1  0.530332  -0.003359  0.052232  0.101623  -0.004223  3.92446  -0.002
C  C260  1  0.42779532  0.41803519  0.24794085  1  0.415589  -0.002777  0.037625  0.081718  -0.003672  3.959854  -0.002
C  C261  1  0.07220024  0.91803096  0.25206143  1  0.41548  -0.002779  0.037646  0.081734  -0.003674  3.959704  -0.002
C  C262  1  0.57220184  0.58196538  0.75205988  1  0.415392  -0.002778  0.037539  0.081603  -0.003672  3.960182  -0.002
C  C263  1  0.92780095  0.08196530  0.74793342  1  0.414979  -0.002776  0.037534  0.081638  -0.003673  3.959719  -0.002
C  C264  1  0.35604712  0.47395020  0.23197518  1  0.047539  0.005587  -0.085619  -0.150561  0.003172  3.971872  0.004
C  C265  1  0.14394671  0.97394798  0.26802780  1  0.047617  0.005586  -0.085597  -0.150543  0.003172  3.971992  0.004
C  C266  1  0.64394368  0.52604767  0.76802288  1  0.047996  0.005586  -0.085525  -0.150374  0.003172  3.971994  0.004
C  C267  1  0.85604653  0.02605205  0.73196647  1  0.048482  0.005585  -0.085512  -0.150378  0.003172  3.972127  0.004
C  C268  1  0.87480276  0.57486709  0.09976984  1  1.583016  0.013097  0.222657  0.57841  0.010159  4.1583  0.01
C  C269  1  0.62519494  0.07487561  0.40022439  1  1.583627  0.013093  0.222671  0.578622  0.010158  4.15803  0.01
C  C270  1  0.12519522  0.42512702  0.90022780  1  1.583817  0.013092  0.222639  0.57853  0.010158  4.158139  0.01
C  C271  1  0.37480064  0.92512711  0.59977430  1  1.583776  0.013093  0.222735  0.578609  0.010158  4.158234  0.01
C  C272  1  0.87026937  0.51638282  0.05188693  1  -0.044177  0.000975  -0.002651  0.002164  -0.001607  3.96487  0.001
C  C273  1  0.62973403  0.01639138  0.44810530  1  -0.044494  0.000975  -0.0025  0.002184  -0.001609  3.964622  0.001
C  C274  1  0.12973177  0.48361021  0.94811341  1  -0.044698  0.000977  -0.002544  0.002216  -0.001608  3.96479  0.001
C  C275  1  0.37026316  0.98360919  0.55189223  1  -0.044846  0.000975  -0.002508  0.00222  -0.001609  3.964812  0.001
C  C276  1  0.79495243  0.51884347  0.99510297  1  -0.042423  0.009028  -0.084003  -0.151228  0.004898  3.964989  0.006
C  C277  1  0.70504400  0.01885076  0.50489360  1  -0.042789  0.00903  -0.084116  -0.151336  0.004898  3.965043  0.006
C  C278  1  0.20504551  0.48114902  0.00489877  1  -0.043862  0.00903  -0.084055  -0.151379  0.004898  3.965202  0.006
C  C279  1  0.29494998  0.98114873  0.49510579  1  -0.049009  0.00903  -0.084098  -0.151327  0.004899  3.965078  0.006
C  C280  1  0.80299697  0.47059771  0.94781228  1  0.510073  -0.006  0.042568  0.084029  -0.00709  3.942502  -0.004
C  C281  1  0.69700012  0.97060059  0.55217755  1  0.510464  -0.005999  0.042616  0.084223  -0.007089  3.942671  -0.004
C  C282  1  0.19700021  0.52939855  0.05218570  1  0.511204  -0.006001  0.042567  0.084149  -0.00709  3.942581  -0.004
C  C283  1  0.30299628  0.02939675  0.44781896  1  0.509861  -0.005999  0.042578  0.084242  -0.007089  3.942316  -0.004
C  C284  1  0.94676083  0.41356850  0.01122392  1  0.455602  -0.003973  0.046055  0.083917  -0.004755  3.933811  -0.003
C  C285  1  0.55323857  0.91357605  0.48876324  1  0.454329  -0.00397  0.045946  0.083657  -0.004752  3.933757  -0.003
C  C286  1  0.05323474  0.58642614  0.98877568  1  0.454952  -0.003972  0.045975  0.0839  -0.004754  3.933747  -0.003
C  C287  1  0.44676826  0.08641806  0.51122551  1  0.454824  -0.003971  0.046044  0.083953  -0.004754  3.933711  -0.003
C  C288  1  0.94521998  0.46065578  0.06051889  1  0.004889  0.008384  -0.077728  -0.137672  0.004635  3.940945  0.006
C  C289  1  0.55478793  0.96065902  0.43947122  1  0.005571  0.008384  -0.077782  -0.137581  0.004635  3.940804  0.006
C  C290  1  0.05478197  0.53934102  0.93948110  1  0.00535  0.008384  -0.077805  -0.137781  0.004635  3.941096  0.006
C  C291  1  0.44521728  0.03933562  0.56052051  1  0.005469  0.008384  -0.077815  -0.137795  0.004635  3.941036  0.006
C  C292  1  0.98429651  0.76872353  0.08163923  1  1.503505  0.023581  0.216334  0.590742  0.017713  4.131408  0.02
C  C293  1  0.51569868  0.26872069  0.41835787  1  1.503754  0.023581  0.21637  0.590985  0.017713  4.131135  0.02
C  C294  1  0.01569828  0.23128243  0.91835889  1  1.503287  0.023587  0.216316  0.590828  0.017715  4.131427  0.02
C  C295  1  0.48430887  0.73127664  0.58163920  1  1.503333  0.02358  0.216346  0.590912  0.017711  4.131565  0.02
C  C296  1  0.89533580  0.03438723  0.10206617  1  0.352518  -1.1e-05  -0.138885  -0.176045  -5.8e-05  3.914545  0.0
C  C297  1  0.60466297  0.53438051  0.39793276  1  0.352772  -1.1e-05  -0.138867  -0.176025  -5.8e-05  3.914447  0.0
C  C298  1  0.10465982  0.96562034  0.89792840  1  0.352942  -1.1e-05  -0.138748  -0.175646  -5.8e-05  3.914491  0.0
C  C299  1  0.39532702  0.46562760  0.60206702  1  0.352603  -1.1e-05  -0.138773  -0.17593  -5.8e-05  3.914704  0.0
C  C300  1  0.33619419  0.83822759  0.02995501  1  0.403814  7.6e-05  -0.139386  -0.167303  1.6e-05  3.931238  0.0
C  C301  1  0.16381540  0.33821802  0.47006422  1  0.402979  7.6e-05  -0.13921  -0.167142  1.6e-05  3.931169  0.0
C  C302  1  0.66380148  0.16177298  0.97003409  1  0.404153  7.6e-05  -0.139401  -0.167255  1.6e-05  3.931024  0.0
C  C303  1  0.83621247  0.66176208  0.52997442  1  0.404916  7.6e-05  -0.139385  -0.167261  1.6e-05  3.930926  0.0
C  C304  1  0.20201659  0.08717407  0.09807789  1  0.358825  0.000266  -0.14183  -0.163668  0.00019  3.856867  0.0
C  C305  1  0.29797738  0.58716571  0.40192965  1  0.358811  0.000267  -0.14192  -0.16357  0.00019  3.856813  0.0
C  C306  1  0.79798613  0.91282973  0.90192449  1  0.358789  0.000267  -0.141898  -0.163743  0.000191  3.856708  0.0
C  C307  1  0.70200928  0.41282678  0.59808570  1  0.359042  0.000267  -0.141905  -0.164067  0.000191  3.857061  0.0
N  N308  1  0.60761065  0.04298387  0.23848207  1  -1.214568  0.064272  -0.330377  -0.227381  0.037057  3.582353  0.058
N  N309  1  0.89238742  0.54299108  0.26151723  1  -1.214734  0.06427  -0.330386  -0.227513  0.037056  3.582778  0.058
N  N310  1  0.39238251  0.95701293  0.76151904  1  -1.214399  0.064266  -0.330432  -0.227409  0.037053  3.582121  0.058
N  N311  1  0.10761768  0.45700949  0.73848638  1  -1.214649  0.06427  -0.330586  -0.227792  0.037056  3.582937  0.058
N  N312  1  0.63722896  0.68873916  0.14929607  1  -1.209332  0.07552  -0.326394  -0.233574  0.043081  3.591367  0.067
N  N313  1  0.86276604  0.18875059  0.35070513  1  -1.209511  0.075531  -0.326267  -0.233467  0.043086  3.591476  0.067
N  N314  1  0.36277058  0.31125764  0.85070498  1  -1.209281  0.075522  -0.326447  -0.233633  0.043082  3.591253  0.067
N  N315  1  0.13723352  0.81125428  0.64929455  1  -1.209563  0.075525  -0.326329  -0.233549  0.043085  3.591353  0.067
N  N316  1  0.21142308  0.75412477  0.53542127  1  -1.212974  0.071437  -0.323033  -0.221931  0.040945  3.561836  0.063
N  N317  1  0.28858433  0.25412558  0.96457686  1  -1.212751  0.071435  -0.323049  -0.222008  0.040944  3.561767  0.063
N  N318  1  0.78858452  0.24588011  0.46457032  1  -1.212694  0.071441  -0.323007  -0.221789  0.040947  3.561859  0.063
N  N319  1  0.71141679  0.74587499  0.03542576  1  -1.212946  0.071435  -0.323036  -0.221883  0.040944  3.561841  0.063
N  N320  1  0.40678352  0.35894121  0.27911703  1  -1.205152  0.065065  -0.325822  -0.231839  0.037313  3.578078  0.058
N  N321  1  0.09320739  0.85894140  0.22088098  1  -1.204934  0.065058  -0.325809  -0.231812  0.03731  3.578179  0.058
N  N322  1  0.59321365  0.64105559  0.72088233  1  -1.204545  0.065068  -0.325827  -0.231832  0.037314  3.578242  0.058
N  N323  1  0.90679855  0.14105594  0.77911680  1  -1.204526  0.065067  -0.325754  -0.231609  0.037313  3.578148  0.058
N  N324  1  0.87991137  0.42007070  0.95465309  1  -1.210945  0.061606  -0.317355  -0.218963  0.035243  3.54734  0.054
N  N325  1  0.62008830  0.92007317  0.54533662  1  -1.210597  0.061601  -0.317154  -0.218801  0.035242  3.547165  0.054
N  N326  1  0.12008501  0.57992448  0.04534570  1  -1.21084  0.061606  -0.317215  -0.21883  0.035243  3.547206  0.054
N  N327  1  0.37991451  0.07991932  0.45465616  1  -1.210779  0.061605  -0.317216  -0.218901  0.035244  3.547113  0.054
O  O328  1  0.87458613  0.69535847  0.21358843  1  -1.148471  0.209755  -0.557722  -0.838893  0.120125  2.386249  0.187
O  O329  1  0.62541219  0.19535836  0.28640771  1  -1.148867  0.209762  -0.557788  -0.839066  0.120129  2.38601  0.187
O  O330  1  0.12541345  0.30464318  0.78640941  1  -1.148364  0.209758  -0.557684  -0.838884  0.120127  2.386223  0.187
O  O331  1  0.37458581  0.80464005  0.71358810  1  -1.148997  0.209767  -0.557756  -0.838833  0.120128  2.386196  0.187
O  O332  1  0.08167624  0.69088068  0.20212062  1  -1.175614  0.225715  -0.559958  -0.848093  0.127984  2.358319  0.202
O  O333  1  0.41831984  0.19087840  0.29787805  1  -1.175866  0.225728  -0.559939  -0.848012  0.127991  2.358413  0.203
O  O334  1  0.91831778  0.30912205  0.79787420  1  -1.175784  0.225714  -0.55996  -0.848108  0.12798  2.358384  0.202
O  O335  1  0.58168051  0.80912271  0.70212172  1  -1.175613  0.225733  -0.559911  -0.848022  0.127991  2.358339  0.203
O  O336  1  0.73501816  0.82035148  0.15105180  1  -1.15312  0.072308  -0.299633  -0.539445  0.039703  2.424503  0.067
O  O337  1  0.76497292  0.32035322  0.34893974  1  -1.153286  0.072302  -0.29952  -0.53928  0.039697  2.42452  0.067
O  O338  1  0.26497345  0.17964694  0.84894499  1  -1.152982  0.072293  -0.299567  -0.539359  0.039693  2.424541  0.067
O  O339  1  0.23503385  0.67964573  0.65105494  1  -1.153481  0.072296  -0.299548  -0.539321  0.039694  2.424544  0.067
O  O340  1  0.87248118  0.84760580  0.23233560  1  -1.158397  0.057406  -0.3029  -0.537851  0.031716  2.396307  0.053
O  O341  1  0.62750139  0.34760732  0.26766305  1  -1.159092  0.057401  -0.303007  -0.538004  0.031716  2.396623  0.053
O  O342  1  0.12750321  0.15238831  0.76766664  1  -1.158843  0.057415  -0.302887  -0.537816  0.031723  2.39655  0.053
O  O343  1  0.37249896  0.65239325  0.73233673  1  -1.15889  0.057405  -0.302993  -0.537973  0.031718  2.396533  0.053
O  O344  1  0.30035006  0.69571183  0.23064341  1  -1.148488  0.00747  -0.319039  -0.530149  0.003447  2.103361  0.006
O  O345  1  0.19964850  0.19570459  0.26935194  1  -1.148257  0.007473  -0.318945  -0.530046  0.003448  2.103251  0.006
O  O346  1  0.69963762  0.30428712  0.76934829  1  -1.148942  0.007474  -0.319069  -0.530272  0.003449  2.103073  0.006
O  O347  1  0.80035499  0.80429813  0.73065283  1  -1.148305  0.007472  -0.31899  -0.530088  0.003448  2.103074  0.006
O  O348  1  0.24425797  0.68494054  0.12439939  1  -1.140731  0.080971  -0.318487  -0.56088  0.043968  2.343077  0.073
O  O349  1  0.25574282  0.18494277  0.37559991  1  -1.140764  0.080961  -0.318516  -0.56083  0.043962  2.343163  0.073
O  O350  1  0.75573927  0.31505249  0.87559312  1  -1.140701  0.080964  -0.318701  -0.561068  0.043962  2.342862  0.073
O  O351  1  0.74426704  0.81505618  0.62440570  1  -1.140708  0.08096  -0.318659  -0.561045  0.043961  2.342915  0.073
O  O352  1  0.04153400  0.77148984  0.31021027  1  -1.132453  0.071889  -0.303042  -0.528756  0.039452  2.361645  0.066
O  O353  1  0.45845746  0.27148346  0.18978780  1  -1.132429  0.07188  -0.30313  -0.528856  0.039449  2.36155  0.066
O  O354  1  0.95846478  0.22851612  0.68978655  1  -1.132324  0.071867  -0.303089  -0.528805  0.039442  2.361724  0.066
O  O355  1  0.54154129  0.72851442  0.81021177  1  -1.132393  0.071881  -0.303144  -0.528831  0.039448  2.361389  0.066
O  O356  1  0.03034991  0.65055787  0.32746091  1  -1.142576  0.071941  -0.302469  -0.541645  0.039474  2.345193  0.066
O  O357  1  0.46966244  0.15055209  0.17253580  1  -1.141653  0.071942  -0.302545  -0.541904  0.039473  2.345117  0.066
O  O358  1  0.96965682  0.34944701  0.67253880  1  -1.141537  0.071951  -0.30248  -0.541807  0.039478  2.345127  0.066
O  O359  1  0.53034429  0.84944471  0.82746345  1  -1.142539  0.071935  -0.3025  -0.541828  0.039471  2.345039  0.066
O  O360  1  0.10881633  0.54151107  0.25939572  1  -1.135626  0.064546  -0.297597  -0.532375  0.03541  2.364008  0.06
O  O361  1  0.39118192  0.04151564  0.24060735  1  -1.135872  0.064537  -0.297692  -0.532561  0.035405  2.364344  0.06
O  O362  1  0.89118399  0.45849165  0.74060725  1  -1.135894  0.064542  -0.297618  -0.532433  0.035409  2.364127  0.06
O  O363  1  0.60881687  0.95848870  0.75938857  1  -1.135828  0.064529  -0.297624  -0.532447  0.035403  2.364326  0.06
O  O364  1  0.18737103  0.55959530  0.17691567  1  -1.142286  0.069866  -0.301044  -0.549068  0.038283  2.454106  0.065
O  O365  1  0.31262903  0.05959730  0.32308718  1  -1.141971  0.069867  -0.301061  -0.549191  0.038286  2.454256  0.065
O  O366  1  0.81261897  0.44040042  0.82308320  1  -1.142426  0.06987  -0.301013  -0.549101  0.038285  2.454339  0.065
O  O367  1  0.68736895  0.94040381  0.67691045  1  -1.141971  0.069865  -0.301071  -0.549141  0.038284  2.45443  0.065
O  O368  1  0.79397366  0.61522993  0.09432763  1  -1.143039  0.078079  -0.295835  -0.540652  0.04311  2.410761  0.071
O  O369  1  0.70602690  0.11523675  0.40566743  1  -1.1431  0.078091  -0.295841  -0.540701  0.043118  2.410696  0.071
O  O370  1  0.20602589  0.38476525  0.90567250  1  -1.1432  0.078092  -0.295822  -0.540674  0.043118  2.410878  0.071
O  O371  1  0.29397029  0.88476652  0.59432965  1  -1.143318  0.078091  -0.295792  -0.540642  0.043117  2.410887  0.071
O  O372  1  0.96164965  0.57976628  0.14142066  1  -1.16098  0.070235  -0.302113  -0.57061  0.039389  2.514084  0.059
O  O373  1  0.53834970  0.07977756  0.35857378  1  -1.161305  0.070239  -0.302142  -0.570729  0.03939  2.514205  0.059
O  O374  1  0.03834993  0.42022567  0.85857627  1  -1.161119  0.070229  -0.302134  -0.570706  0.039388  2.514205  0.059
O  O375  1  0.46165068  0.92022247  0.64142234  1  -1.161091  0.070239  -0.302191  -0.570757  0.039392  2.514262  0.059
O  O376  1  0.91792681  0.77244227  0.11844296  1  -1.15974  0.099902  -0.32079  -0.576592  0.05601  2.545295  0.087
O  O377  1  0.58206685  0.27244033  0.38155348  1  -1.159544  0.099896  -0.320745  -0.576663  0.056009  2.545153  0.087
O  O378  1  0.08206562  0.22756368  0.88155211  1  -1.159422  0.099905  -0.320729  -0.576614  0.056015  2.545191  0.087
O  O379  1  0.41793592  0.72756185  0.61844387  1  -1.159485  0.099903  -0.32075  -0.576671  0.056014  2.545275  0.087
O  O380  1  0.01216773  0.70997273  0.06005502  1  -1.171851  0.051659  -0.318914  -0.568487  0.027813  2.359195  0.042
O  O381  1  0.48783256  0.20996869  0.43994331  1  -1.171957  0.051652  -0.319028  -0.568666  0.02781  2.35905  0.042
O  O382  1  0.98782705  0.29003215  0.93994357  1  -1.172048  0.051661  -0.318978  -0.568564  0.027815  2.359372  0.042
O  O383  1  0.51217898  0.79002595  0.56005292  1  -1.172026  0.051655  -0.318949  -0.568636  0.027811  2.359338  0.042
O  O384  1  0.99570473  0.03361895  0.08418297  1  -1.063499  7.1e-05  -0.185677  -0.152649  -1.4e-05  2.605921  0.0
O  O385  1  0.50429165  0.53361114  0.41581473  1  -1.063425  7e-05  -0.185691  -0.152688  -1.4e-05  2.605881  0.0
O  O386  1  0.00429169  0.96639024  0.91581171  1  -1.063434  7e-05  -0.185659  -0.15274  -1.4e-05  2.606047  0.0
O  O387  1  0.49569122  0.46638728  0.58417999  1  -1.063214  7e-05  -0.185666  -0.152612  -1.4e-05  2.605728  0.0
O  O388  1  0.19787186  0.02728788  0.05521868  1  -1.063608  0.006721  -0.190013  -0.150039  0.003419  2.601257  0.005
O  O389  1  0.30212775  0.52728115  0.44479097  1  -1.063466  0.006721  -0.189795  -0.149835  0.003418  2.601252  0.005
O  O390  1  0.80213564  0.97271646  0.94478387  1  -1.06324  0.006722  -0.189981  -0.150075  0.003419  2.601096  0.005
O  O391  1  0.69787323  0.47271080  0.55522536  1  -1.063362  0.00672  -0.189917  -0.149901  0.003418  2.600967  0.005
O  O392  1  0.28512051  0.90508829  0.03668161  1  -1.069407  0.000219  -0.19718  -0.165398  6.2e-05  2.58072  0.0
O  O393  1  0.21488750  0.40508008  0.46333604  1  -1.06883  0.000219  -0.197209  -0.165514  6.1e-05  2.580854  0.0
O  O394  1  0.71487830  0.09491336  0.96331202  1  -1.069454  0.000219  -0.197139  -0.165405  6.2e-05  2.580722  0.0
O  O395  1  0.78513407  0.59490218  0.53669490  1  -1.069573  0.000219  -0.197178  -0.165351  6.2e-05  2.580799  0.0
