# generated using pymatgen
data_Dy2H37C39N7O16
_symmetry_space_group_name_H-M   'P 1'
_cell_length_a   15.16280017
_cell_length_b   15.16282703
_cell_length_c   25.15752235
_cell_angle_alpha   78.21160993
_cell_angle_beta   78.21164953
_cell_angle_gamma   71.83254237
_symmetry_Int_Tables_number   1
_chemical_formula_structural   Dy2H37C39N7O16
_chemical_formula_sum   'Dy8 H148 C156 N28 O64'
_cell_volume   5317.92393420
_cell_formula_units_Z   4
loop_
 _symmetry_equiv_pos_site_id
 _symmetry_equiv_pos_as_xyz
  1  'x, y, z'
loop_
 _atom_site_type_symbol
 _atom_site_label
 _atom_site_symmetry_multiplicity
 _atom_site_fract_x
 _atom_site_fract_y
 _atom_site_fract_z
 _atom_site_occupancy
 _atom_site_pbe_bader_charge
 _atom_site_pbe_bader_spin_density
 _atom_site_pbe_cm5_charge
 _atom_site_pbe_ddec_charge
 _atom_site_pbe_ddec_spin_density
 _atom_site_pbe_ddec_sum_bond_order
 _atom_site_pbe_magmom
Dy  Dy0  1  0.83126141  0.98311039  0.25825778  1  2.194052  0  1.536362  2.088068  0  2.188198  0
Dy  Dy1  1  0.01689071  0.16874121  0.24174210  1  2.19406  0  1.53637  2.088038  0  2.188238  0
Dy  Dy2  1  0.16874085  0.01688983  0.74174269  1  2.194003  0  1.536357  2.088036  0  2.188495  0
Dy  Dy3  1  0.98311084  0.83126257  0.75825842  1  2.194022  0  1.536325  2.087962  0  2.188065  0
Dy  Dy4  1  0.52472999  0.90528127  0.94234929  1  2.191202  0  1.515987  2.072894  0  2.163406  0
Dy  Dy5  1  0.09471909  0.47526938  0.55765099  1  2.191159  0  1.515925  2.072803  0  2.163529  0
Dy  Dy6  1  0.47526666  0.09471918  0.05765064  1  2.191173  0  1.515962  2.072824  0  2.163584  0
Dy  Dy7  1  0.90527966  0.52473317  0.44234843  1  2.1912  0  1.515956  2.07285  0  2.163502  0
H  H8  1  0.20477965  0.01712889  0.13049192  1  0.122728  0  0.114175  0.115017  0  1.026908  0
H  H9  1  0.98287361  0.79521891  0.36950919  1  0.122765  0  0.114189  0.115045  0  1.026932  0
H  H10  1  0.79521980  0.98287414  0.86950895  1  0.122757  0  0.114174  0.115005  0  1.026951  0
H  H11  1  0.01712514  0.20478365  0.63049103  1  0.12269  0  0.114183  0.115077  0  1.02692  0
H  H12  1  0.71982050  0.12727521  0.13852124  1  0.162524  0  0.120411  0.138753  0  1.011503  0
H  H13  1  0.87272382  0.28017916  0.36148067  1  0.162262  0  0.120384  0.138753  0  1.011428  0
H  H14  1  0.28018247  0.87272414  0.86148004  1  0.162236  0  0.120389  0.138719  0  1.011434  0
H  H15  1  0.12728125  0.71981892  0.63851852  1  0.162327  0  0.120403  0.138778  0  1.011434  0
H  H16  1  0.32195452  0.06052373  0.88155456  1  0.1321  0  0.123799  0.13967  0  0.999487  0
H  H17  1  0.93947546  0.67804334  0.61844666  1  0.132063  0  0.123807  0.139705  0  0.999478  0
H  H18  1  0.67804283  0.93947855  0.11844507  1  0.132068  0  0.123799  0.139669  0  0.999476  0
H  H19  1  0.06052258  0.32195739  0.38155427  1  0.132053  0  0.123793  0.13967  0  0.999467  0
H  H20  1  0.65203717  0.99073623  0.36836579  1  0.153621  0  0.12424  0.049759  0  1.045848  0
H  H21  1  0.00926082  0.34796279  0.13163247  1  0.153623  0  0.12423  0.04972  0  1.045878  0
H  H22  1  0.34796369  0.00926304  0.63163338  1  0.153599  0  0.124231  0.049756  0  1.045905  0
H  H23  1  0.99074355  0.65203482  0.86836607  1  0.153547  0  0.124222  0.049694  0  1.045855  0
H  H24  1  0.67421440  0.68149641  0.94881246  1  0.176123  0  0.133892  0.06666  0  1.010161  0
H  H25  1  0.31850368  0.32578318  0.55118621  1  0.176276  0  0.133926  0.066783  0  1.010159  0
H  H26  1  0.32578225  0.31850203  0.05118494  1  0.176302  0  0.133913  0.066736  0  1.010201  0
H  H27  1  0.68149718  0.67421744  0.44881240  1  0.176346  0  0.133876  0.066624  0  1.01019  0
H  H28  1  0.68411421  0.94635915  0.82328634  1  0.12961  0  0.137794  0.070064  0  0.982729  0
H  H29  1  0.05364327  0.31588829  0.67671296  1  0.129627  0  0.137815  0.070065  0  0.982778  0
H  H30  1  0.31588945  0.05364067  0.17671282  1  0.12965  0  0.137808  0.070056  0  0.982804  0
H  H31  1  0.94635899  0.68411261  0.32328584  1  0.129646  0  0.137823  0.070094  0  0.982721  0
H  H32  1  0.56473706  0.04619228  0.21590615  1  0.123329  0  0.129529  0.059687  0  0.989432  0
H  H33  1  0.95380879  0.43526271  0.28409548  1  0.123307  0  0.129523  0.059677  0  0.989429  0
H  H34  1  0.43526310  0.95380247  0.78409525  1  0.123405  0  0.129612  0.05973  0  0.989652  0
H  H35  1  0.04618926  0.56473869  0.71590496  1  0.123326  0  0.129502  0.05966  0  0.989359  0
H  H36  1  0.31079657  0.79876700  0.02921832  1  0.101535  0  0.115495  0.127782  0  1.008713  0
H  H37  1  0.20123584  0.68920210  0.47078133  1  0.101665  0  0.115493  0.127812  0  1.008741  0
H  H38  1  0.68919867  0.20123654  0.97078142  1  0.101625  0  0.115484  0.12776  0  1.008814  0
H  H39  1  0.79876221  0.31079593  0.52921913  1  0.101644  0  0.115444  0.127667  0  1.008816  0
H  H40  1  0.59468211  0.37937640  0.03447010  1  0.12921  0  0.115323  0.127632  0  0.9821  0
H  H41  1  0.62061788  0.40531634  0.46553005  1  0.129075  0  0.115333  0.127645  0  0.982016  0
H  H42  1  0.40531946  0.62061795  0.96553078  1  0.12918  0  0.115326  0.127646  0  0.982021  0
H  H43  1  0.37938579  0.59468281  0.53446919  1  0.128999  0  0.115338  0.127639  0  0.982053  0
H  H44  1  0.12756912  0.31159735  0.81368278  1  0.072565  0  0.111196  0.119551  0  0.995904  0
H  H45  1  0.68839973  0.87242619  0.68632045  1  0.072507  0  0.111211  0.119589  0  0.995853  0
H  H46  1  0.87242963  0.68840048  0.18631682  1  0.072543  0  0.111218  0.119599  0  0.995848  0
H  H47  1  0.31159832  0.12757049  0.31368296  1  0.072537  0  0.1112  0.119578  0  0.9959  0
H  H48  1  0.76963477  0.78113900  0.48276551  1  0.071073  0  0.103824  0.119207  0  1.040919  0
H  H49  1  0.21886231  0.23036476  0.01723357  1  0.071129  0  0.103826  0.119199  0  1.040973  0
H  H50  1  0.23036468  0.21886066  0.51723537  1  0.071086  0  0.103823  0.119219  0  1.040934  0
H  H51  1  0.78113785  0.76963404  0.98276415  1  0.071081  0  0.103808  0.119194  0  1.040917  0
H  H52  1  0.82766608  0.86903334  0.47848240  1  0.035925  0  0.105565  0.118782  0  0.969795  0
H  H53  1  0.13096749  0.17233275  0.02151602  1  0.035873  0  0.105574  0.118765  0  0.969708  0
H  H54  1  0.17233337  0.13096700  0.52151721  1  0.035916  0  0.105585  0.118803  0  0.969706  0
H  H55  1  0.86903056  0.82766731  0.97848220  1  0.035946  0  0.105585  0.118795  0  0.969754  0
H  H56  1  0.84461739  0.80819264  0.42142870  1  0.123755  0  0.114372  0.137347  0  1.02378  0
H  H57  1  0.19180724  0.15538212  0.07856978  1  0.123797  0  0.114358  0.137338  0  1.023791  0
H  H58  1  0.15538277  0.19180683  0.57857133  1  0.123768  0  0.114362  0.137329  0  1.023781  0
H  H59  1  0.80819222  0.84461754  0.92142792  1  0.123733  0  0.114353  0.137322  0  1.023774  0
H  H60  1  0.73074333  0.76233686  0.80329139  1  0.105449  0  0.11445  0.141617  0  1.011595  0
H  H61  1  0.23766447  0.26925710  0.69670757  1  0.105472  0  0.114464  0.141614  0  1.011592  0
H  H62  1  0.26925683  0.23766328  0.19670696  1  0.105428  0  0.114473  0.141626  0  1.011578  0
H  H63  1  0.76233498  0.73074593  0.30329092  1  0.105496  0  0.114433  0.141558  0  1.011533  0
H  H64  1  0.72818491  0.65148522  0.78945558  1  0.022608  0  0.096357  0.10024  0  0.9997  0
H  H65  1  0.34851635  0.27181701  0.71054360  1  0.022628  0  0.096358  0.100235  0  0.999629  0
H  H66  1  0.27181665  0.34851520  0.21054297  1  0.022621  0  0.096356  0.100228  0  0.999671  0
H  H67  1  0.65148240  0.72818689  0.28945566  1  0.022964  0  0.096318  0.100155  0  0.9997  0
H  H68  1  0.83509837  0.66838116  0.79938451  1  0.103545  0  0.109282  0.119616  0  1.015278  0
H  H69  1  0.33161936  0.16490332  0.70061485  1  0.103591  0  0.109309  0.119643  0  1.015264  0
H  H70  1  0.16490178  0.33161831  0.20061472  1  0.10356  0  0.109281  0.119633  0  1.015228  0
H  H71  1  0.66837868  0.83510010  0.29938455  1  0.103501  0  0.109281  0.119604  0  1.015268  0
H  H72  1  0.50511439  0.09202327  0.71975082  1  0.072545  0  0.103948  0.112579  0  1.000739  0
H  H73  1  0.90797788  0.49488525  0.78024919  1  0.072716  0  0.103947  0.112599  0  1.000728  0
H  H74  1  0.49488365  0.90797813  0.28025082  1  0.072915  0  0.103939  0.112581  0  1.00074  0
H  H75  1  0.09202298  0.50511470  0.21974910  1  0.072658  0  0.103932  0.11257  0  1.000763  0
H  H76  1  0.53220111  0.18642275  0.73891897  1  0.073262  0  0.104974  0.11227  0  0.9868  0
H  H77  1  0.81357825  0.46779877  0.76108021  1  0.073285  0  0.104984  0.112293  0  0.986773  0
H  H78  1  0.46779764  0.81357845  0.26108181  1  0.073269  0  0.104967  0.112272  0  0.986804  0
H  H79  1  0.18642261  0.53220185  0.23891840  1  0.073251  0  0.104976  0.112288  0  0.986766  0
H  H80  1  0.46913071  0.11614991  0.78891321  1  0.120096  0  0.115768  0.137773  0  0.997908  0
H  H81  1  0.88385147  0.53086898  0.71108594  1  0.120085  0  0.115775  0.137776  0  0.997866  0
H  H82  1  0.53086944  0.88385157  0.21108696  1  0.120121  0  0.115776  0.137798  0  0.997854  0
H  H83  1  0.11614939  0.46913096  0.28891235  1  0.120118  0  0.115785  0.137797  0  0.997886  0
H  H84  1  0.65315319  0.18314555  0.28275392  1  0.143039  0  0.116931  0.137598  0  1.047572  0
H  H85  1  0.81685645  0.34684377  0.21724714  1  0.142983  0  0.116927  0.137568  0  1.04759  0
H  H86  1  0.34684556  0.81685498  0.71724655  1  0.143055  0  0.116932  0.137598  0  1.047567  0
H  H87  1  0.18314510  0.65315732  0.78275292  1  0.142977  0  0.116921  0.13758  0  1.047564  0
H  H88  1  0.53993296  0.26740379  0.28979816  1  0.036426  0  0.099417  0.109129  0  0.994549  0
H  H89  1  0.73259822  0.46006344  0.21020330  1  0.036507  0  0.099392  0.109052  0  0.994361  0
H  H90  1  0.46006509  0.73259425  0.71020190  1  0.036432  0  0.099405  0.109102  0  0.994475  0
H  H91  1  0.26740404  0.53993678  0.78979677  1  0.036478  0  0.099381  0.109067  0  0.994395  0
H  H92  1  0.62289016  0.27976527  0.22882239  1  0.031573  0  0.101218  0.11473  0  0.991504  0
H  H93  1  0.72023556  0.37710609  0.27117925  1  0.031434  0  0.101202  0.114674  0  0.991478  0
H  H94  1  0.37710649  0.72023316  0.77117780  1  0.031533  0  0.101233  0.114701  0  0.991461  0
H  H95  1  0.27976600  0.62289500  0.72882040  1  0.031386  0  0.101238  0.114728  0  0.991465  0
H  H96  1  0.58365551  0.00502508  0.45079878  1  0.083173  0  0.107411  0.124706  0  1.027462  0
H  H97  1  0.99497513  0.41634347  0.04919950  1  0.083219  0  0.107419  0.124679  0  1.027485  0
H  H98  1  0.41634465  0.99497505  0.54920037  1  0.083191  0  0.107428  0.124718  0  1.027447  0
H  H99  1  0.00502362  0.58365639  0.95080065  1  0.083218  0  0.107432  0.124737  0  1.027451  0
H  H100  1  0.66138529  0.98737790  0.49912354  1  0.050932  0  0.102139  0.120227  0  0.995112  0
H  H101  1  0.01262169  0.33861338  0.00087457  1  0.050831  0  0.102168  0.120238  0  0.995142  0
H  H102  1  0.33861487  0.01262156  0.50087529  1  0.050884  0  0.102155  0.120232  0  0.995107  0
H  H103  1  0.98737636  0.66138667  0.99912485  1  0.050892  0  0.102169  0.120296  0  0.995071  0
H  H104  1  0.60585701  0.89896561  0.49918024  1  0.049611  0  0.100782  0.115388  0  1.003353  0
H  H105  1  0.10103575  0.39414123  0.00081811  1  0.049598  0  0.100812  0.115469  0  1.003315  0
H  H106  1  0.39414174  0.10103425  0.50081912  1  0.049606  0  0.100801  0.115414  0  1.003343  0
H  H107  1  0.89896300  0.60586065  0.99918020  1  0.049632  0  0.100791  0.115464  0  1.003343  0
H  H108  1  0.76103278  0.54239410  0.93547506  1  0.118769  0  0.108476  0.129255  0  1.047319  0
H  H109  1  0.45760752  0.23896498  0.56452427  1  0.118745  0  0.108483  0.129292  0  1.047268  0
H  H110  1  0.23896527  0.45760731  0.06452380  1  0.118723  0  0.108469  0.129268  0  1.047285  0
H  H111  1  0.54239474  0.76103523  0.43547620  1  0.118738  0  0.108472  0.129255  0  1.047306  0
H  H112  1  0.85718911  0.53936206  0.88084690  1  0.063751  0  0.102216  0.115157  0  0.993083  0
H  H113  1  0.46063708  0.14281070  0.61915330  1  0.063721  0  0.10222  0.115189  0  0.993085  0
H  H114  1  0.14280964  0.46063780  0.11915285  1  0.063712  0  0.102214  0.115171  0  0.993105  0
H  H115  1  0.53936237  0.85719300  0.38084828  1  0.063679  0  0.102219  0.115185  0  0.993013  0
H  H116  1  0.75581208  0.51168213  0.87151983  1  0.038983  0  0.099124  0.109398  0  0.990221  0
H  H117  1  0.48831859  0.24418594  0.62847918  1  0.039004  0  0.099136  0.109417  0  0.990241  0
H  H118  1  0.24418668  0.48831638  0.12847889  1  0.039051  0  0.099118  0.109359  0  0.990207  0
H  H119  1  0.51168086  0.75581641  0.37152257  1  0.039072  0  0.099115  0.10937  0  0.990195  0
H  H120  1  0.75901637  0.00441558  0.74657489  1  0.125614  0  0.119359  0.140719  0  1.019157  0
H  H121  1  0.99558510  0.24098258  0.75342458  1  0.125606  0  0.119366  0.140736  0  1.019165  0
H  H122  1  0.24098239  0.99558361  0.25342455  1  0.125601  0  0.119346  0.140724  0  1.019146  0
H  H123  1  0.00441506  0.75901688  0.24657545  1  0.125607  0  0.119368  0.14073  0  1.019164  0
H  H124  1  0.70917718  0.12878863  0.72960203  1  0.060552  0  0.102269  0.113401  0  0.981072  0
H  H125  1  0.87121095  0.29082223  0.77039706  1  0.060565  0  0.102262  0.113419  0  0.981037  0
H  H126  1  0.29082228  0.87121170  0.27039678  1  0.060536  0  0.102246  0.113397  0  0.981076  0
H  H127  1  0.12878850  0.70917810  0.22960215  1  0.060546  0  0.102271  0.113404  0  0.981064  0
H  H128  1  0.69412468  0.04979908  0.69076469  1  0.062013  0  0.101853  0.111842  0  1.000573  0
H  H129  1  0.95020057  0.30587340  0.80923418  1  0.061665  0  0.101831  0.111813  0  1.000627  0
H  H130  1  0.30587197  0.95019934  0.30923430  1  0.061672  0  0.101849  0.11183  0  1.00069  0
H  H131  1  0.04979888  0.69412761  0.19076495  1  0.061701  0  0.101838  0.111807  0  1.00064  0
H  H132  1  0.46265462  0.17087120  0.18752704  1  0.102598  0  0.115953  0.13081  0  1.030609  0
H  H133  1  0.82912630  0.53734508  0.31247338  1  0.102634  0  0.115955  0.13081  0  1.030616  0
H  H134  1  0.53734694  0.82912248  0.81247432  1  0.102709  0  0.11596  0.130812  0  1.030657  0
H  H135  1  0.17087034  0.46265739  0.68752711  1  0.102724  0  0.115957  0.130819  0  1.030569  0
H  H136  1  0.49505162  0.27719935  0.17597087  1  0.067753  0  0.104314  0.119763  0  0.985451  0
H  H137  1  0.72279901  0.50494653  0.32403000  1  0.067705  0  0.10429  0.119738  0  0.985498  0
H  H138  1  0.50494784  0.72279424  0.82403075  1  0.067637  0  0.104306  0.119762  0  0.985556  0
H  H139  1  0.27719904  0.49505420  0.67597013  1  0.06766  0  0.104305  0.119732  0  0.985482  0
H  H140  1  0.41876972  0.25000156  0.23724369  1  0.041957  0  0.096354  0.10185  0  1.013625  0
H  H141  1  0.74999718  0.58122911  0.26275545  1  0.042032  0  0.096363  0.101861  0  1.013578  0
H  H142  1  0.58122974  0.74999271  0.76275785  1  0.041945  0  0.09636  0.101875  0  1.013564  0
H  H143  1  0.25000086  0.41877162  0.73724428  1  0.04203  0  0.096361  0.101862  0  1.013584  0
H  H144  1  0.03703839  0.83596188  0.13088507  1  0.109708  0  0.115659  0.124215  0  1.000303  0
H  H145  1  0.16404137  0.96295955  0.36911413  1  0.109631  0  0.115657  0.124217  0  1.000316  0
H  H146  1  0.96296036  0.16404201  0.86911618  1  0.10969  0  0.115664  0.124222  0  1.00025  0
H  H147  1  0.83596158  0.03704115  0.63088819  1  0.109748  0  0.115643  0.124184  0  1.000354  0
H  H148  1  0.82727670  0.36638478  0.11459855  1  0.128548  0  0.111197  0.1204  0  1.030445  0
H  H149  1  0.63361695  0.17271838  0.38540078  1  0.128477  0  0.111184  0.120351  0  1.030434  0
H  H150  1  0.17272557  0.63361545  0.88539914  1  0.1286  0  0.111178  0.120421  0  1.030503  0
H  H151  1  0.36638601  0.82728029  0.61459980  1  0.128457  0  0.111177  0.120388  0  1.030453  0
H  H152  1  0.28822903  0.32334440  0.93517082  1  0.171122  0  0.109958  0.123015  0  1.053466  0
H  H153  1  0.67665607  0.71177050  0.56482835  1  0.171117  0  0.109949  0.122985  0  1.053506  0
H  H154  1  0.71176762  0.67665605  0.06482872  1  0.171193  0  0.109983  0.123072  0  1.053411  0
H  H155  1  0.32334338  0.28823051  0.43517237  1  0.171188  0  0.109951  0.123015  0  1.053436  0
C  C156  1  0.11471225  0.92977713  0.13561747  1  0.015964  0  -0.01197  -0.032687  0  3.953297  0
C  C157  1  0.07022579  0.88528507  0.36438223  1  0.015992  0  -0.011939  -0.032659  0  3.953205  0
C  C158  1  0.88528649  0.07022744  0.86438369  1  0.01618  0  -0.012012  -0.032732  0  3.95316  0
C  C159  1  0.92977787  0.11471609  0.63562114  1  0.015826  0  -0.011895  -0.032471  0  3.952995  0
C  C160  1  0.77890675  0.24233676  0.13167029  1  -0.029525  0  -0.010091  -0.03295  0  3.952988  0
C  C161  1  0.75766446  0.22109272  0.36833057  1  -0.029483  0  -0.010083  -0.032803  0  3.952816  0
C  C162  1  0.22109690  0.75766441  0.86833109  1  -0.029619  0  -0.010048  -0.032741  0  3.952974  0
C  C163  1  0.24233991  0.77890624  0.63166820  1  -0.029461  0  -0.009899  -0.032535  0  3.952652  0
C  C164  1  0.31418049  0.18748079  0.91123744  1  0.032486  0  -0.006954  -0.025204  0  3.94087  0
C  C165  1  0.81251962  0.68581626  0.58876372  1  0.032616  0  -0.006955  -0.02512  0  3.940758  0
C  C166  1  0.68581404  0.81252092  0.08876340  1  0.033002  0  -0.006934  -0.025132  0  3.940829  0
C  C167  1  0.18747913  0.31418427  0.41123715  1  0.033004  0  -0.006923  -0.02507  0  3.94093  0
C  C168  1  0.19631859  0.95802946  0.11569373  1  -0.0561  0  -0.061148  -0.083708  0  3.897583  0
C  C169  1  0.04197302  0.80367839  0.38430648  1  -0.05608  0  -0.061174  -0.083727  0  3.897508  0
C  C170  1  0.80367806  0.04197301  0.88430676  1  -0.056156  0  -0.061128  -0.083648  0  3.897386  0
C  C171  1  0.95802573  0.19632349  0.61569501  1  -0.05609  0  -0.061233  -0.083936  0  3.897647  0
C  C172  1  0.71687239  0.19957120  0.12018865  1  -0.01541  0  -0.056279  -0.076802  0  3.855931  0
C  C173  1  0.80042731  0.28312680  0.37981337  1  -0.015092  0  -0.05625  -0.076839  0  3.856029  0
C  C174  1  0.28313057  0.80042747  0.87981352  1  -0.01493  0  -0.056264  -0.076804  0  3.856064  0
C  C175  1  0.19957636  0.71687168  0.62018635  1  -0.015038  0  -0.056338  -0.076969  0  3.855894  0
C  C176  1  0.28964992  0.13613360  0.87909819  1  -0.062901  0  -0.051738  -0.076398  0  3.841288  0
C  C177  1  0.86386613  0.71034988  0.62090229  1  -0.062913  0  -0.051742  -0.076455  0  3.841373  0
C  C178  1  0.71034812  0.86386713  0.12090154  1  -0.06346  0  -0.051731  -0.07648  0  3.841262  0
C  C179  1  0.13613402  0.28965295  0.37909733  1  -0.063411  0  -0.051724  -0.076421  0  3.841281  0
C  C180  1  0.71470864  0.93468635  0.37955461  1  1.361503  0  0.180537  0.323998  0  4.078942  0
C  C181  1  0.06531175  0.28529079  0.12044402  1  1.362713  0  0.180593  0.324183  0  4.078681  0
C  C182  1  0.28529433  0.06531165  0.62044485  1  1.361369  0  0.180598  0.324065  0  4.078708  0
C  C183  1  0.93468911  0.71470915  0.87955587  1  1.363203  0  0.180598  0.324191  0  4.078958  0
C  C184  1  0.68429551  0.71411417  0.90551161  1  1.3409  0  0.190945  0.336667  0  4.042842  0
C  C185  1  0.28588910  0.31570318  0.59448692  1  1.340771  0  0.190814  0.336424  0  4.043143  0
C  C186  1  0.31570184  0.28588743  0.09448611  1  1.340745  0  0.19094  0.336607  0  4.043086  0
C  C187  1  0.71411317  0.68429704  0.40551116  1  1.34067  0  0.190885  0.336657  0  4.042822  0
C  C188  1  0.61357541  0.98981855  0.81506472  1  1.370918  0  0.187467  0.319954  0  4.081711  0
C  C189  1  0.01018426  0.38642145  0.68493717  1  1.37048  0  0.18749  0.320062  0  4.081513  0
C  C190  1  0.38642194  0.01018169  0.18493714  1  1.370483  0  0.187488  0.319969  0  4.081587  0
C  C191  1  0.98981800  0.61357473  0.31506420  1  1.370919  0  0.187474  0.319995  0  4.081676  0
C  C192  1  0.59759308  0.07887662  0.23896371  1  1.402328  0  0.193316  0.347438  0  4.061612  0
C  C193  1  0.92112286  0.40240600  0.26103701  1  1.402332  0  0.193371  0.347497  0  4.06165  0
C  C194  1  0.40241409  0.92111480  0.76104081  1  1.402188  0  0.193137  0.34734  0  4.061312  0
C  C195  1  0.07887587  0.59759991  0.73896558  1  1.4025  0  0.19337  0.347613  0  4.06174  0
C  C196  1  0.26590497  0.91212240  0.07676072  1  -0.003824  0  -0.010572  -0.030802  0  3.939932  0
C  C197  1  0.08788153  0.73409151  0.42323822  1  -0.00363  0  -0.010595  -0.030834  0  3.939904  0
C  C198  1  0.73409027  0.08788249  0.92323845  1  -0.003831  0  -0.010623  -0.030872  0  3.939891  0
C  C199  1  0.91212003  0.26590756  0.57676248  1  -0.00407  0  -0.010609  -0.030834  0  3.939827  0
C  C200  1  0.65085038  0.24891504  0.08531993  1  0.007925  0  -0.013745  -0.026065  0  3.979895  0
C  C201  1  0.75108165  0.34914891  0.41468146  1  0.007964  0  -0.013761  -0.026078  0  3.979966  0
C  C202  1  0.34915048  0.75108153  0.91468116  1  0.007888  0  -0.013749  -0.026017  0  3.979881  0
C  C203  1  0.24892202  0.65085024  0.58531698  1  0.007837  0  -0.013734  -0.026019  0  3.979981  0
C  C204  1  0.22259940  0.18109529  0.84402687  1  0.06015  0  -0.009725  -0.012616  0  3.964243  0
C  C205  1  0.81890370  0.77739622  0.65597536  1  0.060121  0  -0.009719  -0.012627  0  3.964289  0
C  C206  1  0.77739794  0.81890497  0.15597340  1  0.060218  0  -0.009683  -0.012423  0  3.964093  0
C  C207  1  0.18109435  0.22260114  0.34402677  1  0.060194  0  -0.009729  -0.012559  0  3.96406  0
C  C208  1  0.25512191  0.83532499  0.05858619  1  0.008549  0  -0.058333  -0.098425  0  3.86987  0
C  C209  1  0.16467793  0.74487567  0.44141195  1  0.008227  0  -0.05834  -0.098478  0  3.87004  0
C  C210  1  0.74487403  0.16467903  0.94141140  1  0.008375  0  -0.058354  -0.098481  0  3.870094  0
C  C211  1  0.83532433  0.25512185  0.55858765  1  0.008374  0  -0.058266  -0.098261  0  3.869941  0
C  C212  1  0.64710880  0.34128671  0.06112262  1  -0.069418  0  -0.063206  -0.117944  0  3.904142  0
C  C213  1  0.65871161  0.35288846  0.43887681  1  -0.06929  0  -0.06315  -0.11783  0  3.904219  0
C  C214  1  0.35289206  0.65871121  0.93887711  1  -0.069432  0  -0.063169  -0.117938  0  3.904256  0
C  C215  1  0.34129206  0.64710867  0.56112228  1  -0.069139  0  -0.06317  -0.11792  0  3.904299  0
C  C216  1  0.17941693  0.27731312  0.84120324  1  -0.02821  0  -0.067799  -0.123407  0  3.917004  0
C  C217  1  0.72268654  0.82057782  0.65879937  1  -0.02812  0  -0.067801  -0.123477  0  3.916903  0
C  C218  1  0.82058042  0.72268578  0.15879720  1  -0.028099  0  -0.06785  -0.12357  0  3.916826  0
C  C219  1  0.27731291  0.17941846  0.34120311  1  -0.028029  0  -0.06778  -0.123464  0  3.916796  0
C  C220  1  0.79394486  0.83779446  0.45531216  1  0.249894  0  -0.134285  -0.274186  0  3.874839  0
C  C221  1  0.16220553  0.20605509  0.04468623  1  0.24981  0  -0.134274  -0.274132  0  3.874744  0
C  C222  1  0.20605600  0.16220481  0.54468781  1  0.249874  0  -0.134318  -0.274236  0  3.874824  0
C  C223  1  0.83779463  0.79394505  0.95531133  1  0.249892  0  -0.134283  -0.274179  0  3.874886  0
C  C224  1  0.75882107  0.68623586  0.81240432  1  0.266819  0  -0.135437  -0.273412  0  3.898368  0
C  C225  1  0.31376498  0.24118071  0.68759536  1  0.266757  0  -0.135456  -0.273438  0  3.898299  0
C  C226  1  0.24117979  0.31376408  0.18759477  1  0.266881  0  -0.135429  -0.273376  0  3.898217  0
C  C227  1  0.68623376  0.75882319  0.31240390  1  0.266447  0  -0.135371  -0.273221  0  3.898214  0
C  C228  1  0.52454878  0.11533056  0.75327993  1  0.199741  0  -0.129265  -0.269558  0  3.910528  0
C  C229  1  0.88467077  0.47545044  0.74671970  1  0.199576  0  -0.129287  -0.26959  0  3.910435  0
C  C230  1  0.47545067  0.88466977  0.24672166  1  0.199326  0  -0.129234  -0.269576  0  3.910427  0
C  C231  1  0.11533079  0.52454864  0.25327821  1  0.19965  0  -0.129286  -0.269609  0  3.910477  0
C  C232  1  0.59630723  0.22901504  0.26084405  1  0.262773  0  -0.134535  -0.276797  0  3.897243  0
C  C233  1  0.77098680  0.40368891  0.23915789  1  0.262523  0  -0.134493  -0.276668  0  3.897069  0
C  C234  1  0.40369082  0.77098367  0.73915673  1  0.262822  0  -0.134476  -0.276711  0  3.896974  0
C  C235  1  0.22901546  0.59631198  0.76084250  1  0.26274  0  -0.134489  -0.276713  0  3.896955  0
C  C236  1  0.17296933  0.80705144  0.07830942  1  0.053042  0  0.000385  0.039513  0  4.12592  0
C  C237  1  0.19295262  0.82702731  0.42168988  1  0.05339  0  0.000366  0.039515  0  4.125868  0
C  C238  1  0.82702520  0.19295432  0.92168893  1  0.053643  0  0.000355  0.039533  0  4.125781  0
C  C239  1  0.80704964  0.17297223  0.57831226  1  0.053499  0  0.000304  0.039455  0  4.126044  0
C  C240  1  0.71144603  0.38299295  0.07143383  1  0.038264  0  0.000948  0.043533  0  4.129053  0
C  C241  1  0.61700554  0.28854967  0.42856617  1  0.037852  0  0.00087  0.043345  0  4.129195  0
C  C242  1  0.28855413  0.61700651  0.92856540  1  0.03831  0  0.000867  0.043433  0  4.129259  0
C  C243  1  0.38299602  0.71144805  0.57143469  1  0.037799  0  0.000898  0.04352  0  4.129142  0
C  C244  1  0.20244540  0.32823578  0.87459406  1  0.094381  0  -0.003972  0.033793  0  4.138026  0
C  C245  1  0.67176465  0.79755124  0.62540743  1  0.094431  0  -0.00394  0.033978  0  4.137861  0
C  C246  1  0.79755195  0.67176448  0.12540542  1  0.094388  0  -0.003974  0.033838  0  4.137764  0
C  C247  1  0.32823690  0.20244917  0.37459390  1  0.094367  0  -0.003983  0.033868  0  4.137765  0
C  C248  1  0.63704108  0.95252589  0.47296494  1  0.296355  0  -0.131396  -0.276313  0  3.895281  0
C  C249  1  0.04747425  0.36295839  0.02703221  1  0.296417  0  -0.131463  -0.276383  0  3.895238  0
C  C250  1  0.36295837  0.04747377  0.52703435  1  0.296361  0  -0.131469  -0.276382  0  3.895274  0
C  C251  1  0.95252451  0.63704147  0.97296675  1  0.296345  0  -0.131467  -0.276553  0  3.895344  0
C  C252  1  0.78018833  0.55683525  0.89090413  1  0.245735  0  -0.134397  -0.284659  0  3.935215  0
C  C253  1  0.44316600  0.21980961  0.60909522  1  0.245708  0  -0.134451  -0.2848  0  3.935216  0
C  C254  1  0.21980972  0.44316481  0.10909449  1  0.24572  0  -0.134401  -0.284634  0  3.935159  0
C  C255  1  0.55683556  0.78019148  0.39090523  1  0.245741  0  -0.134405  -0.284683  0  3.935096  0
C  C256  1  0.69863493  0.05931770  0.73222026  1  0.227795  0  -0.129494  -0.284561  0  3.927862  0
C  C257  1  0.94068250  0.30136501  0.76777831  1  0.227954  0  -0.12949  -0.284584  0  3.927905  0
C  C258  1  0.30136453  0.94068196  0.26777864  1  0.228001  0  -0.129455  -0.284593  0  3.927944  0
C  C259  1  0.05931696  0.69863465  0.23222058  1  0.228163  0  -0.129501  -0.284561  0  3.9279  0
C  C260  1  0.47961020  0.21991081  0.20758036  1  0.253206  0  -0.130335  -0.278757  0  3.913136  0
C  C261  1  0.78008759  0.52038731  0.29242100  1  0.253155  0  -0.130326  -0.27878  0  3.913174  0
C  C262  1  0.52038856  0.78008433  0.79242116  1  0.252893  0  -0.130352  -0.278842  0  3.913122  0
C  C263  1  0.21991116  0.47961323  0.70757907  1  0.253112  0  -0.130334  -0.278753  0  3.913108  0
C  C264  1  0.10214752  0.85538179  0.11618812  1  -0.011245  0  -0.063509  -0.112261  0  3.908759  0
C  C265  1  0.14462049  0.89785117  0.38381111  1  -0.011406  0  -0.063526  -0.11233  0  3.908827  0
C  C266  1  0.89784982  0.14461980  0.88381398  1  -0.011551  0  -0.063466  -0.112208  0  3.908677  0
C  C267  1  0.85537825  0.10215070  0.61619197  1  -0.011317  0  -0.063518  -0.112327  0  3.908784  0
C  C268  1  0.77787211  0.33351634  0.10648044  1  0.045748  0  -0.061234  -0.107735  0  3.885498  0
C  C269  1  0.66648341  0.22212515  0.39352005  1  0.046126  0  -0.061232  -0.107748  0  3.885353  0
C  C270  1  0.22213226  0.66648127  0.89351651  1  0.045687  0  -0.061195  -0.10781  0  3.885634  0
C  C271  1  0.33352096  0.77787245  0.60648009  1  0.046047  0  -0.061324  -0.10796  0  3.885647  0
C  C272  1  0.27036675  0.28370253  0.90934036  1  -0.09588  0  -0.06317  -0.117385  0  3.897439  0
C  C273  1  0.71629555  0.72963252  0.59065993  1  -0.095888  0  -0.063181  -0.117467  0  3.897412  0
C  C274  1  0.72962919  0.71629812  0.09065924  1  -0.09599  0  -0.063217  -0.117538  0  3.897423  0
C  C275  1  0.28370180  0.27037043  0.40934001  1  -0.095961  0  -0.063222  -0.117537  0  3.897452  0
C  C276  1  0.04006492  0.97860159  0.17794324  1  1.632007  0  0.235393  0.658561  0  4.155029  0
C  C277  1  0.02140014  0.95993459  0.32205709  1  1.632088  0  0.23544  0.658669  0  4.154905  0
C  C278  1  0.95993313  0.02139442  0.82206024  1  1.631833  0  0.235333  0.65858  0  4.15484  0
C  C279  1  0.97859861  0.04006594  0.67794417  1  1.631951  0  0.235394  0.658564  0  4.154834  0
C  C280  1  0.84256836  0.19130597  0.17355161  1  1.60819  0  0.237696  0.655168  0  4.155949  0
C  C281  1  0.80869790  0.15743001  0.32644950  1  1.608913  0  0.237715  0.655106  0  4.155846  0
C  C282  1  0.15743601  0.80868961  0.82644798  1  1.60904  0  0.237612  0.654869  0  4.15603  0
C  C283  1  0.19130226  0.84256541  0.67355142  1  1.608664  0  0.237667  0.654985  0  4.156207  0
C  C284  1  0.38376333  0.13866963  0.95030127  1  1.602833  0  0.233376  0.645073  0  4.155526  0
C  C285  1  0.86132743  0.61623511  0.54970013  1  1.602192  0  0.233403  0.645033  0  4.15541  0
C  C286  1  0.61623191  0.86132852  0.04969912  1  1.602312  0  0.233426  0.645202  0  4.155324  0
C  C287  1  0.13866852  0.38376486  0.45030154  1  1.60235  0  0.233366  0.644962  0  4.155648  0
C  C288  1  0.35174822  0.94573498  0.05298840  1  1.604433  0  0.232128  0.646712  0  4.156109  0
C  C289  1  0.05426658  0.64825080  0.44700934  1  1.604833  0  0.232105  0.64661  0  4.156153  0
C  C290  1  0.64824843  0.05426749  0.94701050  1  1.605424  0  0.232123  0.646592  0  4.156233  0
C  C291  1  0.94573147  0.35175263  0.55298887  1  1.605701  0  0.232168  0.646694  0  4.156103  0
C  C292  1  0.58264351  0.20230591  0.07581778  1  1.542077  0  0.181459  0.548036  0  4.29003  0
C  C293  1  0.79769124  0.41735739  0.42418216  1  1.542032  0  0.18163  0.548198  0  4.289745  0
C  C294  1  0.41735664  0.79769422  0.92418415  1  1.542035  0  0.181477  0.548011  0  4.290072  0
C  C295  1  0.20231102  0.58264216  0.57581561  1  1.542284  0  0.181541  0.548068  0  4.289789  0
C  C296  1  0.19721577  0.12469030  0.81005642  1  1.566485  0  0.186045  0.560872  0  4.256964  0
C  C297  1  0.87530774  0.80278492  0.68994453  1  1.566367  0  0.186088  0.560968  0  4.256903  0
C  C298  1  0.80278439  0.87530849  0.18994289  1  1.566407  0  0.186069  0.560865  0  4.25697  0
C  C299  1  0.12469031  0.19721446  0.31005736  1  1.566577  0  0.186074  0.56083  0  4.257011  0
C  C300  1  0.15958916  0.72864466  0.06104592  1  0.821587  0  0.182862  0.241598  0  4.025801  0
C  C301  1  0.27136074  0.84040744  0.43895364  1  0.821477  0  0.182844  0.241654  0  4.025985  0
C  C302  1  0.84040607  0.27136225  0.93895300  1  0.821382  0  0.182877  0.241656  0  4.025855  0
C  C303  1  0.72863942  0.15958932  0.56104989  1  0.821774  0  0.182827  0.241532  0  4.025858  0
C  C304  1  0.71026029  0.47660223  0.04692056  1  0.843878  0  0.197612  0.258601  0  3.997579  0
C  C305  1  0.52339540  0.28973584  0.45307906  1  0.843956  0  0.19762  0.258668  0  3.997469  0
C  C306  1  0.28974268  0.52339443  0.95307708  1  0.843811  0  0.197703  0.25875  0  3.997315  0
C  C307  1  0.47660756  0.71026148  0.54692287  1  0.843968  0  0.197569  0.258661  0  3.997447  0
C  C308  1  0.15382874  0.42511004  0.87477694  1  0.824316  0  0.193232  0.247612  0  4.01805  0
C  C309  1  0.57489077  0.84617005  0.62522420  1  0.824238  0  0.193233  0.247554  0  4.018052  0
C  C310  1  0.84616791  0.57489041  0.12522181  1  0.824274  0  0.193247  0.247609  0  4.017956  0
C  C311  1  0.42511079  0.15382902  0.37477849  1  0.824312  0  0.1932  0.247565  0  4.018146  0
N  N312  1  0.71511390  0.90886863  0.43356590  1  -1.226343  0  -0.276938  0.038895  0  3.700553  0
N  N313  1  0.09113063  0.28488543  0.06643221  1  -1.226375  0  -0.27698  0.038818  0  3.70037  0
N  N314  1  0.28488556  0.09112968  0.56643435  1  -1.226354  0  -0.276897  0.038966  0  3.700514  0
N  N315  1  0.90887093  0.71511364  0.93356849  1  -1.226444  0  -0.27699  0.038856  0  3.700458  0
N  N316  1  0.73826497  0.65526486  0.87100262  1  -1.229863  0  -0.279431  0.034774  0  3.69983  0
N  N317  1  0.34473526  0.26173311  0.62899681  1  -1.22998  0  -0.279376  0.034864  0  3.699841  0
N  N318  1  0.26173448  0.34473413  0.12899596  1  -1.230005  0  -0.279465  0.034635  0  3.699873  0
N  N319  1  0.65526489  0.73826770  0.37100266  1  -1.229868  0  -0.279413  0.034762  0  3.699841  0
N  N320  1  0.61272500  0.05264504  0.76892745  1  -1.21634  0  -0.283067  0.025874  0  3.711766  0
N  N321  1  0.94735630  0.38727603  0.73107201  1  -1.216167  0  -0.283035  0.025865  0  3.711804  0
N  N322  1  0.38727585  0.94735557  0.23107275  1  -1.216201  0  -0.283093  0.025935  0  3.711755  0
N  N323  1  0.05264526  0.61272438  0.26892693  1  -1.216456  0  -0.283068  0.02589  0  3.711693  0
N  N324  1  0.56023330  0.17199444  0.23561400  1  -1.222003  0  -0.277769  0.028601  0  3.718227  0
N  N325  1  0.82800574  0.43976546  0.26438703  1  -1.221723  0  -0.277776  0.028704  0  3.718223  0
N  N326  1  0.43976264  0.82800687  0.76438711  1  -1.221791  0  -0.277646  0.028903  0  3.718118  0
N  N327  1  0.17199653  0.56023274  0.73561210  1  -1.221902  0  -0.277818  0.028534  0  3.717816  0
N  N328  1  0.14607431  0.66414845  0.04877798  1  -1.159719  0  -0.31434  -0.383819  0  2.776886  0
N  N329  1  0.33585562  0.85392183  0.45122182  1  -1.159727  0  -0.314302  -0.38384  0  2.777185  0
N  N330  1  0.85392093  0.33585712  0.95122071  1  -1.159714  0  -0.314336  -0.383876  0  2.777125  0
N  N331  1  0.66414524  0.14607406  0.54878094  1  -1.160001  0  -0.314256  -0.383726  0  2.777078  0
N  N332  1  0.71070666  0.55335072  0.02746238  1  -1.197457  0  -0.298085  -0.372404  0  2.848249  0
N  N333  1  0.44664803  0.28928936  0.47253790  1  -1.197512  0  -0.298029  -0.372372  0  2.848171  0
N  N334  1  0.28929351  0.44664672  0.97253631  1  -1.197487  0  -0.298096  -0.372463  0  2.848089  0
N  N335  1  0.55335563  0.71071046  0.52746285  1  -1.197589  0  -0.297979  -0.372386  0  2.848249  0
N  N336  1  0.11257850  0.50414392  0.87556749  1  -1.186089  0  -0.294536  -0.367186  0  2.850647  0
N  N337  1  0.49585827  0.88742097  0.62443256  1  -1.186037  0  -0.29456  -0.367186  0  2.85069  0
N  N338  1  0.88742025  0.49585661  0.12443298  1  -1.186013  0  -0.29452  -0.367146  0  2.850622  0
N  N339  1  0.50414469  0.11258040  0.37556769  1  -1.186104  0  -0.294492  -0.367143  0  2.850821  0
O  O340  1  0.77943777  0.89888161  0.34352716  1  -1.187055  0  -0.375572  -0.56018  0  2.35899  0
O  O341  1  0.10111588  0.22056100  0.15647047  1  -1.188207  0  -0.375558  -0.560238  0  2.358848  0
O  O342  1  0.22056098  0.10111825  0.65647419  1  -1.186868  0  -0.375645  -0.560255  0  2.358727  0
O  O343  1  0.89888989  0.77943217  0.84353163  1  -1.18863  0  -0.375534  -0.560178  0  2.359196  0
O  O344  1  0.64739874  0.80008222  0.89065472  1  -1.190093  0  -0.368702  -0.563778  0  2.374341  0
O  O345  1  0.19992016  0.35260147  0.60934490  1  -1.190001  0  -0.368667  -0.563681  0  2.374429  0
O  O346  1  0.35259721  0.19991776  0.10934338  1  -1.190022  0  -0.368704  -0.563699  0  2.374424  0
O  O347  1  0.80008071  0.64739780  0.39065348  1  -1.19009  0  -0.368642  -0.563725  0  2.37422  0
O  O348  1  0.54054242  0.98014014  0.84632926  1  -1.175152  0  -0.346968  -0.533228  0  2.393707  0
O  O349  1  0.01986279  0.45945975  0.65367075  1  -1.174751  0  -0.347028  -0.533341  0  2.393532  0
O  O350  1  0.45946054  0.01985988  0.15367115  1  -1.174733  0  -0.347011  -0.533285  0  2.393513  0
O  O351  1  0.98013947  0.54054182  0.34632916  1  -1.175175  0  -0.346981  -0.533275  0  2.393762  0
O  O352  1  0.66317026  0.03134362  0.26509300  1  -1.195652  0  -0.364969  -0.567603  0  2.412321  0
O  O353  1  0.96865650  0.33683131  0.23490737  1  -1.195628  0  -0.365008  -0.567675  0  2.412413  0
O  O354  1  0.33682569  0.96865838  0.73490365  1  -1.195473  0  -0.365017  -0.567789  0  2.411432  0
O  O355  1  0.03134647  0.66316535  0.76509146  1  -1.195795  0  -0.364973  -0.567667  0  2.412901  0
O  O356  1  0.96772260  0.94967813  0.19284214  1  -1.186343  0  -0.381904  -0.649914  0  2.321207  0
O  O357  1  0.05032032  0.03227746  0.30715923  1  -1.186422  0  -0.381906  -0.649895  0  2.321207  0
O  O358  1  0.03228598  0.05031694  0.80716217  1  -1.186229  0  -0.381912  -0.649948  0  2.320822  0
O  O359  1  0.94968123  0.96772835  0.69284104  1  -1.186327  0  -0.381769  -0.649728  0  2.321384  0
O  O360  1  0.82087913  0.12251971  0.20549200  1  -1.199464  0  -0.419245  -0.692665  0  2.428463  0
O  O361  1  0.87747969  0.17912321  0.29450680  1  -1.200116  0  -0.419245  -0.692617  0  2.428439  0
O  O362  1  0.17913087  0.87747903  0.79450294  1  -1.199967  0  -0.419249  -0.692622  0  2.428259  0
O  O363  1  0.12252609  0.82087671  0.70548930  1  -1.199472  0  -0.419164  -0.692484  0  2.428865  0
O  O364  1  0.43406339  0.05611850  0.94436441  1  -1.207054  0  -0.402446  -0.698116  0  2.416651  0
O  O365  1  0.94388343  0.56593283  0.55563630  1  -1.206529  0  -0.402481  -0.698123  0  2.41646  0
O  O366  1  0.56593255  0.94388484  0.05563406  1  -1.20661  0  -0.402478  -0.698142  0  2.416405  0
O  O367  1  0.05611603  0.43406481  0.44436483  1  -1.206588  0  -0.402487  -0.698106  0  2.416636  0
O  O368  1  0.05636777  0.04398671  0.19538893  1  -1.205519  0  -0.406633  -0.685619  0  2.355627  0
O  O369  1  0.95601296  0.94363094  0.30461165  1  -1.205225  0  -0.406649  -0.685684  0  2.355546  0
O  O370  1  0.94362957  0.95601758  0.80461443  1  -1.20522  0  -0.406517  -0.685557  0  2.355893  0
O  O371  1  0.04399139  0.05637272  0.69539291  1  -1.205437  0  -0.406744  -0.685771  0  2.355168  0
O  O372  1  0.91031914  0.22193484  0.17569959  1  -1.186544  0  -0.369365  -0.64721  0  2.320118  0
O  O373  1  0.77806971  0.08967797  0.32430001  1  -1.187025  0  -0.369372  -0.647228  0  2.320104  0
O  O374  1  0.08968733  0.77806824  0.82429922  1  -1.187164  0  -0.369338  -0.647079  0  2.320326  0
O  O375  1  0.22193395  0.91032388  0.67569930  1  -1.186967  0  -0.369462  -0.647333  0  2.319833  0
O  O376  1  0.38630000  0.18216969  0.98790012  1  -1.176124  0  -0.377512  -0.632872  0  2.254892  0
O  O377  1  0.81782990  0.61369949  0.51210003  1  -1.17606  0  -0.377473  -0.632811  0  2.254881  0
O  O378  1  0.61369875  0.81783084  0.01209994  1  -1.176095  0  -0.377517  -0.632919  0  2.254944  0
O  O379  1  0.18216956  0.38630085  0.48790038  1  -1.176121  0  -0.37744  -0.632742  0  2.254899  0
O  O380  1  0.35738568  0.01780315  0.06910921  1  -1.193291  0  -0.382826  -0.664722  0  2.304157  0
O  O381  1  0.98220048  0.64261276  0.43089142  1  -1.193753  0  -0.382771  -0.664602  0  2.304279  0
O  O382  1  0.64261166  0.98220249  0.93089239  1  -1.194255  0  -0.382721  -0.664511  0  2.304318  0
O  O383  1  0.01780109  0.35738496  0.56910705  1  -1.194277  0  -0.38277  -0.66462  0  2.304201  0
O  O384  1  0.59157082  0.11660880  0.09833481  1  -1.175981  0  -0.398225  -0.637244  0  2.236229  0
O  O385  1  0.88338692  0.40843356  0.40166173  1  -1.175914  0  -0.398313  -0.637385  0  2.23614  0
O  O386  1  0.40843145  0.88338739  0.90166258  1  -1.17595  0  -0.398242  -0.637285  0  2.236297  0
O  O387  1  0.11661464  0.59156686  0.59833562  1  -1.176194  0  -0.398282  -0.637316  0  2.236043  0
O  O388  1  0.21645544  0.03652656  0.82435668  1  -1.148955  0  -0.364816  -0.599739  0  2.237199  0
O  O389  1  0.96347102  0.78354684  0.67564058  1  -1.148948  0  -0.364797  -0.599737  0  2.237069  0
O  O390  1  0.78354823  0.96347260  0.17564136  1  -1.148892  0  -0.364816  -0.599749  0  2.237181  0
O  O391  1  0.03652632  0.21645408  0.32435961  1  -1.148962  0  -0.364813  -0.599721  0  2.237238  0
O  O392  1  0.41092651  0.89935236  0.01828784  1  -1.194837  0  -0.394642  -0.660048  0  2.36721  0
O  O393  1  0.10065256  0.58907070  0.48171253  1  -1.194864  0  -0.394674  -0.660065  0  2.367071  0
O  O394  1  0.58906591  0.10065601  0.98171204  1  -1.194944  0  -0.394711  -0.660112  0  2.367042  0
O  O395  1  0.89934970  0.41092683  0.51828748  1  -1.194931  0  -0.394673  -0.660069  0  2.367199  0
O  O396  1  0.51867705  0.24732511  0.04691865  1  -1.161709  0  -0.360086  -0.613118  0  2.168048  0
O  O397  1  0.75267544  0.48131970  0.45308413  1  -1.161737  0  -0.360166  -0.61318  0  2.168057  0
O  O398  1  0.48131747  0.75267861  0.95308671  1  -1.161693  0  -0.360099  -0.613106  0  2.168132  0
O  O399  1  0.24732752  0.51868033  0.54691270  1  -1.161674  0  -0.360116  -0.613138  0  2.168135  0
O  O400  1  0.15904900  0.16650742  0.76716943  1  -1.189089  0  -0.384132  -0.649719  0  2.208156  0
O  O401  1  0.83349196  0.84095053  0.73283227  1  -1.188953  0  -0.384161  -0.64982  0  2.20821  0
O  O402  1  0.84094765  0.83349235  0.23283138  1  -1.189071  0  -0.384179  -0.649788  0  2.208117  0
O  O403  1  0.16650678  0.15905269  0.26716906  1  -1.189226  0  -0.384148  -0.649726  0  2.208193  0
