# generated using pymatgen
data_TbH34C38(NO6)2
_symmetry_space_group_name_H-M   'P 1'
_cell_length_a   10.08688551
_cell_length_b   17.35364132
_cell_length_c   19.21269344
_cell_angle_alpha   89.99796659
_cell_angle_beta   89.99948248
_cell_angle_gamma   89.99952663
_symmetry_Int_Tables_number   1
_chemical_formula_structural   TbH34C38(NO6)2
_chemical_formula_sum   'Tb4 H136 C152 N8 O48'
_cell_volume   3363.07041943
_cell_formula_units_Z   4
loop_
 _symmetry_equiv_pos_site_id
 _symmetry_equiv_pos_as_xyz
  1  'x, y, z'
loop_
 _atom_site_type_symbol
 _atom_site_label
 _atom_site_symmetry_multiplicity
 _atom_site_fract_x
 _atom_site_fract_y
 _atom_site_fract_z
 _atom_site_occupancy
 _atom_site_pbe_bader_charge
 _atom_site_pbe_bader_spin_density
 _atom_site_pbe_cm5_charge
 _atom_site_pbe_ddec_charge
 _atom_site_pbe_ddec_spin_density
 _atom_site_pbe_ddec_sum_bond_order
 _atom_site_pbe_magmom
Tb  Tb0  1  0.95088592  0.24996341  0.74988736  1  2.206155  -3e-06  1.490404  2.120453  -1e-05  2.118589  0.0
Tb  Tb1  1  0.54920675  0.74997017  0.24995197  1  2.205781  -1e-06  1.490256  2.120037  1e-06  2.119152  0.0
Tb  Tb2  1  0.04919116  0.75003231  0.24994677  1  2.205493  -2e-06  1.490196  2.120094  -2e-06  2.119129  0.0
Tb  Tb3  1  0.45088917  0.25004514  0.74988841  1  2.206147  -2e-06  1.490379  2.120421  -9e-06  2.118586  0.0
H  H4  1  0.86295391  0.13396683  0.53703686  1  0.090746  0.000206  0.099651  0.100309  0.000121  1.052139  0.0
H  H5  1  0.86283001  0.36596901  0.96281057  1  0.091729  -0.000209  0.099797  0.100374  -0.000125  1.051977  0.0
H  H6  1  0.63696042  0.86595911  0.03709901  1  0.09106  -0.000206  0.099751  0.100348  -0.00012  1.051917  0.0
H  H7  1  0.63733789  0.63384140  0.46280977  1  0.088724  0.000209  0.099604  0.100106  0.000125  1.052088  0.0
H  H8  1  0.13732144  0.86610092  0.46281340  1  0.089478  0.000209  0.099619  0.100136  0.000125  1.052133  0.0
H  H9  1  0.13693181  0.63409528  0.03710268  1  0.091658  -0.000206  0.099756  0.100399  -0.00012  1.05186  0.0
H  H10  1  0.36281924  0.13395824  0.96275750  1  0.089381  -0.000209  0.099756  0.10051  -0.000125  1.051881  0.0
H  H11  1  0.36294639  0.36609093  0.53705976  1  0.089718  0.000206  0.099666  0.100213  0.000121  1.052214  0.0
H  H12  1  0.80986556  0.11247137  0.41138236  1  0.065742  0.00025  0.092114  0.086384  0.000222  1.034053  0.0
H  H13  1  0.80957698  0.38746967  0.08844309  1  0.063139  -0.000245  0.092267  0.086796  -0.000213  1.033772  0.0
H  H14  1  0.68992164  0.88736990  0.91141325  1  0.066097  -0.000249  0.092232  0.086305  -0.000221  1.034225  0.0
H  H15  1  0.69056736  0.61230382  0.58844152  1  0.056325  0.000249  0.091961  0.08644  0.000216  1.033537  0.0
H  H16  1  0.19054363  0.88761597  0.58844500  1  0.057888  0.000248  0.092083  0.086612  0.000216  1.033651  0.0
H  H17  1  0.18985074  0.61272889  0.91140822  1  0.067298  -0.000249  0.092199  0.086381  -0.000221  1.034787  0.0
H  H18  1  0.30964190  0.11241203  0.08839434  1  0.057445  -0.000246  0.092028  0.086292  -0.000215  1.033584  0.0
H  H19  1  0.30987058  0.38761871  0.41141395  1  0.058724  0.000254  0.092165  0.086312  0.000223  1.033849  0.0
H  H20  1  0.49238838  0.25092291  0.56518073  1  0.112899  1.8e-05  0.105637  0.101185  -2e-06  1.048023  0.0
H  H21  1  0.49222226  0.24906521  0.93451627  1  0.10931  -1.7e-05  0.105723  0.10144  2e-06  1.048303  0.0
H  H22  1  0.00765286  0.74913541  0.06523982  1  0.111654  -1.8e-05  0.1056  0.101327  1e-06  1.048071  0.0
H  H23  1  0.00769491  0.75103541  0.43461538  1  0.109532  1.7e-05  0.105564  0.101109  -2e-06  1.04832  0.0
H  H24  1  0.50771250  0.74896678  0.43459355  1  0.108838  1.8e-05  0.105665  0.101243  -2e-06  1.048625  0.0
H  H25  1  0.50765356  0.75086021  0.06525956  1  0.110741  -1.9e-05  0.105561  0.101303  1e-06  1.048062  0.0
H  H26  1  0.99227055  0.25092889  0.93454746  1  0.110182  -1.8e-05  0.105699  0.101454  2e-06  1.048476  0.0
H  H27  1  0.99242480  0.24908766  0.56516097  1  0.113304  1.8e-05  0.105642  0.101262  -2e-06  1.048257  0.0
H  H28  1  0.44117866  0.23447711  0.43944391  1  0.072508  0.000149  0.094331  0.090101  0.000102  1.026886  0.0
H  H29  1  0.44088860  0.26553349  0.06023006  1  0.073346  -0.000149  0.09432  0.090536  -0.000103  1.026979  0.0
H  H30  1  0.05875527  0.76551383  0.93947867  1  0.073463  -0.00015  0.094315  0.090148  -0.000103  1.027024  0.0
H  H31  1  0.05896635  0.73458322  0.56033711  1  0.074363  0.000147  0.094379  0.090598  0.000102  1.026777  0.0
H  H32  1  0.55901441  0.76540682  0.56031579  1  0.074274  0.000148  0.094306  0.090519  0.000102  1.026642  0.0
H  H33  1  0.55874731  0.73450141  0.93949737  1  0.073325  -0.000151  0.094337  0.090086  -0.000103  1.027181  0.0
H  H34  1  0.94101746  0.23445423  0.06027218  1  0.074476  -0.000148  0.094321  0.090669  -0.000103  1.026791  0.0
H  H35  1  0.94124853  0.26555944  0.43942155  1  0.072629  0.000149  0.09426  0.090034  0.000102  1.026891  0.0
H  H36  1  0.59822448  0.16259484  0.36258251  1  0.043946  0.000403  0.095574  0.090479  0.000387  1.01394  0.0
H  H37  1  0.59781878  0.33741567  0.13712516  1  0.045432  -0.000393  0.095724  0.09061  -0.000378  1.014031  0.0
H  H38  1  0.90158844  0.83728872  0.86261721  1  0.079801  -0.000393  0.095382  0.090322  -0.000386  1.013421  0.0
H  H39  1  0.90214816  0.66254661  0.63719087  1  0.045284  0.000393  0.09578  0.090616  0.000377  1.014002  0.0
H  H40  1  0.40217380  0.83741414  0.63718448  1  0.045196  0.000391  0.095722  0.090665  0.000377  1.013956  0.0
H  H41  1  0.40154648  0.66278634  0.86261528  1  0.079086  -0.000392  0.095331  0.090408  -0.000384  1.013644  0.0
H  H42  1  0.09796420  0.16252663  0.13713053  1  0.043499  -0.000394  0.095703  0.090726  -0.000379  1.013663  0.0
H  H43  1  0.09828186  0.33748196  0.36257976  1  0.043354  0.000404  0.095577  0.090452  0.000389  1.013857  0.0
H  H44  1  0.02624559  0.44390655  0.70416647  1  0.152112  0.000881  0.126272  0.120842  0.000721  1.042289  0.0
H  H45  1  0.02637767  0.05597462  0.79555019  1  0.15058  -0.000903  0.125992  0.120186  -0.000739  1.042653  0.0
H  H46  1  0.47380786  0.55600676  0.20415578  1  0.152071  -0.000884  0.126294  0.120756  -0.000723  1.042189  0.0
H  H47  1  0.47385742  0.94394023  0.29561367  1  0.150824  0.000902  0.125933  0.120175  0.00074  1.042989  0.0
H  H48  1  0.97379580  0.55605344  0.29560937  1  0.150678  0.000902  0.125949  0.120252  0.000741  1.042754  0.0
H  H49  1  0.97384316  0.94399402  0.20415434  1  0.152884  -0.000883  0.126332  0.120901  -0.000723  1.042163  0.0
H  H50  1  0.52633664  0.44400394  0.79556593  1  0.150897  -0.000903  0.125918  0.120298  -0.000739  1.042694  0.0
H  H51  1  0.52630888  0.05610677  0.70416529  1  0.152235  0.00088  0.126305  0.120694  0.000722  1.042648  0.0
H  H52  1  0.80944609  0.42242981  0.47622575  1  0.071908  0.000563  0.101021  0.104465  0.000393  1.060995  0.0
H  H53  1  0.80951563  0.07730206  0.02350602  1  0.07379  -0.000572  0.101166  0.104837  -0.000412  1.06078  0.0
H  H54  1  0.69056392  0.57767914  0.97619510  1  0.076619  -0.000561  0.10101  0.104555  -0.000396  1.060928  0.0
H  H55  1  0.69053775  0.92253741  0.52359929  1  0.072907  0.000577  0.101176  0.104835  0.000408  1.060913  0.0
H  H56  1  0.19045353  0.57742012  0.52359433  1  0.073929  0.000575  0.101095  0.104778  0.000409  1.060906  0.0
H  H57  1  0.19061498  0.92231853  0.97620164  1  0.080373  -0.000544  0.101034  0.104558  -0.000397  1.061124  0.0
H  H58  1  0.30945566  0.42272053  0.02351411  1  0.072205  -0.000574  0.101144  0.104741  -0.000411  1.060922  0.0
H  H59  1  0.30951156  0.07751478  0.47622235  1  0.077344  0.000556  0.10091  0.104423  0.000393  1.06092  0.0
H  H60  1  0.73086046  0.35159725  0.57906634  1  0.124276  0.000675  0.127547  0.117195  0.000299  1.006478  0.0
H  H61  1  0.73101346  0.14823772  0.92070878  1  0.127956  -0.000666  0.127004  0.116652  -0.000297  1.006281  0.0
H  H62  1  0.76914031  0.64843650  0.07907650  1  0.124225  -0.000676  0.127477  0.117101  -0.000298  1.006378  0.0
H  H63  1  0.76907990  0.85159396  0.42082652  1  0.125841  0.000671  0.127651  0.117549  0.000296  1.00555  0.0
H  H64  1  0.26902627  0.64837657  0.42083130  1  0.126704  0.000669  0.127534  0.117313  0.000296  1.005717  0.0
H  H65  1  0.26918556  0.85156610  0.07908684  1  0.123646  -0.000676  0.127571  0.117189  -0.000298  1.006401  0.0
H  H66  1  0.23095461  0.35176379  0.92073265  1  0.127162  -0.000667  0.127109  0.116574  -0.000298  1.006117  0.0
H  H67  1  0.23093968  0.14837756  0.57903780  1  0.125705  0.000674  0.127657  0.117228  0.000299  1.006412  0.0
H  H68  1  0.11672874  0.52171388  0.60697930  1  0.078073  0.000868  0.098605  0.102643  0.000759  1.062289  0.0
H  H69  1  0.11666090  0.97798071  0.89267385  1  0.075056  -0.000858  0.098551  0.102097  -0.000757  1.06325  0.0
H  H70  1  0.38333252  0.47828688  0.10691263  1  0.076891  -0.000882  0.098668  0.10255  -0.000759  1.06212  0.0
H  H71  1  0.38354061  0.02194352  0.39272723  1  0.076383  0.000857  0.098769  0.102472  0.000757  1.062698  0.0
H  H72  1  0.88347723  0.47804213  0.39271482  1  0.076808  0.000851  0.098681  0.102253  0.000756  1.063048  0.0
H  H73  1  0.88336067  0.02171133  0.10690837  1  0.076822  -0.000883  0.098502  0.102244  -0.000761  1.062216  0.0
H  H74  1  0.61661568  0.52200158  0.89267635  1  0.075183  -0.000858  0.098648  0.102209  -0.000757  1.063365  0.0
H  H75  1  0.61678431  0.97826945  0.60699812  1  0.07767  0.000865  0.098639  0.102561  0.000757  1.062606  0.0
H  H76  1  0.16285737  0.36346133  0.79821881  1  0.619838  -0.000477  0.293701  0.382261  -0.000558  0.96478  0.0
H  H77  1  0.16279764  0.13650916  0.70151133  1  0.620597  0.000476  0.29378  0.38228  0.000558  0.964609  0.0
H  H78  1  0.33719130  0.63653524  0.29827226  1  0.619897  0.000479  0.293633  0.381979  0.00056  0.965127  0.0
H  H79  1  0.33728658  0.86347629  0.20157323  1  0.619403  -0.000478  0.29362  0.381957  -0.000557  0.965152  0.0
H  H80  1  0.83725738  0.63652920  0.20156900  1  0.620278  -0.000477  0.293723  0.382293  -0.000557  0.964723  0.0
H  H81  1  0.83720310  0.86346812  0.29826347  1  0.619195  0.000479  0.293588  0.381938  0.000561  0.965174  0.0
H  H82  1  0.66277474  0.36350427  0.70153480  1  0.620476  0.000477  0.293784  0.382154  0.000558  0.964877  0.0
H  H83  1  0.66288369  0.13654306  0.79819844  1  0.620139  -0.000477  0.293776  0.382417  -0.000558  0.964554  0.0
H  H84  1  0.03364242  0.39310125  0.83938827  1  0.618074  -0.000101  0.301599  0.392169  -5.1e-05  0.931728  0.0
H  H85  1  0.03341939  0.10654766  0.66060370  1  0.614271  0.000101  0.301746  0.392534  5.2e-05  0.93132  0.0
H  H86  1  0.46635093  0.60683952  0.33945253  1  0.616571  0.000101  0.301636  0.391918  5.1e-05  0.932098  0.0
H  H87  1  0.46662498  0.89330689  0.16058657  1  0.616104  -0.0001  0.301718  0.392649  -5.2e-05  0.931182  0.0
H  H88  1  0.96661509  0.60668587  0.16060253  1  0.616427  -0.0001  0.301622  0.392608  -5.2e-05  0.931167  0.0
H  H89  1  0.96634639  0.89314610  0.33946153  1  0.616401  0.000102  0.301758  0.392115  5.1e-05  0.931776  0.0
H  H90  1  0.53341683  0.39344720  0.66059656  1  0.614335  0.000101  0.301701  0.392437  5.2e-05  0.931434  0.0
H  H91  1  0.53367516  0.10687381  0.83935947  1  0.618368  -0.0001  0.301599  0.392225  -5.1e-05  0.931707  0.0
H  H92  1  0.13859326  0.95745047  0.29692267  1  0.100428  6.4e-05  0.113629  0.119469  9.7e-05  1.031385  0.0
H  H93  1  0.13896031  0.54210665  0.20367421  1  0.107773  -5e-05  0.113288  0.118575  -8.8e-05  1.032692  0.0
H  H94  1  0.36141577  0.04256345  0.79666979  1  0.10015  -6.3e-05  0.113414  0.119116  -9.6e-05  1.031588  0.0
H  H95  1  0.36101680  0.45803142  0.70375435  1  0.110751  4.9e-05  0.113064  0.118107  8.7e-05  1.032947  0.0
H  H96  1  0.86096135  0.04197532  0.70378485  1  0.110943  4.8e-05  0.113084  0.118229  8.7e-05  1.032775  0.0
H  H97  1  0.86140129  0.45747416  0.79673663  1  0.100451  -6.3e-05  0.113433  0.11912  -9.6e-05  1.031593  0.0
H  H98  1  0.63894483  0.95790075  0.20364891  1  0.107861  -5.1e-05  0.113295  0.118679  -8.8e-05  1.032579  0.0
H  H99  1  0.63859233  0.54254111  0.29685061  1  0.1001  6.3e-05  0.113634  0.119401  9.6e-05  1.031407  0.0
H  H100  1  0.17674405  0.17748809  0.40096872  1  0.122584  -1e-05  0.101733  0.104275  -0.000104  1.048133  0.0
H  H101  1  0.17768265  0.32221820  0.09942673  1  0.124711  1.2e-05  0.101727  0.104556  0.000105  1.04769  0.0
H  H102  1  0.32331356  0.82255971  0.90079810  1  0.122912  1e-05  0.101706  0.104455  0.000104  1.047933  0.0
H  H103  1  0.32192272  0.67784682  0.59938559  1  0.125093  -1.1e-05  0.101703  0.104749  -0.000105  1.047625  0.0
H  H104  1  0.82200358  0.82214401  0.59944785  1  0.125618  -1.2e-05  0.101633  0.104585  -0.000105  1.047422  0.0
H  H105  1  0.82326288  0.67747959  0.90084826  1  0.121561  9e-06  0.101796  0.10451  0.000104  1.047767  0.0
H  H106  1  0.67771426  0.17779673  0.09938840  1  0.124114  1.1e-05  0.101683  0.104484  0.000104  1.047789  0.0
H  H107  1  0.67674559  0.32252806  0.40095758  1  0.122662  -1e-05  0.101723  0.104276  -0.000104  1.048054  0.0
H  H108  1  0.32902548  0.22207853  0.30853297  1  0.05911  1.8e-05  0.099993  0.096358  -3.8e-05  1.017185  0.0
H  H109  1  0.33021582  0.27770434  0.19179313  1  0.063683  -1.3e-05  0.099846  0.096513  3.7e-05  1.016572  0.0
H  H110  1  0.17125101  0.77784734  0.80832276  1  0.061226  -1.7e-05  0.099987  0.096044  3.8e-05  1.017712  0.0
H  H111  1  0.16922420  0.72229303  0.69170282  1  0.064689  1.4e-05  0.100225  0.096766  -3.7e-05  1.016482  0.0
H  H112  1  0.66919473  0.77770340  0.69171652  1  0.064588  1.4e-05  0.10014  0.096639  -3.7e-05  1.016417  0.0
H  H113  1  0.67115700  0.72215307  0.80836943  1  0.058899  -1.8e-05  0.100017  0.096178  3.9e-05  1.017529  0.0
H  H114  1  0.83011586  0.22231836  0.19180544  1  0.063421  -1.3e-05  0.099905  0.096315  3.7e-05  1.016772  0.0
H  H115  1  0.82904161  0.27791993  0.30854458  1  0.059122  1.8e-05  0.099908  0.096143  -3.8e-05  1.017445  0.0
H  H116  1  0.28872341  0.00296011  0.20439182  1  0.082675  7.9e-05  0.103586  0.103571  -6.9e-05  1.018218  0.0
H  H117  1  0.28927477  0.49663161  0.29617283  1  0.097087  -7.8e-05  0.103545  0.103355  6.7e-05  1.018794  0.0
H  H118  1  0.21154615  0.99690365  0.70404961  1  0.083129  -7.7e-05  0.103537  0.10339  7.1e-05  1.019294  0.0
H  H119  1  0.21054691  0.50346359  0.79621470  1  0.098174  7.7e-05  0.103482  0.103208  -6.8e-05  1.018804  0.0
H  H120  1  0.71038805  0.99654982  0.79620744  1  0.097647  7.7e-05  0.103523  0.103221  -6.7e-05  1.018797  0.0
H  H121  1  0.71148240  0.50308692  0.70414275  1  0.084179  -7.8e-05  0.103653  0.103524  7.1e-05  1.018973  0.0
H  H122  1  0.78912476  0.00339689  0.29619518  1  0.09744  -7.8e-05  0.103584  0.103117  6.7e-05  1.019025  0.0
H  H123  1  0.78873308  0.49700349  0.20433978  1  0.085674  7.9e-05  0.103614  0.103621  -6.9e-05  1.018409  0.0
H  H124  1  0.38959587  0.13355253  0.21068851  1  0.06019  0.00012  0.09794  0.090258  0.000142  1.019456  0.0
H  H125  1  0.39052417  0.36614018  0.28970968  1  0.048724  -0.000103  0.09765  0.089857  -0.00012  1.019207  0.0
H  H126  1  0.11086789  0.86626602  0.71036490  1  0.059691  -0.000119  0.097874  0.090346  -0.000139  1.018847  0.0
H  H127  1  0.10902599  0.63388036  0.78965261  1  0.047686  0.000103  0.097694  0.090134  0.00012  1.019212  0.0
H  H128  1  0.60885732  0.86613834  0.78962656  1  0.047691  0.000104  0.09762  0.090066  0.00012  1.019366  0.0
H  H129  1  0.61074753  0.63370916  0.71043935  1  0.059788  -0.00012  0.097951  0.090324  -0.00014  1.018986  0.0
H  H130  1  0.89031755  0.13389853  0.28975810  1  0.050908  -0.000105  0.097875  0.090101  -0.00012  1.019245  0.0
H  H131  1  0.88961357  0.36641730  0.21067546  1  0.059566  0.00012  0.097924  0.090222  0.000142  1.019438  0.0
H  H132  1  0.03247640  0.05699672  0.51432203  1  0.653661  0.000237  0.303747  0.349003  0.000733  0.994121  0.0
H  H133  1  0.03281975  0.44258937  0.98623937  1  0.652662  -0.000236  0.303603  0.349103  -0.000728  0.993508  0.0
H  H134  1  0.46753410  0.94301350  0.01410814  1  0.651757  -0.000239  0.303492  0.348352  -0.000733  0.994805  0.0
H  H135  1  0.46710139  0.55746712  0.48631611  1  0.65279  0.000238  0.303409  0.34875  0.000728  0.994021  0.0
H  H136  1  0.96716348  0.94252992  0.48637092  1  0.649138  0.00024  0.303422  0.348672  0.000728  0.994148  0.0
H  H137  1  0.96751905  0.55702601  0.01416731  1  0.651429  -0.000238  0.303517  0.348471  -0.000734  0.994601  0.0
H  H138  1  0.53293854  0.05743053  0.98618922  1  0.652754  -0.000236  0.303515  0.348763  -0.000729  0.994113  0.0
H  H139  1  0.53248891  0.44302301  0.51428522  1  0.653833  0.000237  0.303739  0.348958  0.000734  0.994059  0.0
C  C140  1  0.71061503  0.20211748  0.63443630  1  1.572987  0.000317  0.23299  0.647888  0.000501  4.163749  0.0
C  C141  1  0.71059817  0.29786165  0.86535348  1  1.572152  -0.000317  0.233615  0.648478  -0.000502  4.162541  0.0
C  C142  1  0.78942929  0.79790542  0.13449943  1  1.573151  -0.000317  0.233281  0.648508  -0.000502  4.163201  0.0
C  C143  1  0.78946849  0.70210535  0.36540454  1  1.571871  0.000316  0.233135  0.647675  0.000501  4.162939  0.0
C  C144  1  0.28947593  0.79788573  0.36539419  1  1.571714  0.000316  0.233228  0.648021  0.000502  4.162766  0.0
C  C145  1  0.28942438  0.70210410  0.13451709  1  1.573899  -0.000317  0.233306  0.648434  -0.000503  4.163181  0.0
C  C146  1  0.21059326  0.20212257  0.86534094  1  1.571854  -0.000317  0.233415  0.648235  -0.000501  4.162364  0.0
C  C147  1  0.21061057  0.29791168  0.63444052  1  1.572871  0.000317  0.233094  0.648032  0.000501  4.162956  0.0
C  C148  1  0.68108342  0.19314284  0.55838053  1  -0.106751  0.000584  -0.019779  -0.050071  0.000543  3.965388  0.0
C  C149  1  0.68099557  0.30680990  0.94140000  1  -0.112129  -0.000577  -0.019538  -0.049377  -0.000534  3.964424  0.0
C  C150  1  0.81890882  0.80685946  0.05844274  1  -0.108788  -0.000589  -0.019987  -0.05024  -0.000549  3.964839  0.0
C  C151  1  0.81902899  0.69316790  0.44145122  1  -0.113898  0.000575  -0.019506  -0.049394  0.000533  3.964587  0.0
C  C152  1  0.31903827  0.80681081  0.44144319  1  -0.11324  0.000578  -0.019526  -0.049606  0.000535  3.964827  0.0
C  C153  1  0.31889711  0.69315297  0.05845339  1  -0.110033  -0.00059  -0.019965  -0.0503  -0.000549  3.964978  0.0
C  C154  1  0.18101955  0.19316622  0.94139451  1  -0.112124  -0.000575  -0.019182  -0.048904  -0.000532  3.96391  0.0
C  C155  1  0.18110162  0.30688141  0.55838083  1  -0.106501  0.000584  -0.019492  -0.049441  0.000544  3.964584  0.0
C  C156  1  0.77110796  0.15529499  0.51464267  1  -0.000961  0.000646  -0.088169  -0.091429  0.000757  3.963226  0.0
C  C157  1  0.77098001  0.34461877  0.98516819  1  3.7e-05  -0.000658  -0.088164  -0.09124  -0.000768  3.963066  0.0
C  C158  1  0.72881176  0.84465144  0.01470458  1  -0.000163  -0.000645  -0.087764  -0.090618  -0.000755  3.961247  0.0
C  C159  1  0.72910617  0.65526393  0.48519288  1  -0.071288  0.000662  -0.088127  -0.09077  0.000768  3.962433  0.0
C  C160  1  0.22910295  0.84469324  0.48518886  1  -0.07245  0.000662  -0.087886  -0.090684  0.000768  3.962528  0.0
C  C161  1  0.22878677  0.65539597  0.01471122  1  0.000176  -0.000644  -0.087815  -0.090561  -0.000754  3.961367  0.0
C  C162  1  0.27100756  0.15532699  0.98514308  1  0.00149  -0.000657  -0.088467  -0.092008  -0.000768  3.96321  0.0
C  C163  1  0.27113251  0.34473755  0.51465478  1  0.00055  0.000643  -0.088381  -0.091616  0.000755  3.963222  0.0
C  C164  1  0.74111334  0.14398931  0.44462930  1  -0.061611  0.000357  -0.098485  -0.093558  0.000495  4.024674  0.0
C  C165  1  0.74089332  0.35594050  0.05516781  1  -0.053909  -0.000344  -0.098927  -0.09402  -0.000484  4.024478  0.0
C  C166  1  0.75872378  0.85590884  0.94467650  1  -0.063416  -0.000361  -0.099125  -0.094347  -0.000499  4.023488  0.0
C  C167  1  0.75918226  0.64392076  0.55519099  1  0.027483  0.000344  -0.098575  -0.094197  0.00049  4.023751  0.0
C  C168  1  0.25919671  0.85603292  0.55518921  1  0.026997  0.000345  -0.098918  -0.094263  0.00049  4.023985  0.0
C  C169  1  0.25867716  0.64416240  0.94467361  1  -0.064911  -0.000361  -0.098896  -0.094374  -0.000498  4.024114  0.0
C  C170  1  0.24095873  0.14397912  0.05514045  1  -0.049515  -0.000347  -0.098563  -0.093208  -0.000484  4.023628  0.0
C  C171  1  0.24115852  0.35605710  0.44464106  1  -0.056649  0.000356  -0.098417  -0.09333  0.000498  4.023565  0.0
C  C172  1  0.56240857  0.22183042  0.53081990  1  -0.015582  0.000641  -0.083385  -0.092473  0.00068  3.953798  0.0
C  C173  1  0.56222944  0.27815683  0.96890127  1  -0.014134  -0.000644  -0.084248  -0.09378  -0.000683  3.954394  0.0
C  C174  1  0.93758817  0.77818682  0.03087367  1  -0.015776  -0.000636  -0.083476  -0.092905  -0.000674  3.953885  0.0
C  C175  1  0.93771825  0.72188787  0.46897919  1  -0.012079  0.000644  -0.083759  -0.0929  0.000684  3.95412  0.0
C  C176  1  0.43774485  0.77809903  0.46896790  1  -0.012371  0.000642  -0.083953  -0.09315  0.000683  3.954443  0.0
C  C177  1  0.43758492  0.72182161  0.03088394  1  -0.014439  -0.000635  -0.08354  -0.092954  -0.000674  3.954111  0.0
C  C178  1  0.06228964  0.22183195  0.96891726  1  -0.014268  -0.000644  -0.084138  -0.093636  -0.000684  3.954625  0.0
C  C179  1  0.06244210  0.27819429  0.53080549  1  -0.017174  0.000638  -0.083607  -0.093047  0.000677  3.954303  0.0
C  C180  1  0.53384550  0.21187144  0.46034380  1  -0.061335  0.000394  -0.094268  -0.08307  0.000474  4.006236  0.0
C  C181  1  0.53356936  0.28812955  0.03935269  1  -0.064508  -0.000396  -0.093707  -0.082703  -0.000474  4.007503  0.0
C  C182  1  0.96608054  0.78809696  0.96038915  1  -0.059138  -0.000397  -0.094356  -0.083144  -0.000478  4.006989  0.0
C  C183  1  0.96634493  0.71192308  0.53943792  1  -0.065192  0.000395  -0.094227  -0.083505  0.000473  4.007716  0.0
C  C184  1  0.46637731  0.78805916  0.53942163  1  -0.065132  0.000396  -0.094007  -0.083003  0.000474  4.007171  0.0
C  C185  1  0.46607349  0.71191573  0.96040077  1  -0.058806  -0.000396  -0.094251  -0.082735  -0.000478  4.00753  0.0
C  C186  1  0.03368722  0.21185266  0.03937628  1  -0.063877  -0.000396  -0.094259  -0.083622  -0.000475  4.008168  0.0
C  C187  1  0.03391060  0.28816254  0.46032647  1  -0.059806  0.000393  -0.094506  -0.083389  0.000475  4.006468  0.0
C  C188  1  0.62209052  0.17211562  0.41728989  1  -0.066657  0.000381  -0.090116  -0.078773  0.000512  4.007281  0.0
C  C189  1  0.62177029  0.32787232  0.08243277  1  -0.062582  -0.00038  -0.09038  -0.079473  -0.000505  4.007306  0.0
C  C190  1  0.87776200  0.82780149  0.91733540  1  -0.102045  -0.00039  -0.089592  -0.078164  -0.000514  4.006181  0.0
C  C191  1  0.87820464  0.67209503  0.58249464  1  -0.064338  0.000377  -0.090282  -0.07901  0.000504  4.006951  0.0
C  C192  1  0.37823738  0.82787722  0.58248490  1  -0.064223  0.000378  -0.090223  -0.079413  0.000504  4.007098  0.0
C  C193  1  0.37773278  0.67224614  0.91733786  1  -0.101331  -0.000389  -0.089646  -0.078597  -0.000513  4.006964  0.0
C  C194  1  0.12189473  0.17208590  0.08244044  1  -0.061152  -0.000378  -0.090005  -0.079095  -0.000504  4.007179  0.0
C  C195  1  0.12214408  0.32793699  0.41728432  1  -0.065248  0.000382  -0.089785  -0.078352  0.000513  4.006263  0.0
C  C196  1  0.98314105  0.44392746  0.65238515  1  0.348908  0.021786  0.0286  -0.048253  0.02084  3.914672  0.004
C  C197  1  0.98318193  0.05587706  0.84731448  1  0.339868  -0.022167  0.028463  -0.047873  -0.020984  3.912643  -0.004
C  C198  1  0.51688904  0.55604689  0.15236441  1  0.348395  -0.021873  0.028489  -0.048016  -0.020904  3.914188  -0.004
C  C199  1  0.51700305  0.94400826  0.34739237  1  0.348909  0.021987  0.028662  -0.048049  0.021022  3.913691  0.004
C  C200  1  0.01696081  0.55597260  0.34738393  1  0.349638  0.021979  0.028734  -0.047757  0.021019  3.913653  0.004
C  C201  1  0.01692390  0.94395616  0.15236663  1  0.346441  -0.021852  0.028466  -0.048242  -0.020894  3.914161  -0.004
C  C202  1  0.48313847  0.44409923  0.84732919  1  0.351119  -0.021981  0.02825  -0.048561  -0.021005  3.913324  -0.004
C  C203  1  0.48320092  0.05607102  0.65238399  1  0.35016  0.021787  0.028528  -0.047654  0.020831  3.914558  0.004
C  C204  1  0.86125738  0.43095143  0.52507759  1  0.068194  0.038759  -0.093109  -0.159537  0.041061  4.007195  0.02
C  C205  1  0.86134221  0.06880290  0.97465639  1  0.058444  -0.039021  -0.094017  -0.161987  -0.041214  4.009444  -0.02
C  C206  1  0.63875929  0.56912309  0.02504499  1  0.062005  -0.038807  -0.093105  -0.159806  -0.04109  4.007572  -0.02
C  C207  1  0.63878184  0.93106178  0.47473313  1  0.056138  0.038994  -0.093581  -0.161052  0.041179  4.009348  0.02
C  C208  1  0.13871362  0.56889562  0.47472428  1  0.055663  0.039019  -0.093796  -0.161571  0.0412  4.008785  0.02
C  C209  1  0.13879535  0.93087300  0.02504502  1  0.058205  -0.038827  -0.093408  -0.160118  -0.041093  4.008315  -0.02
C  C210  1  0.36129201  0.43119879  0.97466630  1  0.060722  -0.03901  -0.093957  -0.161748  -0.041198  4.009287  -0.02
C  C211  1  0.36131605  0.06900828  0.52507497  1  0.064539  0.038789  -0.093591  -0.160362  0.04109  4.007273  0.02
C  C212  1  0.97402615  0.47964982  0.52957829  1  -0.016332  0.085175  -0.01418  0.06467  0.085505  4.002974  0.047
C  C213  1  0.97400576  0.02003316  0.97009848  1  0.032721  -0.084138  -0.013498  0.066862  -0.085594  4.001641  -0.048
C  C214  1  0.52600630  0.52041415  0.02953626  1  -0.011495  -0.085207  -0.01419  0.064884  -0.085567  4.002327  -0.047
C  C215  1  0.52612730  0.97984611  0.47016374  1  0.030841  0.08422  -0.014145  0.065384  0.08567  4.003104  0.048
C  C216  1  0.02606580  0.52011252  0.47015331  1  0.031458  0.084132  -0.013775  0.066551  0.085611  4.001929  0.048
C  C217  1  0.02603762  0.97958166  0.02953111  1  -0.012677  -0.085213  -0.014092  0.064538  -0.085563  4.003064  -0.047
C  C218  1  0.47396271  0.47996074  0.97010372  1  0.031572  -0.084147  -0.013559  0.066538  -0.085593  4.001634  -0.048
C  C219  1  0.47409155  0.02031269  0.52958554  1  -0.015612  0.085133  -0.01355  0.065964  0.085494  4.003008  0.047
C  C220  1  0.81466300  0.39077785  0.58146708  1  0.290758  0.023395  0.025064  -0.05185  0.02155  3.913934  0.005
C  C221  1  0.81478593  0.10902969  0.91829728  1  0.303842  -0.02322  0.025681  -0.050141  -0.021461  3.912997  -0.005
C  C222  1  0.68534169  0.60925235  0.08145697  1  0.291333  -0.023376  0.02497  -0.051866  -0.021547  3.913781  -0.005
C  C223  1  0.68533820  0.89081880  0.41838811  1  0.306997  0.023247  0.024998  -0.051505  0.021516  3.913642  0.005
C  C224  1  0.18528223  0.60915102  0.41838579  1  0.306915  0.023223  0.02543  -0.051019  0.021488  3.913209  0.005
C  C225  1  0.18538037  0.89074418  0.08146139  1  0.291494  -0.023359  0.024872  -0.051746  -0.021533  3.913776  -0.005
C  C226  1  0.31473737  0.39096638  0.91831106  1  0.304931  -0.023217  0.025831  -0.049918  -0.021459  3.912437  -0.005
C  C227  1  0.31473293  0.10920170  0.58145435  1  0.288967  0.023388  0.025132  -0.05153  0.021533  3.91316  0.005
C  C228  1  0.03149766  0.48507180  0.59699811  1  0.022381  0.041933  -0.092204  -0.161454  0.04333  3.991694  0.021
C  C229  1  0.03144891  0.01463763  0.90266804  1  0.033748  -0.041525  -0.092187  -0.161063  -0.043155  3.990615  -0.021
C  C230  1  0.46854594  0.51494606  0.09695492  1  0.021021  -0.041832  -0.092122  -0.161301  -0.043269  3.991448  -0.021
C  C231  1  0.46871375  0.98525796  0.40273336  1  0.026675  0.041733  -0.09235  -0.160985  0.043141  3.990533  0.021
C  C232  1  0.96866765  0.51471417  0.40272255  1  0.024449  0.041704  -0.092278  -0.161179  0.043102  3.990524  0.021
C  C233  1  0.96858257  0.98505614  0.09695062  1  0.021474  -0.041869  -0.091948  -0.160639  -0.043297  3.991198  -0.021
C  C234  1  0.53140820  0.48534758  0.90267830  1  0.022734  -0.041713  -0.092171  -0.160817  -0.043135  3.990673  -0.021
C  C235  1  0.53155962  0.01490948  0.59700812  1  0.021264  0.041938  -0.092224  -0.161799  0.04334  3.992056  0.021
C  C236  1  0.06954446  0.03593504  0.41475217  1  1.441089  0.014539  0.231158  0.564911  0.016632  4.098732  0.01
C  C237  1  0.07006171  0.46370428  0.08581028  1  1.459097  -0.013643  0.231057  0.564632  -0.015654  4.099404  -0.01
C  C238  1  0.43047818  0.96409838  0.91452094  1  1.440956  -0.014468  0.231124  0.564763  -0.016559  4.100429  -0.01
C  C239  1  0.42985620  0.53640853  0.58587257  1  1.458636  0.013643  0.230733  0.564707  0.015649  4.099231  0.01
C  C240  1  0.92986938  0.96359275  0.58591840  1  1.460101  0.013625  0.230726  0.564808  0.015632  4.09875  0.01
C  C241  1  0.93045653  0.53590765  0.91458546  1  1.442036  -0.014513  0.231122  0.564627  -0.016609  4.099802  -0.01
C  C242  1  0.57010549  0.03629609  0.08576080  1  1.458672  -0.013675  0.231017  0.564401  -0.01569  4.099107  -0.01
C  C243  1  0.56953979  0.46407641  0.41470533  1  1.440887  0.014528  0.231026  0.564942  0.016622  4.098483  0.01
C  C244  1  0.14669944  0.06479514  0.35525599  1  4.6e-05  0.002441  -0.029369  -0.079871  0.002649  4.032126  0.001
C  C245  1  0.14736571  0.43483694  0.14525929  1  -0.000527  -0.002135  -0.028713  -0.078202  -0.002312  4.029247  -0.001
C  C246  1  0.35335607  0.93521933  0.85502027  1  0.002626  -0.002418  -0.028869  -0.078647  -0.002616  4.029963  -0.001
C  C247  1  0.35245192  0.56526658  0.64529029  1  -0.06194  0.002121  -0.028527  -0.077969  0.002307  4.028651  0.001
C  C248  1  0.85245565  0.93472920  0.64533494  1  -0.063083  0.002125  -0.028722  -0.078383  0.002308  4.028777  0.001
C  C249  1  0.85332305  0.56480034  0.85509169  1  0.002215  -0.002427  -0.02913  -0.079372  -0.00263  4.030701  -0.001
C  C250  1  0.64738028  0.06516765  0.14522400  1  0.000201  -0.002136  -0.028413  -0.077246  -0.002315  4.027948  -0.001
C  C251  1  0.64669622  0.43520453  0.35521267  1  0.000684  0.002439  -0.029402  -0.080266  0.002645  4.032344  0.001
C  C252  1  0.17712403  0.01600817  0.29892311  1  -0.067284  0.007276  -0.075474  -0.082669  0.007083  3.911526  0.004
C  C253  1  0.17764866  0.48358056  0.20163734  1  -0.056242  -0.006863  -0.075052  -0.082045  -0.006674  3.913668  -0.004
C  C254  1  0.32298807  0.98397859  0.79865683  1  -0.076613  -0.007248  -0.074999  -0.081586  -0.007053  3.911022  -0.004
C  C255  1  0.32223432  0.51653569  0.70168821  1  -0.056704  0.006846  -0.074993  -0.08162  0.006657  3.913831  0.004
C  C256  1  0.82218670  0.98347007  0.70172300  1  -0.055322  0.006843  -0.07509  -0.081905  0.006654  3.913876  0.004
C  C257  1  0.82293997  0.51604519  0.79873343  1  -0.075102  -0.007262  -0.074936  -0.081613  -0.007067  3.91121  -0.004
C  C258  1  0.67762434  0.01642856  0.20161242  1  -0.056195  -0.006875  -0.075433  -0.082887  -0.006686  3.914092  -0.004
C  C259  1  0.67711309  0.48398037  0.29886471  1  -0.068555  0.007268  -0.075465  -0.082516  0.007074  3.911348  0.004
C  C260  1  0.20088700  0.13968877  0.35758805  1  -0.061259  0.00356  -0.08755  -0.101082  0.003468  3.973342  0.002
C  C261  1  0.20175378  0.35999610  0.14283540  1  -0.069394  -0.0032  -0.087702  -0.101486  -0.003117  3.973633  -0.002
C  C262  1  0.29922398  0.86031697  0.85737158  1  -0.064959  -0.003527  -0.088057  -0.102059  -0.003432  3.973482  -0.002
C  C263  1  0.29789635  0.64006949  0.64280441  1  -0.022393  0.003226  -0.087632  -0.101761  0.003123  3.973384  0.002
C  C264  1  0.79791416  0.85992431  0.64285142  1  -0.021176  0.003221  -0.08762  -0.101449  0.003119  3.973236  0.002
C  C265  1  0.79916498  0.63970054  0.85744427  1  -0.066858  -0.003552  -0.088001  -0.101708  -0.003456  3.973479  -0.002
C  C266  1  0.70173146  0.14001988  0.14280919  1  -0.068858  -0.003211  -0.08782  -0.101993  -0.003128  3.973898  -0.002
C  C267  1  0.70088795  0.36032037  0.35757207  1  -0.060841  0.003556  -0.087489  -0.100725  0.003465  3.973496  0.002
C  C268  1  0.28646278  0.16443256  0.30551930  1  -0.055632  0.001512  -0.093642  -0.091708  0.001568  4.022219  0.001
C  C269  1  0.28743404  0.33529055  0.19486684  1  -0.071676  -0.001517  -0.094008  -0.093128  -0.001569  4.023294  -0.001
C  C270  1  0.21376618  0.83550265  0.80528679  1  -0.047112  -0.001498  -0.093642  -0.091273  -0.001557  4.023023  -0.001
C  C271  1  0.21210605  0.66473147  0.69480680  1  -0.051092  0.001504  -0.094196  -0.092987  0.001571  4.023989  0.001
C  C272  1  0.71207765  0.83526465  0.69483013  1  -0.048847  0.001509  -0.094113  -0.09284  0.001575  4.023869  0.001
C  C273  1  0.71369391  0.66449944  0.80534777  1  -0.045465  -0.001494  -0.093695  -0.09149  -0.001554  4.022983  -0.001
C  C274  1  0.78733697  0.16472990  0.19487420  1  -0.073999  -0.001511  -0.093981  -0.092463  -0.001563  4.023169  -0.001
C  C275  1  0.78648593  0.33556331  0.30551399  1  -0.055785  0.00151  -0.093503  -0.091532  0.001566  4.022332  0.001
C  C276  1  0.26281182  0.04159962  0.24691368  1  0.010293  -0.001232  -0.086776  -0.072899  -0.00127  3.970327  -0.001
C  C277  1  0.26349151  0.45804061  0.25359071  1  -0.020562  0.001145  -0.086852  -0.072589  0.001195  3.972087  0.001
C  C278  1  0.23740537  0.95832352  0.74662515  1  -0.011626  0.001217  -0.086539  -0.073182  0.001265  3.971375  0.001
C  C279  1  0.23630719  0.54204188  0.75361304  1  -0.022597  -0.001142  -0.087025  -0.072708  -0.001191  3.971834  -0.001
C  C280  1  0.73620744  0.95796390  0.75362469  1  -0.023537  -0.001138  -0.08674  -0.072207  -0.001188  3.971703  -0.001
C  C281  1  0.73733902  0.54168138  0.74670562  1  -0.00305  0.001225  -0.086869  -0.073212  0.001266  3.971606  0.001
C  C282  1  0.76337657  0.04197760  0.25359778  1  -0.02049  0.001149  -0.086598  -0.071693  0.001199  3.972206  0.001
C  C283  1  0.76281914  0.45837795  0.24687014  1  0.008066  -0.001229  -0.086733  -0.072926  -0.001269  3.970609  -0.001
C  C284  1  0.31916160  0.11511080  0.25044028  1  -0.103238  0.006338  -0.084479  -0.073381  0.006272  3.984895  0.003
C  C285  1  0.32004179  0.38458855  0.24998112  1  -0.080124  -0.005691  -0.083831  -0.07227  -0.005634  3.983865  -0.003
C  C286  1  0.18114574  0.88478972  0.75016419  1  -0.084011  -0.006263  -0.084635  -0.073841  -0.006212  3.984709  -0.003
C  C287  1  0.17956068  0.61544396  0.74994463  1  -0.087936  0.00569  -0.0838  -0.072718  0.005633  3.98363  0.003
C  C288  1  0.67948589  0.88456048  0.74995131  1  -0.091928  0.005683  -0.083758  -0.072868  0.005627  3.98389  0.003
C  C289  1  0.68105740  0.61521239  0.75023349  1  -0.090453  -0.006304  -0.084539  -0.0737  -0.006248  3.985414  -0.003
C  C290  1  0.81989496  0.11543706  0.25000305  1  -0.080069  -0.005706  -0.084138  -0.073022  -0.005651  3.984137  -0.003
C  C291  1  0.81917802  0.38486927  0.25042248  1  -0.102997  0.006328  -0.0846  -0.073446  0.006263  3.984842  0.003
N  N292  1  0.87631071  0.39628194  0.64453194  1  -0.708849  0.108216  -0.144386  0.296453  0.1126  3.891485  0.095
N  N293  1  0.87641115  0.10356453  0.85521706  1  -0.708709  -0.108334  -0.143462  0.296607  -0.112771  3.890499  -0.095
N  N294  1  0.62372350  0.60370080  0.14452539  1  -0.709932  -0.108238  -0.144084  0.296598  -0.112629  3.890825  -0.095
N  N295  1  0.62374096  0.89630204  0.35530329  1  -0.709373  0.108298  -0.143703  0.296664  0.112727  3.890024  0.095
N  N296  1  0.12369796  0.60367863  0.35530063  1  -0.708739  0.108272  -0.14391  0.296424  0.112698  3.890464  0.095
N  N297  1  0.12375218  0.89629866  0.14452807  1  -0.707746  -0.108252  -0.143994  0.296524  -0.112642  3.890881  -0.095
N  N298  1  0.37636944  0.39641536  0.85523484  1  -0.709318  -0.108275  -0.143435  0.296955  -0.112719  3.889961  -0.095
N  N299  1  0.37638073  0.10371731  0.64451678  1  -0.710373  0.108192  -0.144167  0.296346  0.112563  3.891688  0.095
O  O300  1  0.61281033  0.21302756  0.67483150  1  -1.204095  2.4e-05  -0.414882  -0.684543  -5.7e-05  2.398987  0.0
O  O301  1  0.61280334  0.28703151  0.82493943  1  -1.206682  -2.7e-05  -0.415287  -0.684856  5.5e-05  2.398283  0.0
O  O302  1  0.88726395  0.78705481  0.17488520  1  -1.204728  -2.5e-05  -0.414773  -0.68466  5.6e-05  2.39867  0.0
O  O303  1  0.88726112  0.71302873  0.32500691  1  -1.205656  2.7e-05  -0.415112  -0.684609  -5.5e-05  2.398292  0.0
O  O304  1  0.38726576  0.78698718  0.32499170  1  -1.206017  2.7e-05  -0.415285  -0.684884  -5.5e-05  2.398481  0.0
O  O305  1  0.38725292  0.71296479  0.17489991  1  -1.205038  -2.4e-05  -0.414902  -0.684661  5.7e-05  2.398833  0.0
O  O306  1  0.11278934  0.21297721  0.82493592  1  -1.207084  -2.6e-05  -0.415229  -0.68479  5.6e-05  2.398167  0.0
O  O307  1  0.11280010  0.28700156  0.67483451  1  -1.20395  2.5e-05  -0.414918  -0.684643  -5.6e-05  2.398954  0.0
O  O308  1  0.83085911  0.19872734  0.65425164  1  -1.189383  0.000465  -0.389568  -0.661382  0.000409  2.292569  0.0
O  O309  1  0.83086340  0.30119366  0.84555428  1  -1.188465  -0.000463  -0.389708  -0.661914  -0.000406  2.292189  0.0
O  O310  1  0.66918780  0.80124579  0.15433340  1  -1.188513  -0.000462  -0.389647  -0.661596  -0.000406  2.292652  0.0
O  O311  1  0.66922446  0.69866235  0.34557525  1  -1.18842  0.000465  -0.38927  -0.661243  0.000408  2.29201  0.0
O  O312  1  0.16922589  0.80131967  0.34556843  1  -1.188257  0.000464  -0.389281  -0.661332  0.000407  2.291929  0.0
O  O313  1  0.16918294  0.69875423  0.15434855  1  -1.188732  -0.000463  -0.389643  -0.661559  -0.000406  2.292693  0.0
O  O314  1  0.33084764  0.19877240  0.84552988  1  -1.187559  -0.000463  -0.389602  -0.661685  -0.000406  2.292198  0.0
O  O315  1  0.33085956  0.30130225  0.65425992  1  -1.189268  0.000464  -0.389623  -0.661555  0.000408  2.292232  0.0
O  O316  1  0.82977384  0.35639363  0.69981643  1  -0.708333  0.037759  -0.314326  -0.60811  0.038472  2.111755  0.029
O  O317  1  0.82989750  0.14351757  0.79996608  1  -0.711171  -0.037798  -0.314932  -0.608696  -0.038476  2.112314  -0.029
O  O318  1  0.67027022  0.64355405  0.19982664  1  -0.70761  -0.037736  -0.314528  -0.608275  -0.038448  2.111598  -0.029
O  O319  1  0.67025468  0.85635350  0.30005129  1  -0.710991  0.037755  -0.315073  -0.60868  0.038459  2.112154  0.029
O  O320  1  0.17021501  0.64363033  0.30004581  1  -0.711322  0.03775  -0.3151  -0.60879  0.038449  2.11209  0.029
O  O321  1  0.17029358  0.85644357  0.19983162  1  -0.707722  -0.037743  -0.314531  -0.608199  -0.038456  2.111558  -0.029
O  O322  1  0.32985246  0.35645838  0.79998459  1  -0.711396  -0.03777  -0.314953  -0.608799  -0.038452  2.111992  -0.029
O  O323  1  0.32981050  0.14361571  0.69979013  1  -0.707976  0.037753  -0.31457  -0.608463  0.038469  2.111898  0.029
O  O324  1  0.06379108  0.36932260  0.79597093  1  -1.23836  -0.001123  -0.619083  -0.838399  -0.001212  2.14983  -0.001
O  O325  1  0.06374926  0.13063621  0.70384914  1  -1.23531  0.001124  -0.619499  -0.838439  0.001217  2.14979  0.001
O  O326  1  0.43624870  0.63061644  0.29602311  1  -1.237063  0.001124  -0.619059  -0.837809  0.001213  2.150291  0.001
O  O327  1  0.43633988  0.86932726  0.20388807  1  -1.236241  -0.001124  -0.619087  -0.838266  -0.001216  2.149603  -0.001
O  O328  1  0.93631375  0.63069098  0.20388870  1  -1.237394  -0.001124  -0.619142  -0.838578  -0.001216  2.149584  -0.001
O  O329  1  0.93626041  0.86940273  0.29601622  1  -1.236235  0.001125  -0.6191  -0.837979  0.001214  2.150269  0.001
O  O330  1  0.56372428  0.36938447  0.70385942  1  -1.235422  0.001124  -0.619457  -0.838254  0.001216  2.149991  0.001
O  O331  1  0.56381551  0.13069094  0.79595699  1  -1.238963  -0.001123  -0.619108  -0.838572  -0.001212  2.149754  -0.001
O  O332  1  0.06887339  0.08246885  0.46937834  1  -1.176885  0.003342  -0.320395  -0.469832  0.002151  2.389548  0.001
O  O333  1  0.06927743  0.41715606  0.03119973  1  -1.176542  -0.003126  -0.320318  -0.470057  -0.001974  2.38875  0.0
O  O334  1  0.43113234  0.91756642  0.96915118  1  -1.173667  -0.003331  -0.320492  -0.469891  -0.002144  2.390862  -0.001
O  O335  1  0.43064351  0.58293876  0.53125378  1  -1.17706  0.003124  -0.31996  -0.469585  0.001974  2.38928  0.0
O  O336  1  0.93072584  0.91704799  0.53130940  1  -1.173628  0.003116  -0.32016  -0.469821  0.001969  2.388931  0.0
O  O337  1  0.93115060  0.58246047  0.96920018  1  -1.17432  -0.003344  -0.320252  -0.469719  -0.002153  2.39027  -0.001
O  O338  1  0.56936508  0.08284880  0.03114930  1  -1.176752  -0.003139  -0.320235  -0.46971  -0.001984  2.389207  0.0
O  O339  1  0.56885954  0.41754733  0.46933558  1  -1.176825  0.003343  -0.320227  -0.469724  0.002149  2.389815  0.001
O  O340  1  0.01280889  0.97113657  0.41530748  1  -1.169927  0.005192  -0.286188  -0.51121  0.004269  2.25098  0.002
O  O341  1  0.01330929  0.52849600  0.08527744  1  -1.183066  -0.004839  -0.285875  -0.510943  -0.003938  2.252161  -0.002
O  O342  1  0.48720382  0.02889510  0.91505814  1  -1.169362  -0.005161  -0.285724  -0.511083  -0.004241  2.252253  -0.002
O  O343  1  0.48663837  0.47162317  0.58536288  1  -1.183149  0.004839  -0.285704  -0.511289  0.003938  2.252639  0.002
O  O344  1  0.98661585  0.02838488  0.58540265  1  -1.183331  0.004834  -0.28539  -0.510997  0.003932  2.252604  0.002
O  O345  1  0.98714054  0.47109749  0.91513964  1  -1.170242  -0.005177  -0.28599  -0.511157  -0.004254  2.251828  -0.002
O  O346  1  0.51334515  0.97150975  0.08522568  1  -1.183458  -0.00485  -0.285802  -0.510833  -0.003946  2.252426  -0.002
O  O347  1  0.51281016  0.52887732  0.41524730  1  -1.170015  0.005187  -0.286054  -0.511165  0.004264  2.251055  0.002
