# generated using pymatgen
data_Zn4H15C24N3O13
_symmetry_space_group_name_H-M   'P 1'
_cell_length_a   25.21091451
_cell_length_b   25.21094323
_cell_length_c   25.21091702
_cell_angle_alpha   90.00005726
_cell_angle_beta   89.99991071
_cell_angle_gamma   90.00012724
_symmetry_Int_Tables_number   1
_chemical_formula_structural   Zn4H15C24N3O13
_chemical_formula_sum   'Zn32 H120 C192 N24 O104'
_cell_volume   16023.83030547
_cell_formula_units_Z   8
loop_
 _symmetry_equiv_pos_site_id
 _symmetry_equiv_pos_as_xyz
  1  'x, y, z'
loop_
 _atom_site_type_symbol
 _atom_site_label
 _atom_site_symmetry_multiplicity
 _atom_site_fract_x
 _atom_site_fract_y
 _atom_site_fract_z
 _atom_site_occupancy
 _atom_site_pbe_bader_charge
 _atom_site_pbe_bader_spin_density
 _atom_site_pbe_cm5_charge
 _atom_site_pbe_ddec_charge
 _atom_site_pbe_ddec_spin_density
 _atom_site_pbe_ddec_sum_bond_order
 _atom_site_pbe_magmom
Zn  Zn0  1  0.15992285  0.15992248  0.15992155  1  1.306657  0  0.671454  0.966314  0  2.358843  0
Zn  Zn1  1  0.34007813  0.84007757  0.65992181  1  1.306679  0  0.671474  0.966321  0  2.358709  0
Zn  Zn2  1  0.84007789  0.65992207  0.34007814  1  1.306684  0  0.671465  0.966303  0  2.358718  0
Zn  Zn3  1  0.65992223  0.34007728  0.84007778  1  1.30671  0  0.671466  0.966309  0  2.358688  0
Zn  Zn4  1  0.84007730  0.84007702  0.84007670  1  1.306659  0  0.671401  0.966258  0  2.358879  0
Zn  Zn5  1  0.65992282  0.15992193  0.34007684  1  1.306669  0  0.67143  0.9663  0  2.358748  0
Zn  Zn6  1  0.15992147  0.34007862  0.65992249  1  1.306699  0  0.671444  0.966296  0  2.358653  0
Zn  Zn7  1  0.34007871  0.65992222  0.15992245  1  1.30668  0  0.671464  0.966312  0  2.358717  0
Zn  Zn8  1  0.16283514  0.26237525  0.23557057  1  1.31265  0  0.67424  0.961456  0  2.383342  0
Zn  Zn9  1  0.33716612  0.73762328  0.73557073  1  1.312664  0  0.674243  0.961461  0  2.38335  0
Zn  Zn10  1  0.83716464  0.76237635  0.26442922  1  1.312661  0  0.67426  0.961533  0  2.383351  0
Zn  Zn11  1  0.66283520  0.23762372  0.76442915  1  1.312684  0  0.674229  0.96141  0  2.383427  0
Zn  Zn12  1  0.23557017  0.16283524  0.26237473  1  1.31264  0  0.674271  0.961533  0  2.383351  0
Zn  Zn13  1  0.73557129  0.33716509  0.73762409  1  1.312657  0  0.674213  0.961402  0  2.38343  0
Zn  Zn14  1  0.26442906  0.83716570  0.76237629  1  1.312662  0  0.674259  0.96148  0  2.383301  0
Zn  Zn15  1  0.76442939  0.66283456  0.23762378  1  1.312664  0  0.674201  0.961398  0  2.383432  0
Zn  Zn16  1  0.26237618  0.23556990  0.16283493  1  1.312661  0  0.674209  0.961368  0  2.383457  0
Zn  Zn17  1  0.73762314  0.73557124  0.33716603  1  1.312637  0  0.674238  0.961483  0  2.383405  0
Zn  Zn18  1  0.76237659  0.26442890  0.83716623  1  1.312548  0  0.674251  0.961489  0  2.383408  0
Zn  Zn19  1  0.23762400  0.76442896  0.66283448  1  1.312661  0  0.674227  0.961428  0  2.383398  0
Zn  Zn20  1  0.83716541  0.73762385  0.76442847  1  1.312605  0  0.6742  0.961405  0  2.383507  0
Zn  Zn21  1  0.66283483  0.26237582  0.26442950  1  1.31263  0  0.674239  0.961408  0  2.383441  0
Zn  Zn22  1  0.16283432  0.23762434  0.73557101  1  1.312661  0  0.674241  0.961478  0  2.383392  0
Zn  Zn23  1  0.33716574  0.76237617  0.23557108  1  1.312673  0  0.674222  0.961453  0  2.383396  0
Zn  Zn24  1  0.76443038  0.83716506  0.73762273  1  1.312649  0  0.67426  0.961494  0  2.383364  0
Zn  Zn25  1  0.26442926  0.66283401  0.26237614  1  1.31267  0  0.674231  0.961432  0  2.383369  0
Zn  Zn26  1  0.73557069  0.16283538  0.23762355  1  1.312665  0  0.674256  0.961454  0  2.383371  0
Zn  Zn27  1  0.23557037  0.33716494  0.76237606  1  1.312641  0  0.674253  0.961483  0  2.383388  0
Zn  Zn28  1  0.73762437  0.76442920  0.83716491  1  1.312619  0  0.674267  0.961505  0  2.383279  0
Zn  Zn29  1  0.26237622  0.26442944  0.66283500  1  1.312685  0  0.674227  0.961398  0  2.38344  0
Zn  Zn30  1  0.23762357  0.73557100  0.16283440  1  1.312715  0  0.67426  0.961482  0  2.383289  0
Zn  Zn31  1  0.76237496  0.23557094  0.33716457  1  1.312652  0  0.674185  0.961333  0  2.383526  0
H  H32  1  0.85672256  0.11338277  0.20197459  1  0.508533  0  0.303211  0.318233  0  0.982382  0
H  H33  1  0.64327738  0.88661724  0.70197441  1  0.508515  0  0.303211  0.318193  0  0.982505  0
H  H34  1  0.14327689  0.61338315  0.29802545  1  0.508558  0  0.303235  0.318273  0  0.982335  0
H  H35  1  0.35672269  0.38661624  0.79802523  1  0.508563  0  0.303215  0.318243  0  0.98238  0
H  H36  1  0.20197489  0.85672229  0.11338290  1  0.508531  0  0.303207  0.31824  0  0.982349  0
H  H37  1  0.70197535  0.64327743  0.88661687  1  0.508535  0  0.303245  0.318256  0  0.982362  0
H  H38  1  0.29802536  0.14327770  0.61338292  1  0.50853  0  0.303227  0.318263  0  0.982315  0
H  H39  1  0.79802549  0.35672276  0.38661739  1  0.50854  0  0.303231  0.318238  0  0.982429  0
H  H40  1  0.11338299  0.20197515  0.85672172  1  0.508522  0  0.303217  0.318246  0  0.982335  0
H  H41  1  0.88661667  0.70197465  0.64327693  1  0.508555  0  0.303227  0.318253  0  0.982355  0
H  H42  1  0.61338257  0.29802610  0.14327768  1  0.508545  0  0.3032  0.318236  0  0.98238  0
H  H43  1  0.38661689  0.79802549  0.35672294  1  0.508549  0  0.303206  0.318228  0  0.982386  0
H  H44  1  0.14327759  0.88661752  0.79802565  1  0.508535  0  0.303212  0.318265  0  0.982299  0
H  H45  1  0.35672277  0.11338305  0.29802543  1  0.508533  0  0.303231  0.318235  0  0.982425  0
H  H46  1  0.85672247  0.38661754  0.70197439  1  0.50853  0  0.303235  0.318279  0  0.982349  0
H  H47  1  0.64327826  0.61338326  0.20197540  1  0.508529  0  0.30322  0.318252  0  0.982314  0
H  H48  1  0.79802526  0.14327721  0.88661694  1  0.508546  0  0.303217  0.318238  0  0.982376  0
H  H49  1  0.29802599  0.35672246  0.11338297  1  0.508552  0  0.303218  0.318257  0  0.982347  0
H  H50  1  0.70197439  0.85672259  0.38661692  1  0.508541  0  0.303215  0.318253  0  0.982367  0
H  H51  1  0.20197506  0.64327753  0.61338325  1  0.508549  0  0.30321  0.318265  0  0.982308  0
H  H52  1  0.88661756  0.79802594  0.14327732  1  0.508532  0  0.303234  0.318254  0  0.982421  0
H  H53  1  0.11338309  0.29802565  0.35672290  1  0.508547  0  0.303239  0.31826  0  0.982376  0
H  H54  1  0.38661679  0.70197459  0.85672256  1  0.508526  0  0.303239  0.318238  0  0.982425  0
H  H55  1  0.61338326  0.20197441  0.64327729  1  0.508543  0  0.303225  0.318248  0  0.982371  0
H  H56  1  0.91386686  0.09013616  0.16915145  1  0.469846  0  0.314785  0.31008  0  0.936734  0
H  H57  1  0.58613313  0.90986460  0.66915138  1  0.469848  0  0.314755  0.309997  0  0.93679  0
H  H58  1  0.08613293  0.59013606  0.33084896  1  0.46983  0  0.314765  0.310034  0  0.93678  0
H  H59  1  0.41386659  0.40986218  0.83084828  1  0.469873  0  0.314781  0.310033  0  0.936846  0
H  H60  1  0.16915149  0.91386687  0.09013628  1  0.469843  0  0.314776  0.310062  0  0.936754  0
H  H61  1  0.66915179  0.58613317  0.90986314  1  0.469899  0  0.314798  0.31006  0  0.936751  0
H  H62  1  0.33084880  0.08613310  0.59013580  1  0.46983  0  0.314778  0.310053  0  0.936758  0
H  H63  1  0.83084862  0.41386704  0.40986446  1  0.469832  0  0.314754  0.310024  0  0.936792  0
H  H64  1  0.09013663  0.16915210  0.91386681  1  0.46986  0  0.314773  0.310035  0  0.936798  0
H  H65  1  0.90986415  0.66915120  0.58613301  1  0.469834  0  0.314773  0.310055  0  0.936758  0
H  H66  1  0.59013597  0.33084869  0.08613342  1  0.469831  0  0.314764  0.310045  0  0.936787  0
H  H67  1  0.40986395  0.83084899  0.41386723  1  0.469817  0  0.314771  0.310035  0  0.936786  0
H  H68  1  0.08613330  0.90986452  0.83084918  1  0.469816  0  0.31478  0.310049  0  0.936764  0
H  H69  1  0.41386702  0.09013609  0.33084885  1  0.469851  0  0.314781  0.310045  0  0.936756  0
H  H70  1  0.91386682  0.40986384  0.66915167  1  0.469846  0  0.314773  0.310044  0  0.936818  0
H  H71  1  0.58613317  0.59013693  0.16915235  1  0.469898  0  0.314793  0.310066  0  0.936743  0
H  H72  1  0.83084866  0.08613381  0.90986436  1  0.469837  0  0.314741  0.310003  0  0.936833  0
H  H73  1  0.33084836  0.41386712  0.09013630  1  0.469837  0  0.314765  0.310018  0  0.936835  0
H  H74  1  0.66915096  0.91386680  0.40986325  1  0.469845  0  0.314759  0.310059  0  0.936783  0
H  H75  1  0.16915233  0.58613325  0.59013736  1  0.469879  0  0.314773  0.31008  0  0.93678  0
H  H76  1  0.90986432  0.83084859  0.08613342  1  0.46984  0  0.314766  0.310052  0  0.936766  0
H  H77  1  0.09013561  0.33084870  0.41386763  1  0.46986  0  0.31475  0.309991  0  0.936794  0
H  H78  1  0.40986418  0.66915160  0.91386681  1  0.46985  0  0.314773  0.310011  0  0.936825  0
H  H79  1  0.59013620  0.16915130  0.58613300  1  0.469836  0  0.314772  0.31005  0  0.936765  0
H  H80  1  0.99542920  0.13708174  0.17042467  1  0.077283  0  0.104774  0.118392  0  1.004042  0
H  H81  1  0.50457039  0.86291744  0.67042428  1  0.077347  0  0.104805  0.118451  0  1.003938  0
H  H82  1  0.00457030  0.63708264  0.32957619  1  0.07732  0  0.104803  0.118437  0  1.003953  0
H  H83  1  0.49542883  0.36291638  0.82957652  1  0.077338  0  0.104799  0.118427  0  1.003972  0
H  H84  1  0.17042441  0.99542910  0.13708225  1  0.077292  0  0.1048  0.118407  0  1.003958  0
H  H85  1  0.67042420  0.50457095  0.86291717  1  0.077308  0  0.104805  0.118441  0  1.003961  0
H  H86  1  0.32957581  0.00457053  0.63708248  1  0.077334  0  0.10479  0.118403  0  1.003958  0
H  H87  1  0.82957589  0.49542961  0.36291738  1  0.077334  0  0.104801  0.118434  0  1.003955  0
H  H88  1  0.13708290  0.17042466  0.99542906  1  0.077322  0  0.104767  0.118382  0  1.004033  0
H  H89  1  0.86291708  0.67042317  0.50456996  1  0.077313  0  0.104788  0.118414  0  1.003968  0
H  H90  1  0.63708237  0.32957584  0.00457070  1  0.077294  0  0.104789  0.118406  0  1.003963  0
H  H91  1  0.36291716  0.82957691  0.49542995  1  0.077312  0  0.104779  0.118393  0  1.003969  0
H  H92  1  0.00457055  0.86291815  0.82957636  1  0.077304  0  0.104778  0.118395  0  1.003977  0
H  H93  1  0.49542936  0.13708325  0.32957595  1  0.077358  0  0.104808  0.118431  0  1.003948  0
H  H94  1  0.99542906  0.36291725  0.67042405  1  0.077359  0  0.104802  0.118433  0  1.003949  0
H  H95  1  0.50457132  0.63708312  0.17042371  1  0.07731  0  0.104794  0.118411  0  1.003977  0
H  H96  1  0.82957614  0.00457000  0.86291719  1  0.077306  0  0.104797  0.118437  0  1.00395  0
H  H97  1  0.32957635  0.49542974  0.13708227  1  0.077318  0  0.104788  0.118412  0  1.003975  0
H  H98  1  0.67042355  0.99542977  0.36291656  1  0.077339  0  0.1048  0.118426  0  1.003952  0
H  H99  1  0.17042427  0.50457108  0.63708325  1  0.077328  0  0.104808  0.118444  0  1.003953  0
H  H100  1  0.86291725  0.82957603  0.00457117  1  0.077343  0  0.104796  0.118405  0  1.003968  0
H  H101  1  0.13708227  0.32957633  0.49542987  1  0.077315  0  0.104785  0.118411  0  1.003971  0
H  H102  1  0.36291699  0.67042445  0.99542953  1  0.077354  0  0.104809  0.118454  0  1.003941  0
H  H103  1  0.63708180  0.17042417  0.50456989  1  0.0773  0  0.104784  0.118396  0  1.003983  0
H  H104  1  0.00746751  0.27972946  0.26287276  1  0.073225  0  0.100796  0.11005  0  1.010306  0
H  H105  1  0.49253291  0.72026950  0.76287385  1  0.07321  0  0.100804  0.110052  0  1.010262  0
H  H106  1  0.99253191  0.77972968  0.23712625  1  0.073217  0  0.100807  0.110093  0  1.010259  0
H  H107  1  0.50746837  0.22026996  0.73712641  1  0.073216  0  0.100804  0.110069  0  1.010232  0
H  H108  1  0.26287363  0.00746782  0.27972941  1  0.073221  0  0.100805  0.110076  0  1.010341  0
H  H109  1  0.76287275  0.49253216  0.72026976  1  0.073223  0  0.1008  0.110073  0  1.01022  0
H  H110  1  0.23712636  0.99253274  0.77972958  1  0.07322  0  0.100833  0.110093  0  1.010316  0
H  H111  1  0.73712637  0.50746786  0.22027013  1  0.073223  0  0.100831  0.110116  0  1.010258  0
H  H112  1  0.27973032  0.26287267  0.00746652  1  0.073237  0  0.100812  0.110064  0  1.010282  0
H  H113  1  0.72027065  0.76287254  0.49253248  1  0.073223  0  0.10081  0.110076  0  1.010352  0
H  H114  1  0.77972963  0.23712617  0.99253263  1  0.073237  0  0.100819  0.110051  0  1.010266  0
H  H115  1  0.22027010  0.73712643  0.50746845  1  0.073204  0  0.100815  0.110096  0  1.010288  0
H  H116  1  0.99253265  0.72027044  0.73712668  1  0.073237  0  0.100829  0.110082  0  1.010264  0
H  H117  1  0.50746764  0.27973040  0.23712638  1  0.073204  0  0.10082  0.110094  0  1.010284  0
H  H118  1  0.00746784  0.22027021  0.76287438  1  0.07322  0  0.100786  0.110006  0  1.010271  0
H  H119  1  0.49253258  0.77973033  0.26287263  1  0.07322  0  0.100821  0.110083  0  1.010294  0
H  H120  1  0.73712692  0.99253128  0.72027043  1  0.073214  0  0.100789  0.110039  0  1.010274  0
H  H121  1  0.23712661  0.50746733  0.27973008  1  0.073238  0  0.100812  0.110054  0  1.01025  0
H  H122  1  0.76287419  0.00746795  0.22027025  1  0.073208  0  0.100818  0.11009  0  1.010284  0
H  H123  1  0.26287259  0.49253402  0.77973050  1  0.07325  0  0.100819  0.110085  0  1.01022  0
H  H124  1  0.72027023  0.73712643  0.99253292  1  0.073242  0  0.100833  0.110089  0  1.010259  0
H  H125  1  0.27973030  0.23712696  0.50746815  1  0.073227  0  0.100792  0.110052  0  1.010231  0
H  H126  1  0.22026973  0.76287373  0.00746801  1  0.073201  0  0.100787  0.110029  0  1.010263  0
H  H127  1  0.77972966  0.26287267  0.49253218  1  0.073214  0  0.100825  0.110096  0  1.010288  0
H  H128  1  0.91301058  0.26807959  0.29182102  1  0.093891  0  0.105751  0.112356  0  0.997966  0
H  H129  1  0.58699080  0.73191972  0.79182117  1  0.093824  0  0.105707  0.112287  0  0.997992  0
H  H130  1  0.08698960  0.76808015  0.20817918  1  0.09383  0  0.105741  0.112357  0  0.99794  0
H  H131  1  0.41301051  0.23191915  0.70817911  1  0.093862  0  0.105761  0.112399  0  0.997916  0
H  H132  1  0.29182045  0.91301033  0.26808012  1  0.093892  0  0.105738  0.112335  0  0.997957  0
H  H133  1  0.79182023  0.58698880  0.73191950  1  0.093833  0  0.105749  0.112332  0  0.997972  0
H  H134  1  0.20817957  0.08699062  0.76808063  1  0.093768  0  0.105727  0.112273  0  0.997987  0
H  H135  1  0.70817967  0.41300965  0.23191982  1  0.093803  0  0.105733  0.112296  0  0.997973  0
H  H136  1  0.26808033  0.29182006  0.91300957  1  0.093865  0  0.105756  0.112355  0  0.997959  0
H  H137  1  0.73191953  0.79182035  0.58698958  1  0.093869  0  0.105738  0.112333  0  0.997953  0
H  H138  1  0.76807980  0.20817914  0.08699079  1  0.093837  0  0.10572  0.112312  0  0.997971  0
H  H139  1  0.23191986  0.70817904  0.41301054  1  0.09388  0  0.105725  0.112313  0  0.998012  0
H  H140  1  0.08699036  0.73191952  0.70817962  1  0.093827  0  0.105741  0.112319  0  0.997954  0
H  H141  1  0.41300975  0.26808097  0.20817986  1  0.093823  0  0.105741  0.112319  0  0.997953  0
H  H142  1  0.91300976  0.23192014  0.79182145  1  0.093823  0  0.10571  0.112293  0  0.997998  0
H  H143  1  0.58698925  0.76808075  0.29181993  1  0.093829  0  0.105761  0.112389  0  0.997944  0
H  H144  1  0.70818050  0.08698917  0.73192011  1  0.093929  0  0.105762  0.112346  0  0.997974  0
H  H145  1  0.20817913  0.41301030  0.26807994  1  0.093884  0  0.105726  0.11231  0  0.997991  0
H  H146  1  0.79182098  0.91301047  0.23192040  1  0.093876  0  0.105734  0.112338  0  0.997956  0
H  H147  1  0.29181969  0.58699065  0.76808081  1  0.093861  0  0.105764  0.11236  0  0.99795  0
H  H148  1  0.73192022  0.70817904  0.08699067  1  0.093822  0  0.105722  0.112316  0  0.997962  0
H  H149  1  0.26808023  0.20817955  0.41301026  1  0.093896  0  0.105746  0.112332  0  0.997951  0
H  H150  1  0.23191916  0.79182035  0.91301024  1  0.093813  0  0.105744  0.112303  0  0.997965  0
H  H151  1  0.76807950  0.29182085  0.58698891  1  0.093839  0  0.105734  0.112323  0  0.997995  0
C  C152  1  0.90027994  0.19732416  0.24668380  1  -0.010416  0  -0.031066  -0.166431  0  3.922042  0
C  C153  1  0.59972032  0.80267628  0.74668440  1  -0.010474  0  -0.031085  -0.166513  0  3.922063  0
C  C154  1  0.09971929  0.69732321  0.25331593  1  -0.010174  0  -0.031088  -0.166477  0  3.922074  0
C  C155  1  0.40027995  0.30267613  0.75331675  1  -0.010178  0  -0.031049  -0.166459  0  3.921993  0
C  C156  1  0.24668448  0.90028045  0.19732350  1  -0.010177  0  -0.031098  -0.1665  0  3.92211  0
C  C157  1  0.74668378  0.59971937  0.80267619  1  -0.010237  0  -0.031085  -0.166539  0  3.922168  0
C  C158  1  0.25331604  0.09972002  0.69732395  1  -0.01018  0  -0.031094  -0.166561  0  3.922095  0
C  C159  1  0.75331640  0.40027955  0.30267643  1  -0.010167  0  -0.031095  -0.166552  0  3.922068  0
C  C160  1  0.19732403  0.24668362  0.90027980  1  -0.010107  0  -0.031086  -0.166452  0  3.922201  0
C  C161  1  0.80267652  0.74668289  0.59971891  1  -0.010188  0  -0.031014  -0.166383  0  3.922006  0
C  C162  1  0.69732239  0.25331542  0.09972027  1  -0.010345  0  -0.031122  -0.166576  0  3.922156  0
C  C163  1  0.30267657  0.75331666  0.40028030  1  -0.01018  0  -0.031047  -0.166433  0  3.922031  0
C  C164  1  0.09972021  0.80267652  0.75331644  1  -0.010203  0  -0.031114  -0.166586  0  3.92215  0
C  C165  1  0.40027904  0.19732401  0.25331584  1  -0.01035  0  -0.031099  -0.166519  0  3.922074  0
C  C166  1  0.90027888  0.30267668  0.74668470  1  -0.010335  0  -0.031124  -0.166533  0  3.922197  0
C  C167  1  0.59971980  0.69732416  0.24668389  1  -0.010468  0  -0.03109  -0.166537  0  3.922216  0
C  C168  1  0.75331805  0.09971905  0.80267673  1  -0.010173  0  -0.031025  -0.166459  0  3.922047  0
C  C169  1  0.25331558  0.40028052  0.19732365  1  -0.010088  0  -0.031104  -0.16653  0  3.922094  0
C  C170  1  0.74668411  0.90028027  0.30267628  1  -0.010196  0  -0.031056  -0.166497  0  3.922046  0
C  C171  1  0.24668336  0.59972035  0.69732421  1  -0.010118  0  -0.031083  -0.166457  0  3.922134  0
C  C172  1  0.80267692  0.75331508  0.09972044  1  -0.01035  0  -0.031087  -0.166503  0  3.922112  0
C  C173  1  0.19732363  0.25331621  0.40028014  1  -0.01017  0  -0.031052  -0.166436  0  3.922007  0
C  C174  1  0.30267538  0.74668328  0.90027996  1  -0.010178  0  -0.031073  -0.166494  0  3.922061  0
C  C175  1  0.69732279  0.24668443  0.59971953  1  -0.010134  0  -0.031092  -0.166473  0  3.922169  0
C  C176  1  0.92279280  0.15981705  0.21062081  1  0.436185  0  0.113951  0.314539  0  4.074302  0
C  C177  1  0.57720594  0.84018336  0.71062188  1  0.436169  0  0.113963  0.314636  0  4.074212  0
C  C178  1  0.07720556  0.65981648  0.28937768  1  0.436235  0  0.113941  0.314486  0  4.074338  0
C  C179  1  0.42279402  0.34018131  0.78937771  1  0.436154  0  0.113977  0.314607  0  4.074237  0
C  C180  1  0.21062238  0.92279403  0.15981598  1  0.436195  0  0.113947  0.314471  0  4.074299  0
C  C181  1  0.71062276  0.57720611  0.84018258  1  0.436278  0  0.113932  0.314474  0  4.074158  0
C  C182  1  0.28937781  0.07720601  0.65981635  1  0.436242  0  0.11395  0.314506  0  4.074268  0
C  C183  1  0.78937815  0.42279443  0.34018357  1  0.43618  0  0.113971  0.314549  0  4.074251  0
C  C184  1  0.15981760  0.21062267  0.92279307  1  0.436184  0  0.113944  0.314495  0  4.074253  0
C  C185  1  0.84018327  0.71062081  0.57720560  1  0.436234  0  0.113926  0.314509  0  4.074267  0
C  C186  1  0.65981607  0.28937789  0.07720587  1  0.436098  0  0.113965  0.314565  0  4.074273  0
C  C187  1  0.34018337  0.78937843  0.42279435  1  0.436264  0  0.113918  0.3145  0  4.074303  0
C  C188  1  0.07720616  0.84018364  0.78937863  1  0.436256  0  0.113962  0.314585  0  4.074228  0
C  C189  1  0.42279382  0.15981693  0.28937836  1  0.436182  0  0.113922  0.314529  0  4.074189  0
C  C190  1  0.92279340  0.34018183  0.71062215  1  0.436061  0  0.11393  0.314518  0  4.074354  0
C  C191  1  0.57720652  0.65981858  0.21062292  1  0.436189  0  0.113982  0.314609  0  4.074092  0
C  C192  1  0.78937857  0.07720507  0.84018306  1  0.43623  0  0.11392  0.314507  0  4.074348  0
C  C193  1  0.28937858  0.42279379  0.15981726  1  0.436148  0  0.113964  0.314576  0  4.074251  0
C  C194  1  0.71062195  0.92279428  0.34018349  1  0.4362  0  0.113919  0.314525  0  4.07431  0
C  C195  1  0.21062160  0.57720665  0.65981865  1  0.436181  0  0.113978  0.314617  0  4.074201  0
C  C196  1  0.84018414  0.78937842  0.07720598  1  0.436116  0  0.114003  0.314622  0  4.074164  0
C  C197  1  0.15981609  0.28937830  0.42279464  1  0.436232  0  0.113944  0.314541  0  4.074242  0
C  C198  1  0.34018289  0.71062161  0.92279437  1  0.436232  0  0.113905  0.314501  0  4.074242  0
C  C199  1  0.65981639  0.21062226  0.57720589  1  0.436179  0  0.113947  0.314492  0  4.07428  0
C  C200  1  0.97670518  0.16603345  0.19656179  1  0.023847  0  -0.098101  -0.222882  0  3.925761  0
C  C201  1  0.52329596  0.83396616  0.69656134  1  0.023801  0  -0.098137  -0.223009  0  3.925708  0
C  C202  1  0.02329438  0.66603317  0.30343870  1  0.023808  0  -0.098136  -0.22295  0  3.925649  0
C  C203  1  0.47670518  0.33396622  0.80343943  1  0.023816  0  -0.098122  -0.222982  0  3.925716  0
C  C204  1  0.19656225  0.97670553  0.16603317  1  0.023838  0  -0.098113  -0.222818  0  3.925598  0
C  C205  1  0.69656094  0.52329300  0.83396740  1  0.02381  0  -0.098126  -0.222916  0  3.925556  0
C  C206  1  0.30343832  0.02329532  0.66603306  1  0.02379  0  -0.098127  -0.222874  0  3.92562  0
C  C207  1  0.80343880  0.47670476  0.33396684  1  0.023796  0  -0.098125  -0.222912  0  3.925603  0
C  C208  1  0.16603270  0.19656095  0.97670621  1  0.023818  0  -0.098085  -0.222823  0  3.925691  0
C  C209  1  0.83396575  0.69656021  0.52329443  1  0.023783  0  -0.098103  -0.222914  0  3.925692  0
C  C210  1  0.66603328  0.30343843  0.02329510  1  0.023841  0  -0.098129  -0.222913  0  3.925609  0
C  C211  1  0.33396619  0.80343941  0.47670553  1  0.023836  0  -0.098093  -0.222885  0  3.925622  0
C  C212  1  0.02329497  0.83396684  0.80343924  1  0.023805  0  -0.098106  -0.222889  0  3.925654  0
C  C213  1  0.47670459  0.16603414  0.30343889  1  0.023821  0  -0.098093  -0.222887  0  3.925665  0
C  C214  1  0.97670418  0.33396633  0.69656153  1  0.023838  0  -0.098152  -0.222998  0  3.925651  0
C  C215  1  0.52329378  0.66603288  0.19656001  1  0.023812  0  -0.098108  -0.222905  0  3.925563  0
C  C216  1  0.80343989  0.02329437  0.83396667  1  0.023779  0  -0.098123  -0.222961  0  3.925712  0
C  C217  1  0.30343921  0.47670492  0.16603403  1  0.023833  0  -0.098104  -0.222919  0  3.925744  0
C  C218  1  0.69656104  0.97670498  0.33396598  1  0.023806  0  -0.098107  -0.222911  0  3.925658  0
C  C219  1  0.19655977  0.52329434  0.66603340  1  0.023806  0  -0.098116  -0.222958  0  3.925579  0
C  C220  1  0.83396626  0.80343895  0.02329561  1  0.023807  0  -0.098126  -0.222902  0  3.925555  0
C  C221  1  0.16603321  0.30343889  0.47670501  1  0.023814  0  -0.098101  -0.222921  0  3.925699  0
C  C222  1  0.33396608  0.69656147  0.97670474  1  0.023805  0  -0.098126  -0.222979  0  3.925724  0
C  C223  1  0.66603317  0.19656168  0.52329431  1  0.023815  0  -0.098137  -0.222887  0  3.925686  0
C  C224  1  0.00662180  0.20830450  0.21529572  1  -0.06317  0  -0.016172  -0.006894  0  4.012563  0
C  C225  1  0.49337949  0.79169441  0.71529648  1  -0.063021  0  -0.016172  -0.006836  0  4.012431  0
C  C226  1  0.99337905  0.70830557  0.28470283  1  -0.063036  0  -0.016172  -0.006821  0  4.012383  0
C  C227  1  0.50662116  0.29169373  0.78470346  1  -0.063069  0  -0.016164  -0.006763  0  4.012462  0
C  C228  1  0.21529707  0.00662128  0.20830483  1  -0.063179  0  -0.016182  -0.006974  0  4.012503  0
C  C229  1  0.71529647  0.49337940  0.79169322  1  -0.063135  0  -0.016173  -0.006888  0  4.012548  0
C  C230  1  0.28470304  0.99337921  0.70830493  1  -0.063037  0  -0.016162  -0.006877  0  4.012477  0
C  C231  1  0.78470333  0.50662149  0.29169470  1  -0.063033  0  -0.016193  -0.00692  0  4.012418  0
C  C232  1  0.20830684  0.21529563  0.00662009  1  -0.063168  0  -0.016201  -0.006958  0  4.012635  0
C  C233  1  0.79169482  0.71529566  0.49337886  1  -0.063065  0  -0.016179  -0.006905  0  4.012472  0
C  C234  1  0.70830507  0.28470225  0.99337877  1  -0.063153  0  -0.016146  -0.006827  0  4.012343  0
C  C235  1  0.29169358  0.78470386  0.50662196  1  -0.063054  0  -0.016173  -0.006829  0  4.01244  0
C  C236  1  0.99337835  0.79169500  0.78470372  1  -0.063159  0  -0.016184  -0.006918  0  4.012419  0
C  C237  1  0.50662146  0.20830588  0.28470375  1  -0.063026  0  -0.016183  -0.006885  0  4.012487  0
C  C238  1  0.00662150  0.29169433  0.71529780  1  -0.063051  0  -0.016127  -0.006732  0  4.012338  0
C  C239  1  0.49337979  0.70830736  0.21529519  1  -0.063159  0  -0.016208  -0.006895  0  4.012488  0
C  C240  1  0.78470427  0.99337862  0.79169421  1  -0.063047  0  -0.016162  -0.006873  0  4.01252  0
C  C241  1  0.28470447  0.50662089  0.20830662  1  -0.063176  0  -0.01619  -0.00689  0  4.012574  0
C  C242  1  0.71529672  0.00662108  0.29169451  1  -0.06303  0  -0.016184  -0.006847  0  4.012434  0
C  C243  1  0.21529524  0.49338039  0.70830791  1  -0.063161  0  -0.016171  -0.006795  0  4.012458  0
C  C244  1  0.79169450  0.78470268  0.99337895  1  -0.063203  0  -0.016177  -0.006861  0  4.012323  0
C  C245  1  0.20830613  0.28470423  0.50662177  1  -0.063063  0  -0.016174  -0.006864  0  4.012503  0
C  C246  1  0.29169429  0.71529685  0.00662147  1  -0.063058  0  -0.016173  -0.006848  0  4.012451  0
C  C247  1  0.70830458  0.21529643  0.49337788  1  -0.063029  0  -0.016175  -0.006904  0  4.012482  0
C  C248  1  0.98372163  0.24644340  0.24914023  1  0.031065  0  -0.107338  -0.146005  0  4.030867  0
C  C249  1  0.51627903  0.75355665  0.74914131  1  0.030927  0  -0.107366  -0.146055  0  4.03101  0
C  C250  1  0.01627811  0.74644227  0.25085795  1  0.03093  0  -0.107339  -0.146097  0  4.030906  0
C  C251  1  0.48372075  0.25355668  0.75085939  1  0.030911  0  -0.107373  -0.146086  0  4.030933  0
C  C252  1  0.24914141  0.98372163  0.24644274  1  0.031066  0  -0.10731  -0.145949  0  4.030919  0
C  C253  1  0.74914020  0.51627860  0.75355695  1  0.030971  0  -0.107363  -0.146098  0  4.03102  0
C  C254  1  0.25085825  0.01627850  0.74644311  1  0.03094  0  -0.107394  -0.146089  0  4.031007  0
C  C255  1  0.75085846  0.48372106  0.25355727  1  0.030941  0  -0.107372  -0.146088  0  4.030966  0
C  C256  1  0.24644396  0.24913940  0.98372020  1  0.031049  0  -0.107337  -0.146007  0  4.030972  0
C  C257  1  0.75355659  0.74914086  0.51627811  1  0.030955  0  -0.107353  -0.14603  0  4.030834  0
C  C258  1  0.74644205  0.25085777  0.01627900  1  0.031049  0  -0.107383  -0.146029  0  4.030947  0
C  C259  1  0.25355691  0.75085898  0.48372157  1  0.030934  0  -0.107344  -0.146055  0  4.030923  0
C  C260  1  0.01627892  0.75355728  0.75085921  1  0.031091  0  -0.107376  -0.146063  0  4.030967  0
C  C261  1  0.48372073  0.24644364  0.25085853  1  0.03094  0  -0.107345  -0.146034  0  4.030906  0
C  C262  1  0.98372125  0.25355763  0.74914228  1  0.030938  0  -0.107346  -0.146015  0  4.030915  0
C  C263  1  0.51627861  0.74644361  0.24913966  1  0.031026  0  -0.107334  -0.146024  0  4.030913  0
C  C264  1  0.75085954  0.01627787  0.75355710  1  0.030935  0  -0.107292  -0.145943  0  4.030926  0
C  C265  1  0.25086034  0.48372011  0.24644328  1  0.031045  0  -0.107357  -0.146026  0  4.031095  0
C  C266  1  0.74914191  0.98372139  0.25355713  1  0.030935  0  -0.107376  -0.146094  0  4.030982  0
C  C267  1  0.24913891  0.51628002  0.74644376  1  0.031022  0  -0.107325  -0.146026  0  4.03092  0
C  C268  1  0.75355738  0.75085811  0.01628004  1  0.031107  0  -0.107356  -0.146048  0  4.030985  0
C  C269  1  0.24644316  0.25086063  0.48372054  1  0.030942  0  -0.107333  -0.146036  0  4.03097  0
C  C270  1  0.25355652  0.74914133  0.98372124  1  0.03095  0  -0.107353  -0.146027  0  4.03088  0
C  C271  1  0.74644285  0.24914171  0.51627787  1  0.030919  0  -0.10732  -0.145993  0  4.030698  0
C  C272  1  0.93158031  0.23999100  0.26475176  1  -0.036997  0  -0.085286  -0.071834  0  4.02377  0
C  C273  1  0.56841914  0.76000907  0.76475236  1  -0.036968  0  -0.085194  -0.071662  0  4.023802  0
C  C274  1  0.06841862  0.73999075  0.23524721  1  -0.036969  0  -0.085247  -0.071732  0  4.023665  0
C  C275  1  0.43158144  0.26000699  0.73524834  1  -0.037016  0  -0.08522  -0.071768  0  4.023704  0
C  C276  1  0.26475166  0.93158079  0.23999113  1  -0.037029  0  -0.085254  -0.071796  0  4.023708  0
C  C277  1  0.76475254  0.56841907  0.76000854  1  -0.036965  0  -0.085235  -0.071675  0  4.023729  0
C  C278  1  0.23524761  0.06841933  0.73999118  1  -0.036927  0  -0.0852  -0.07162  0  4.023752  0
C  C279  1  0.73524770  0.43158099  0.26000922  1  -0.03693  0  -0.085185  -0.071615  0  4.023721  0
C  C280  1  0.23999205  0.26475164  0.93157931  1  -0.037058  0  -0.085285  -0.071804  0  4.023776  0
C  C281  1  0.76000854  0.76475117  0.56841981  1  -0.036983  0  -0.085277  -0.071806  0  4.023695  0
C  C282  1  0.73999082  0.23524751  0.06841911  1  -0.037009  0  -0.085183  -0.071658  0  4.023782  0
C  C283  1  0.26000850  0.73524789  0.43158105  1  -0.036991  0  -0.085251  -0.071789  0  4.023746  0
C  C284  1  0.06841945  0.76000929  0.73524847  1  -0.036944  0  -0.085179  -0.071626  0  4.023771  0
C  C285  1  0.43158062  0.23999162  0.23524787  1  -0.037031  0  -0.08524  -0.071732  0  4.02369  0
C  C286  1  0.93158073  0.26000875  0.76475342  1  -0.037028  0  -0.085203  -0.071677  0  4.023765  0
C  C287  1  0.56841950  0.73999172  0.26475230  1  -0.036967  0  -0.085276  -0.071824  0  4.023724  0
C  C288  1  0.73524969  0.06841871  0.76000871  1  -0.037042  0  -0.085305  -0.071812  0  4.023783  0
C  C289  1  0.23524801  0.43158082  0.23999130  1  -0.03704  0  -0.0852  -0.071673  0  4.023894  0
C  C290  1  0.76475254  0.93158056  0.26000866  1  -0.037026  0  -0.085217  -0.071705  0  4.023749  0
C  C291  1  0.26475086  0.56842049  0.73999220  1  -0.037066  0  -0.085303  -0.071841  0  4.023786  0
C  C292  1  0.76000889  0.73524786  0.06841934  1  -0.037039  0  -0.085211  -0.071696  0  4.023844  0
C  C293  1  0.23999122  0.23524872  0.43158122  1  -0.037004  0  -0.085262  -0.071756  0  4.023726  0
C  C294  1  0.26000814  0.76475199  0.93158073  1  -0.036989  0  -0.085182  -0.071628  0  4.023729  0
C  C295  1  0.73999046  0.26475320  0.56841997  1  -0.036957  0  -0.085257  -0.071787  0  4.023707  0
C  C296  1  0.84503203  0.19368323  0.26587354  1  1.51047  0  0.221715  0.61247  0  4.152357  0
C  C297  1  0.65496702  0.80631763  0.76587604  1  1.510471  0  0.221728  0.612494  0  4.152479  0
C  C298  1  0.15496561  0.69368239  0.23412420  1  1.510125  0  0.221708  0.612373  0  4.152436  0
C  C299  1  0.34503366  0.30631614  0.73412550  1  1.510121  0  0.22169  0.612481  0  4.152278  0
C  C300  1  0.26587532  0.84503383  0.19368218  1  1.510123  0  0.221735  0.612597  0  4.152436  0
C  C301  1  0.76587593  0.65496445  0.80631709  1  1.510111  0  0.221757  0.612624  0  4.152334  0
C  C302  1  0.23412561  0.15496665  0.69368311  1  1.510101  0  0.221747  0.61256  0  4.152257  0
C  C303  1  0.73412504  0.34503328  0.30631730  1  1.510144  0  0.2218  0.612613  0  4.15236  0
C  C304  1  0.19368242  0.26587645  0.84503430  1  1.510147  0  0.22173  0.61249  0  4.152473  0
C  C305  1  0.80631817  0.76587499  0.65496522  1  1.510141  0  0.221739  0.612592  0  4.152231  0
C  C306  1  0.69368223  0.23412378  0.15496657  1  1.510482  0  0.221725  0.612543  0  4.152463  0
C  C307  1  0.30631748  0.73412537  0.34503399  1  1.510124  0  0.221805  0.61265  0  4.15228  0
C  C308  1  0.15496614  0.80631746  0.73412550  1  1.510117  0  0.221678  0.612477  0  4.152499  0
C  C309  1  0.34503313  0.19368266  0.23412459  1  1.51043  0  0.22172  0.612501  0  4.15241  0
C  C310  1  0.84503335  0.30631790  0.76587723  1  1.510479  0  0.221736  0.612537  0  4.152484  0
C  C311  1  0.65496530  0.69368415  0.26587791  1  1.510475  0  0.221897  0.612799  0  4.151957  0
C  C312  1  0.73412761  0.15496488  0.80631726  1  1.51011  0  0.221791  0.612665  0  4.152042  0
C  C313  1  0.23412343  0.34503425  0.19368235  1  1.510177  0  0.22175  0.612513  0  4.152371  0
C  C314  1  0.76587415  0.84503365  0.30631752  1  1.510114  0  0.221812  0.612682  0  4.15229  0
C  C315  1  0.26587670  0.65496503  0.69368334  1  1.510136  0  0.221739  0.612486  0  4.152483  0
C  C316  1  0.80631853  0.73412345  0.15496594  1  1.51046  0  0.221713  0.612456  0  4.15257  0
C  C317  1  0.19368277  0.23412491  0.34503383  1  1.51013  0  0.22173  0.612496  0  4.152508  0
C  C318  1  0.30631633  0.76587373  0.84503367  1  1.510134  0  0.221677  0.612415  0  4.152422  0
C  C319  1  0.69368188  0.26587493  0.65496704  1  1.510153  0  0.221742  0.612499  0  4.152465  0
C  C320  1  0.06412072  0.21210846  0.20133030  1  1.568628  0  0.229905  0.611485  0  4.140402  0
C  C321  1  0.43587980  0.78789123  0.70133154  1  1.568625  0  0.229872  0.611426  0  4.140301  0
C  C322  1  0.93587894  0.71210783  0.29866825  1  1.568818  0  0.229915  0.611455  0  4.140182  0
C  C323  1  0.56411965  0.28789386  0.79866918  1  1.568784  0  0.229817  0.611232  0  4.140444  0
C  C324  1  0.20133215  0.06412090  0.21210719  1  1.568729  0  0.229915  0.611488  0  4.140283  0
C  C325  1  0.70133064  0.43587935  0.78789287  1  1.568654  0  0.229923  0.611551  0  4.140184  0
C  C326  1  0.29866716  0.93587959  0.71210761  1  1.568841  0  0.229869  0.61133  0  4.140338  0
C  C327  1  0.79866798  0.56412074  0.28789240  1  1.568794  0  0.229875  0.611419  0  4.140367  0
C  C328  1  0.21210831  0.20133189  0.06411978  1  1.568657  0  0.22995  0.611496  0  4.140101  0
C  C329  1  0.78789213  0.70133106  0.43587916  1  1.568837  0  0.229872  0.611448  0  4.140356  0
C  C330  1  0.71210705  0.29866839  0.93587908  1  1.568824  0  0.229884  0.611423  0  4.140365  0
C  C331  1  0.28789163  0.79866965  0.56412087  1  1.568608  0  0.229835  0.611319  0  4.140383  0
C  C332  1  0.93587904  0.78789302  0.79866795  1  1.56882  0  0.229902  0.611472  0  4.140219  0
C  C333  1  0.56412036  0.21210867  0.29866790  1  1.568798  0  0.22989  0.611376  0  4.140335  0
C  C334  1  0.06412002  0.28789366  0.70133198  1  1.568804  0  0.22985  0.6113  0  4.14039  0
C  C335  1  0.43587931  0.71210802  0.20133105  1  1.568651  0  0.229852  0.611346  0  4.1404  0
C  C336  1  0.79866999  0.93587820  0.78789106  1  1.56825  0  0.229882  0.611528  0  4.140352  0
C  C337  1  0.29866833  0.56412015  0.21210816  1  1.568619  0  0.229928  0.611465  0  4.140135  0
C  C338  1  0.70133260  0.06412109  0.28789143  1  1.568801  0  0.22984  0.611287  0  4.140559  0
C  C339  1  0.20133059  0.43587995  0.71210863  1  1.568641  0  0.229891  0.611319  0  4.140351  0
C  C340  1  0.78789264  0.79866801  0.93587967  1  1.568807  0  0.229854  0.611346  0  4.140366  0
C  C341  1  0.21210802  0.29866923  0.56412068  1  1.568607  0  0.229873  0.611416  0  4.140388  0
C  C342  1  0.28789231  0.70133151  0.06411997  1  1.568643  0  0.229929  0.611423  0  4.140245  0
C  C343  1  0.71210852  0.20133064  0.43587857  1  1.568235  0  0.229892  0.611448  0  4.140305  0
N  N344  1  0.89468351  0.11872017  0.18965212  1  -1.315555  0  -0.589786  -0.620402  0  3.360044  0
N  N345  1  0.60531843  0.88127943  0.68965239  1  -1.31547  0  -0.589785  -0.620319  0  3.360123  0
N  N346  1  0.10531594  0.61871969  0.31034753  1  -1.315541  0  -0.589764  -0.620328  0  3.359992  0
N  N347  1  0.39468401  0.38127932  0.81034962  1  -1.315475  0  -0.589798  -0.62038  0  3.360002  0
N  N348  1  0.18965209  0.89468357  0.11871990  1  -1.31548  0  -0.58978  -0.620367  0  3.360013  0
N  N349  1  0.68965287  0.60531573  0.88128068  1  -1.315565  0  -0.589799  -0.620315  0  3.359942  0
N  N350  1  0.31034776  0.10531643  0.61871947  1  -1.315528  0  -0.589777  -0.620361  0  3.35993  0
N  N351  1  0.81034837  0.39468287  0.38128042  1  -1.315494  0  -0.589804  -0.620359  0  3.360068  0
N  N352  1  0.11871873  0.18965235  0.89468424  1  -1.315535  0  -0.589772  -0.620332  0  3.359929  0
N  N353  1  0.88127971  0.68965180  0.60531639  1  -1.315554  0  -0.589776  -0.620369  0  3.359999  0
N  N354  1  0.61871959  0.31034891  0.10531635  1  -1.3155  0  -0.589763  -0.620375  0  3.360035  0
N  N355  1  0.38127990  0.81034912  0.39468468  1  -1.315527  0  -0.589749  -0.620318  0  3.360028  0
N  N356  1  0.10531624  0.88128052  0.81034851  1  -1.31554  0  -0.589782  -0.620401  0  3.359917  0
N  N357  1  0.39468252  0.11872047  0.31034745  1  -1.315539  0  -0.589786  -0.620342  0  3.360031  0
N  N358  1  0.89468342  0.38127981  0.68965112  1  -1.315459  0  -0.589757  -0.620355  0  3.360008  0
N  N359  1  0.60531496  0.61871899  0.18965299  1  -1.315527  0  -0.589816  -0.620401  0  3.359802  0
N  N360  1  0.81034885  0.10531592  0.88128034  1  -1.315549  0  -0.589736  -0.620293  0  3.360015  0
N  N361  1  0.31034847  0.39468377  0.11871995  1  -1.315545  0  -0.589774  -0.620345  0  3.36003  0
N  N362  1  0.68965081  0.89468386  0.38127918  1  -1.315483  0  -0.589744  -0.620383  0  3.360066  0
N  N363  1  0.18965059  0.60531623  0.61872061  1  -1.315557  0  -0.589792  -0.620462  0  3.359928  0
N  N364  1  0.88128023  0.81034834  0.10531719  1  -1.31551  0  -0.589821  -0.620429  0  3.360062  0
N  N365  1  0.11872005  0.31034731  0.39468384  1  -1.315565  0  -0.589783  -0.620328  0  3.360037  0
N  N366  1  0.38127977  0.68965297  0.89468309  1  -1.31552  0  -0.589772  -0.620288  0  3.360082  0
N  N367  1  0.61872025  0.18965157  0.60531635  1  -1.315476  0  -0.589776  -0.62035  0  3.36003  0
O  O368  1  0.20491766  0.20491531  0.20491950  1  -1.225533  0  -0.574399  -1.025138  0  2.547663  0
O  O369  1  0.29508404  0.79508121  0.70491860  1  -1.225475  0  -0.574366  -1.025137  0  2.547617  0
O  O370  1  0.79508079  0.70491952  0.29508420  1  -1.22548  0  -0.574373  -1.025142  0  2.54765  0
O  O371  1  0.70492019  0.29508256  0.79508293  1  -1.22553  0  -0.574362  -1.025087  0  2.547557  0
O  O372  1  0.79508447  0.79508220  0.79508034  1  -1.225541  0  -0.574371  -1.025124  0  2.547547  0
O  O373  1  0.70491850  0.20491750  0.29508005  1  -1.225522  0  -0.574372  -1.025085  0  2.547578  0
O  O374  1  0.20491658  0.29508315  0.70492000  1  -1.225521  0  -0.57439  -1.025174  0  2.547694  0
O  O375  1  0.29508433  0.70491932  0.20491730  1  -1.225512  0  -0.574361  -1.025127  0  2.547608  0
O  O376  1  0.81404622  0.15900936  0.24465457  1  -1.178418  0  -0.31663  -0.559235  0  2.34701  0
O  O377  1  0.68595445  0.84099109  0.74465467  1  -1.178378  0  -0.316649  -0.559271  0  2.347002  0
O  O378  1  0.18595293  0.65900741  0.25534353  1  -1.178361  0  -0.316659  -0.559251  0  2.347045  0
O  O379  1  0.31404552  0.34099114  0.75534452  1  -1.178356  0  -0.316648  -0.559292  0  2.346953  0
O  O380  1  0.24465553  0.81404724  0.15900792  1  -1.178395  0  -0.316634  -0.559313  0  2.346982  0
O  O381  1  0.74465655  0.68595258  0.84098980  1  -1.178232  0  -0.316733  -0.559379  0  2.346894  0
O  O382  1  0.25534505  0.18595320  0.65900845  1  -1.178386  0  -0.316669  -0.559253  0  2.346946  0
O  O383  1  0.75534436  0.31404559  0.34099232  1  -1.178425  0  -0.316687  -0.55931  0  2.346952  0
O  O384  1  0.15900855  0.24465506  0.81404615  1  -1.178357  0  -0.316642  -0.559272  0  2.347035  0
O  O385  1  0.84099041  0.74465608  0.68595334  1  -1.178323  0  -0.316727  -0.559316  0  2.346818  0
O  O386  1  0.65900916  0.25534431  0.18595517  1  -1.178391  0  -0.31663  -0.559266  0  2.347033  0
O  O387  1  0.34099140  0.75534514  0.31404660  1  -1.178383  0  -0.316766  -0.559422  0  2.346969  0
O  O388  1  0.18595354  0.84099173  0.75534408  1  -1.178382  0  -0.316648  -0.559279  0  2.346999  0
O  O389  1  0.31404531  0.15900841  0.25534358  1  -1.178386  0  -0.316657  -0.559304  0  2.346998  0
O  O390  1  0.81404524  0.34099090  0.74465591  1  -1.178384  0  -0.316629  -0.559264  0  2.347016  0
O  O391  1  0.68595344  0.65900955  0.24465611  1  -1.178262  0  -0.316781  -0.55943  0  2.346686  0
O  O392  1  0.75534542  0.18595305  0.84099033  1  -1.178287  0  -0.316762  -0.559401  0  2.346844  0
O  O393  1  0.25534400  0.31404573  0.15900885  1  -1.17836  0  -0.316685  -0.55932  0  2.346999  0
O  O394  1  0.74465431  0.81404710  0.34099139  1  -1.178404  0  -0.316725  -0.559379  0  2.346998  0
O  O395  1  0.24465619  0.68595431  0.65900831  1  -1.178339  0  -0.316678  -0.559313  0  2.346993  0
O  O396  1  0.84099081  0.75534563  0.18595369  1  -1.178414  0  -0.316662  -0.559273  0  2.347081  0
O  O397  1  0.15900855  0.25534461  0.31404610  1  -1.178376  0  -0.316667  -0.559288  0  2.347009  0
O  O398  1  0.34099060  0.74465361  0.81404626  1  -1.178368  0  -0.31666  -0.559258  0  2.346978  0
O  O399  1  0.65900836  0.24465515  0.68595363  1  -1.178421  0  -0.316666  -0.559252  0  2.34702  0
O  O400  1  0.83107816  0.22552576  0.30298567  1  -1.175933  0  -0.320997  -0.554471  0  2.347812  0
O  O401  1  0.66891964  0.77447752  0.80298970  1  -1.175973  0  -0.320972  -0.554494  0  2.347845  0
O  O402  1  0.16891995  0.72552451  0.19701290  1  -1.17596  0  -0.320997  -0.554443  0  2.347838  0
O  O403  1  0.33107899  0.27447438  0.69701300  1  -1.175948  0  -0.320996  -0.55449  0  2.347774  0
O  O404  1  0.30298738  0.83108002  0.22552430  1  -1.175948  0  -0.321007  -0.554535  0  2.34785  0
O  O405  1  0.80299045  0.66891913  0.77447769  1  -1.175959  0  -0.32096  -0.554541  0  2.347832  0
O  O406  1  0.19701310  0.16892167  0.72552570  1  -1.175907  0  -0.32101  -0.554533  0  2.347743  0
O  O407  1  0.69701374  0.33107817  0.27447556  1  -1.175938  0  -0.321006  -0.554498  0  2.347887  0
O  O408  1  0.22552225  0.30299052  0.83108042  1  -1.175987  0  -0.320993  -0.554511  0  2.347814  0
O  O409  1  0.77447842  0.80298940  0.66891954  1  -1.175929  0  -0.320938  -0.554554  0  2.347905  0
O  O410  1  0.72552276  0.19701018  0.16891921  1  -1.175992  0  -0.320992  -0.554531  0  2.347841  0
O  O411  1  0.27447568  0.69701247  0.33107932  1  -1.175931  0  -0.320972  -0.554506  0  2.347806  0
O  O412  1  0.16892041  0.77447493  0.69701338  1  -1.175931  0  -0.320985  -0.55448  0  2.347845  0
O  O413  1  0.33107853  0.22552396  0.19701213  1  -1.175972  0  -0.320978  -0.554464  0  2.347803  0
O  O414  1  0.83108020  0.27447816  0.80299170  1  -1.176024  0  -0.320992  -0.554523  0  2.347823  0
O  O415  1  0.66891799  0.72552274  0.30299279  1  -1.176062  0  -0.321003  -0.554601  0  2.347666  0
O  O416  1  0.69701516  0.16892027  0.77447474  1  -1.175885  0  -0.320986  -0.554566  0  2.347766  0
O  O417  1  0.19701010  0.33107997  0.22552255  1  -1.175975  0  -0.320983  -0.554477  0  2.347808  0
O  O418  1  0.80298586  0.83107902  0.27447453  1  -1.175928  0  -0.321049  -0.554626  0  2.347835  0
O  O419  1  0.30299038  0.66891895  0.72552270  1  -1.175993  0  -0.320986  -0.554481  0  2.34784  0
O  O420  1  0.77447909  0.69700898  0.16891942  1  -1.175961  0  -0.320964  -0.554472  0  2.347843  0
O  O421  1  0.22552411  0.19701208  0.33107951  1  -1.175938  0  -0.320964  -0.554476  0  2.347793  0
O  O422  1  0.27447462  0.80298654  0.83107904  1  -1.17594  0  -0.320971  -0.554454  0  2.347781  0
O  O423  1  0.72552367  0.30298742  0.66892012  1  -1.175919  0  -0.320981  -0.554473  0  2.347898  0
O  O424  1  0.08483117  0.17260658  0.17722523  1  -1.172007  0  -0.315954  -0.548586  0  2.324343  0
O  O425  1  0.41517057  0.82739229  0.67722417  1  -1.17196  0  -0.315984  -0.548598  0  2.324176  0
O  O426  1  0.91516960  0.67260711  0.32277408  1  -1.171981  0  -0.315966  -0.548572  0  2.324256  0
O  O427  1  0.58482936  0.32739262  0.82277422  1  -1.172018  0  -0.315947  -0.548482  0  2.324398  0
O  O428  1  0.17722796  0.08483170  0.17260568  1  -1.171917  0  -0.315996  -0.548589  0  2.324282  0
O  O429  1  0.67722674  0.41516889  0.82739203  1  -1.172005  0  -0.315981  -0.548609  0  2.3244  0
O  O430  1  0.32277339  0.91516994  0.67260644  1  -1.171978  0  -0.315989  -0.548529  0  2.32418  0
O  O431  1  0.82277459  0.58482926  0.32739314  1  -1.171993  0  -0.315978  -0.548573  0  2.324217  0
O  O432  1  0.17260553  0.17722883  0.08483066  1  -1.171996  0  -0.316005  -0.548587  0  2.32421  0
O  O433  1  0.82739366  0.67722569  0.41516984  1  -1.172014  0  -0.315952  -0.548554  0  2.32435  0
O  O434  1  0.67260753  0.32277374  0.91517023  1  -1.17199  0  -0.315981  -0.548581  0  2.324421  0
O  O435  1  0.32739199  0.82277431  0.58483053  1  -1.171986  0  -0.315935  -0.548513  0  2.32445  0
O  O436  1  0.91516898  0.82739411  0.82277302  1  -1.172033  0  -0.316005  -0.548599  0  2.324294  0
O  O437  1  0.58483037  0.17260720  0.32277250  1  -1.171945  0  -0.315975  -0.548545  0  2.324213  0
O  O438  1  0.08482936  0.32739318  0.67722735  1  -1.172007  0  -0.315944  -0.548483  0  2.324347  0
O  O439  1  0.41516921  0.67260728  0.17722641  1  -1.172014  0  -0.315919  -0.548478  0  2.324425  0
O  O440  1  0.82277576  0.91516859  0.82739138  1  -1.171987  0  -0.31597  -0.548661  0  2.324418  0
O  O441  1  0.32277302  0.58483021  0.17260741  1  -1.171963  0  -0.315968  -0.548531  0  2.324197  0
O  O442  1  0.67722557  0.08483035  0.32739260  1  -1.171955  0  -0.315966  -0.548554  0  2.324301  0
O  O443  1  0.17722596  0.41517064  0.67260750  1  -1.171988  0  -0.315969  -0.548515  0  2.324255  0
O  O444  1  0.82739343  0.82277384  0.91516997  1  -1.17198  0  -0.315953  -0.548524  0  2.324259  0
O  O445  1  0.17260689  0.32277460  0.58483040  1  -1.171997  0  -0.315937  -0.548531  0  2.324356  0
O  O446  1  0.32739341  0.67722775  0.08483000  1  -1.17199  0  -0.315996  -0.548555  0  2.324213  0
O  O447  1  0.67260737  0.17722479  0.41516931  1  -1.171988  0  -0.315976  -0.548619  0  2.324256  0
O  O448  1  0.08832258  0.25445637  0.21529766  1  -1.180154  0  -0.320172  -0.552702  0  2.332741  0
O  O449  1  0.41167871  0.74554293  0.71529851  1  -1.180204  0  -0.320078  -0.552624  0  2.332744  0
O  O450  1  0.91167718  0.75445726  0.28470173  1  -1.180365  0  -0.320166  -0.5527  0  2.332654  0
O  O451  1  0.58832263  0.24554323  0.78470020  1  -1.180291  0  -0.320101  -0.552589  0  2.332633  0
O  O452  1  0.21529832  0.08832312  0.25445631  1  -1.180338  0  -0.320164  -0.552716  0  2.332722  0
O  O453  1  0.71529880  0.41167795  0.74554175  1  -1.180164  0  -0.320144  -0.552711  0  2.332536  0
O  O454  1  0.28470013  0.91167900  0.75445673  1  -1.180364  0  -0.320111  -0.552612  0  2.332728  0
O  O455  1  0.78470068  0.58832210  0.24554410  1  -1.180347  0  -0.320128  -0.552646  0  2.332786  0
O  O456  1  0.25445821  0.21529850  0.08832157  1  -1.180186  0  -0.320177  -0.5527  0  2.332662  0
O  O457  1  0.74554304  0.71529835  0.41167818  1  -1.180376  0  -0.320145  -0.552693  0  2.332721  0
O  O458  1  0.75445736  0.28470147  0.91167682  1  -1.180363  0  -0.320136  -0.552688  0  2.332711  0
O  O459  1  0.24554248  0.78470227  0.58832271  1  -1.180194  0  -0.320154  -0.552647  0  2.332631  0
O  O460  1  0.91167678  0.74554432  0.78470099  1  -1.18034  0  -0.320122  -0.552661  0  2.332683  0
O  O461  1  0.58832184  0.25445736  0.28470054  1  -1.180391  0  -0.320133  -0.552631  0  2.332737  0
O  O462  1  0.08832218  0.24554343  0.71529970  1  -1.180326  0  -0.320125  -0.552646  0  2.33264  0
O  O463  1  0.41167832  0.75445826  0.21529806  1  -1.180192  0  -0.320176  -0.5527  0  2.332713  0
O  O464  1  0.78470263  0.91167717  0.74554234  1  -1.179813  0  -0.320132  -0.552666  0  2.332695  0
O  O465  1  0.28470096  0.58832195  0.25445809  1  -1.180193  0  -0.320163  -0.552715  0  2.332637  0
O  O466  1  0.71529962  0.08832209  0.24554351  1  -1.180392  0  -0.320088  -0.552553  0  2.332916  0
O  O467  1  0.21529829  0.41167819  0.75445772  1  -1.180175  0  -0.320136  -0.552632  0  2.332742  0
O  O468  1  0.74554392  0.78470140  0.91167748  1  -1.180333  0  -0.320148  -0.552665  0  2.332714  0
O  O469  1  0.25445711  0.28470194  0.58832166  1  -1.180157  0  -0.320142  -0.552672  0  2.33272  0
O  O470  1  0.24554200  0.71529803  0.08832182  1  -1.180185  0  -0.320151  -0.552679  0  2.332672  0
O  O471  1  0.75445807  0.21529684  0.41167673  1  -1.179796  0  -0.320129  -0.552611  0  2.332725  0
