# generated using pymatgen
data_ZnH17C27N4O5
_symmetry_space_group_name_H-M   'P 1'
_cell_length_a   15.99686467
_cell_length_b   16.34925585
_cell_length_c   19.99241028
_cell_angle_alpha   89.99987671
_cell_angle_beta   92.92057567
_cell_angle_gamma   90.00021410
_symmetry_Int_Tables_number   1
_chemical_formula_structural   ZnH17C27N4O5
_chemical_formula_sum   'Zn8 H136 C216 N32 O40'
_cell_volume   5221.96017596
_cell_formula_units_Z   8
loop_
 _symmetry_equiv_pos_site_id
 _symmetry_equiv_pos_as_xyz
  1  'x, y, z'
loop_
 _atom_site_type_symbol
 _atom_site_label
 _atom_site_symmetry_multiplicity
 _atom_site_fract_x
 _atom_site_fract_y
 _atom_site_fract_z
 _atom_site_occupancy
 _atom_site_pbe_bader_charge
 _atom_site_pbe_bader_spin_density
 _atom_site_pbe_cm5_charge
 _atom_site_pbe_ddec_charge
 _atom_site_pbe_ddec_spin_density
 _atom_site_pbe_ddec_sum_bond_order
 _atom_site_pbe_magmom
Zn  Zn0  1  0.45390057  0.87756474  0.14633005  1  1.258819  0  0.700155  0.795605  0  2.431153  0
Zn  Zn1  1  0.54609853  0.37756328  0.35366976  1  1.258876  0  0.700159  0.795588  0  2.431176  0
Zn  Zn2  1  0.54609814  0.12243786  0.85366822  1  1.258868  0  0.700157  0.795583  0  2.431123  0
Zn  Zn3  1  0.45390144  0.62243565  0.64632957  1  1.258872  0  0.700116  0.795516  0  2.431235  0
Zn  Zn4  1  0.05739812  0.30256162  0.66640646  1  1.268755  0  0.696313  0.796655  0  2.375926  0
Zn  Zn5  1  0.94260274  0.80255703  0.83359557  1  1.268624  0  0.696331  0.796622  0  2.375968  0
Zn  Zn6  1  0.94260372  0.69744036  0.33359245  1  1.268805  0  0.696329  0.796704  0  2.375907  0
Zn  Zn7  1  0.05738908  0.19744312  0.16640441  1  1.268766  0  0.696318  0.796707  0  2.375984  0
H  H8  1  0.95952867  0.33754993  0.39254322  1  0.105418  0  0.11716  0.132259  0  1.009449  0
H  H9  1  0.04047091  0.83754876  0.10745717  1  0.105393  0  0.117161  0.132225  0  1.009478  0
H  H10  1  0.04046628  0.66244777  0.60745689  1  0.105427  0  0.1172  0.132246  0  1.009464  0
H  H11  1  0.95953594  0.16244650  0.89254294  1  0.105397  0  0.117203  0.132233  0  1.009478  0
H  H12  1  0.80014224  0.52445284  0.47029734  1  0.103655  0  0.108518  0.114544  0  1.020802  0
H  H13  1  0.19985179  0.02445893  0.02970237  1  0.10359  0  0.108531  0.114568  0  1.020712  0
H  H14  1  0.19985146  0.47554364  0.52970171  1  0.103672  0  0.108521  0.11453  0  1.0208  0
H  H15  1  0.80014442  0.97554550  0.97029679  1  0.103638  0  0.108523  0.114536  0  1.020838  0
H  H16  1  0.78359748  0.46693671  0.26067556  1  0.095456  0  0.118316  0.129929  0  0.991711  0
H  H17  1  0.21640697  0.96693461  0.23932232  1  0.095481  0  0.118339  0.129951  0  0.991724  0
H  H18  1  0.21640437  0.53306650  0.73932285  1  0.095518  0  0.118336  0.129933  0  0.991716  0
H  H19  1  0.78359425  0.03306860  0.76067606  1  0.095494  0  0.118352  0.129957  0  0.991633  0
H  H20  1  0.66054938  0.51484056  0.44778587  1  0.080776  0  0.102904  0.101667  0  1.064225  0
H  H21  1  0.33945276  0.01483976  0.05221170  1  0.080721  0  0.102898  0.101679  0  1.064202  0
H  H22  1  0.33945184  0.48516326  0.55221250  1  0.080719  0  0.102891  0.101706  0  1.064207  0
H  H23  1  0.66054408  0.98516529  0.94778599  1  0.080762  0  0.102895  0.101746  0  1.064228  0
H  H24  1  0.51989433  0.70441788  0.34538325  1  0.094588  0  0.123293  0.138355  0  0.995028  0
H  H25  1  0.48010914  0.20441670  0.15461404  1  0.094528  0  0.123299  0.138341  0  0.995017  0
H  H26  1  0.48010689  0.29558717  0.65461563  1  0.094763  0  0.123317  0.1384  0  0.994984  0
H  H27  1  0.51988957  0.79558589  0.84538523  1  0.094903  0  0.123327  0.138348  0  0.994967  0
H  H28  1  0.74697112  0.61462593  0.26363050  1  0.114297  0  0.114241  0.129209  0  1.018775  0
H  H29  1  0.25302889  0.11462555  0.23636581  1  0.114428  0  0.114196  0.12916  0  1.018858  0
H  H30  1  0.25302822  0.38537667  0.73636680  1  0.114377  0  0.114226  0.129239  0  1.018864  0
H  H31  1  0.74696920  0.88537643  0.76363344  1  0.114401  0  0.114205  0.129239  0  1.018841  0
H  H32  1  0.32556497  0.11963755  0.68519829  1  0.112808  0  0.10463  0.111494  0  1.005563  0
H  H33  1  0.67443584  0.61964487  0.81480206  1  0.112858  0  0.104585  0.111434  0  1.005628  0
H  H34  1  0.67444563  0.88035159  0.31480348  1  0.112877  0  0.104582  0.111448  0  1.005595  0
H  H35  1  0.32556037  0.38035833  0.18519761  1  0.112855  0  0.104614  0.111456  0  1.005683  0
H  H36  1  0.45958705  0.09680381  0.62770078  1  0.087493  0  0.100357  0.104106  0  1.033189  0
H  H37  1  0.54041306  0.59680804  0.87229808  1  0.087682  0  0.100366  0.104133  0  1.033214  0
H  H38  1  0.54041794  0.90318900  0.37229326  1  0.087643  0  0.100371  0.104139  0  1.033169  0
H  H39  1  0.45958314  0.40319700  0.12770409  1  0.087542  0  0.100366  0.104106  0  1.033222  0
H  H40  1  0.35178367  0.21210879  0.44982408  1  0.067793  0  0.093257  0.086825  0  1.049818  0
H  H41  1  0.64821293  0.71210692  0.05017891  1  0.067939  0  0.093271  0.086869  0  1.049866  0
H  H42  1  0.64820690  0.78788953  0.55017735  1  0.067896  0  0.093298  0.086886  0  1.049878  0
H  H43  1  0.35179141  0.28788956  0.94982410  1  0.067989  0  0.093208  0.086707  0  1.049827  0
H  H44  1  0.22363406  0.24569960  0.51107478  1  0.064192  0  0.103412  0.112217  0  0.992257  0
H  H45  1  0.77636534  0.74569827  0.98892928  1  0.064166  0  0.103411  0.112222  0  0.992348  0
H  H46  1  0.77636212  0.75429688  0.48893438  1  0.065331  0  0.103435  0.112221  0  0.99241  0
H  H47  1  0.22363650  0.25430065  0.01107062  1  0.065128  0  0.103428  0.112254  0  0.992271  0
H  H48  1  0.61790486  0.13980816  0.41897122  1  0.096482  0  0.099947  0.097955  0  1.05868  0
H  H49  1  0.38209585  0.63980892  0.08102908  1  0.096496  0  0.099964  0.097982  0  1.058672  0
H  H50  1  0.38209385  0.86019260  0.58102605  1  0.096429  0  0.100036  0.098117  0  1.058562  0
H  H51  1  0.61790222  0.36019062  0.91897367  1  0.09649  0  0.100036  0.098073  0  1.058658  0
H  H52  1  0.61924999  0.08326874  0.30223871  1  0.128071  0  0.106873  0.119092  0  0.998648  0
H  H53  1  0.38075177  0.58326796  0.19776172  1  0.128091  0  0.106895  0.119136  0  0.998592  0
H  H54  1  0.38074998  0.91673019  0.69775761  1  0.128095  0  0.106887  0.119079  0  0.998708  0
H  H55  1  0.61924881  0.41672791  0.80224213  1  0.128098  0  0.106902  0.119103  0  0.998689  0
H  H56  1  0.36911613  0.99380512  0.32058732  1  0.079538  0  0.102797  0.110238  0  1.002902  0
H  H57  1  0.63088340  0.49380382  0.17941080  1  0.079503  0  0.102788  0.110202  0  1.00294  0
H  H58  1  0.63088196  0.00619748  0.67940793  1  0.079513  0  0.102845  0.110256  0  1.002923  0
H  H59  1  0.36911843  0.50619817  0.82059010  1  0.079281  0  0.102829  0.110262  0  1.002938  0
H  H60  1  0.36539590  0.05467965  0.43462005  1  0.064442  0  0.103158  0.104403  0  1.009384  0
H  H61  1  0.63460200  0.55467586  0.06537777  1  0.06432  0  0.103179  0.104405  0  1.009389  0
H  H62  1  0.63460157  0.94532478  0.56537566  1  0.064319  0  0.103189  0.104441  0  1.009287  0
H  H63  1  0.36539795  0.44532552  0.93462355  1  0.064482  0  0.103188  0.104441  0  1.009309  0
H  H64  1  0.18791206  0.40531423  0.90783927  1  0.074323  0  0.104136  0.109048  0  1.005111  0
H  H65  1  0.81209546  0.90531041  0.59215636  1  0.074297  0  0.104199  0.10929  0  1.004946  0
H  H66  1  0.81209290  0.59468469  0.09216127  1  0.07438  0  0.104154  0.109181  0  1.005041  0
H  H67  1  0.18791140  0.09468607  0.40784026  1  0.074261  0  0.104131  0.109104  0  1.005105  0
H  H68  1  0.16534673  0.51265902  0.99381607  1  0.086895  0  0.107694  0.111623  0  0.991282  0
H  H69  1  0.83466998  0.01265036  0.50617864  1  0.086908  0  0.107677  0.111631  0  0.991182  0
H  H70  1  0.83466262  0.48734174  0.00618365  1  0.086924  0  0.107688  0.111602  0  0.991222  0
H  H71  1  0.16534064  0.98734123  0.49381714  1  0.086896  0  0.107682  0.111625  0  0.991213  0
H  H72  1  0.94787331  0.59806816  0.87730770  1  0.143984  0  0.104183  0.113799  0  1.033714  0
H  H73  1  0.05213368  0.09806735  0.62269345  1  0.143759  0  0.104187  0.113833  0  1.033725  0
H  H74  1  0.05213166  0.40193077  0.12269384  1  0.143823  0  0.104181  0.113822  0  1.033761  0
H  H75  1  0.94786816  0.90193403  0.37730645  1  0.143814  0  0.104185  0.113775  0  1.033715  0
H  H76  1  0.97532669  0.49475047  0.78975136  1  0.073139  0  0.102854  0.107464  0  1.000042  0
H  H77  1  0.02467551  0.99475081  0.71025039  1  0.072972  0  0.102833  0.107439  0  1.000079  0
H  H78  1  0.02467953  0.50525029  0.21024973  1  0.073036  0  0.102897  0.107506  0  0.999988  0
H  H79  1  0.97532695  0.00525179  0.28975054  1  0.073234  0  0.10284  0.107413  0  1.000134  0
H  H80  1  0.19585695  0.67065348  0.95461194  1  0.092521  0  0.100515  0.100566  0  1.017721  0
H  H81  1  0.80414154  0.17065378  0.54539222  1  0.092406  0  0.100516  0.100514  0  1.017749  0
H  H82  1  0.80414049  0.32934728  0.04539328  1  0.092432  0  0.100507  0.100468  0  1.01768  0
H  H83  1  0.19586030  0.82934821  0.45460718  1  0.092368  0  0.100525  0.100509  0  1.01774  0
H  H84  1  0.30738578  0.73718209  0.02644232  1  0.083677  0  0.104052  0.109194  0  1.025867  0
H  H85  1  0.69261341  0.23717657  0.47356074  1  0.083695  0  0.10404  0.109164  0  1.025826  0
H  H86  1  0.69261105  0.26282662  0.97355987  1  0.083703  0  0.104  0.109131  0  1.025854  0
H  H87  1  0.30738717  0.76282358  0.52643961  1  0.083806  0  0.104018  0.109107  0  1.025892  0
H  H88  1  0.16629401  0.69401389  0.20024728  1  0.083034  0  0.100145  0.101583  0  1.026185  0
H  H89  1  0.83371252  0.19401974  0.29975967  1  0.083228  0  0.100205  0.101634  0  1.026141  0
H  H90  1  0.83371344  0.30598259  0.79975986  1  0.083226  0  0.100221  0.101683  0  1.026084  0
H  H91  1  0.16628306  0.80597674  0.70023897  1  0.083252  0  0.10015  0.101576  0  1.026054  0
H  H92  1  0.04561293  0.64385124  0.12592271  1  0.095695  0  0.098449  0.101909  0  1.040398  0
H  H93  1  0.95439404  0.14386651  0.37408534  1  0.095653  0  0.098454  0.10196  0  1.040387  0
H  H94  1  0.95439514  0.35613790  0.87408596  1  0.095654  0  0.098442  0.101959  0  1.040361  0
H  H95  1  0.04560280  0.85613303  0.62591285  1  0.095595  0  0.098454  0.101996  0  1.040301  0
H  H96  1  0.98449610  0.30318863  0.50206120  1  0.176732  0  0.13948  0.113382  0  1.022501  0
H  H97  1  0.01550914  0.80318451  0.99794201  1  0.176549  0  0.139447  0.113354  0  1.022558  0
H  H98  1  0.01550574  0.69681213  0.49793670  1  0.176742  0  0.139495  0.113399  0  1.022433  0
H  H99  1  0.98449645  0.19681014  0.00206005  1  0.176719  0  0.13947  0.113413  0  1.022467  0
H  H100  1  0.96329556  0.46751635  0.66255669  1  0.144525  0  0.125136  0.128067  0  1.006558  0
H  H101  1  0.03669966  0.96751334  0.83744530  1  0.144597  0  0.125166  0.128109  0  1.006661  0
H  H102  1  0.03670754  0.53248441  0.33744176  1  0.144538  0  0.125097  0.12801  0  1.006658  0
H  H103  1  0.96329153  0.03248375  0.16255715  1  0.144552  0  0.125114  0.12803  0  1.006613  0
H  H104  1  0.88179881  0.53526561  0.54965272  1  0.110006  0  0.129631  0.132104  0  0.998418  0
H  H105  1  0.11819418  0.03526724  0.95034844  1  0.110325  0  0.129653  0.13212  0  0.998571  0
H  H106  1  0.11819552  0.46473087  0.45034737  1  0.110081  0  0.129643  0.132088  0  0.998561  0
H  H107  1  0.88180328  0.96472924  0.04965177  1  0.110515  0  0.129625  0.132041  0  0.998549  0
H  H108  1  0.03115347  0.33153404  0.28420935  1  0.172246  0  0.149401  0.125118  0  0.964754  0
H  H109  1  0.96884173  0.83154025  0.21578037  1  0.171547  0  0.149448  0.125346  0  0.964688  0
H  H110  1  0.96883901  0.66846183  0.71578065  1  0.171654  0  0.14944  0.125296  0  0.964744  0
H  H111  1  0.03116074  0.16846541  0.78421956  1  0.171664  0  0.149439  0.125308  0  0.964725  0
H  H112  1  0.86460381  0.23711433  0.13335825  1  0.109555  0  0.121509  0.114543  0  1.007654  0
H  H113  1  0.13537286  0.73711405  0.36664035  1  0.109661  0  0.121524  0.114513  0  1.007814  0
H  H114  1  0.13537300  0.76288582  0.86663909  1  0.109923  0  0.121518  0.114516  0  1.007847  0
H  H115  1  0.86462522  0.26288794  0.63336089  1  0.11  0  0.121504  0.114498  0  1.007816  0
H  H116  1  0.77377730  0.33245968  0.21863664  1  0.139336  0  0.136981  0.150831  0  0.987395  0
H  H117  1  0.22621286  0.83245567  0.28136687  1  0.139604  0  0.136952  0.150723  0  0.987359  0
H  H118  1  0.22621013  0.66754108  0.78136766  1  0.139616  0  0.136944  0.150698  0  0.987376  0
H  H119  1  0.77378897  0.16754204  0.71863453  1  0.139598  0  0.136939  0.150694  0  0.987415  0
H  H120  1  0.48203750  0.73024664  0.24084067  1  0.19263  0  0.141928  0.117151  0  1.008901  0
H  H121  1  0.51796293  0.23024900  0.25915896  1  0.192645  0  0.141923  0.117132  0  1.008894  0
H  H122  1  0.51796246  0.26975473  0.75915866  1  0.192564  0  0.141915  0.11714  0  1.008981  0
H  H123  1  0.48203515  0.76975237  0.74084079  1  0.192636  0  0.141935  0.117169  0  1.00886  0
H  H124  1  0.66251618  0.85794344  0.13533969  1  0.111091  0  0.120743  0.112242  0  0.997903  0
H  H125  1  0.33748160  0.35794059  0.36465910  1  0.111098  0  0.120754  0.11228  0  0.997853  0
H  H126  1  0.33748066  0.14205915  0.86465901  1  0.111131  0  0.120739  0.112295  0  0.997711  0
H  H127  1  0.66251837  0.64206323  0.63533822  1  0.111169  0  0.120787  0.112321  0  0.997709  0
H  H128  1  0.74540019  0.74428388  0.21714460  1  0.250164  0  0.127976  0.153215  0  1.034937  0
H  H129  1  0.25459968  0.24428277  0.28285247  1  0.250176  0  0.127982  0.153213  0  1.035049  0
H  H130  1  0.25459916  0.25571933  0.78285269  1  0.250121  0  0.127983  0.153218  0  1.034998  0
H  H131  1  0.74539841  0.75572289  0.71714677  1  0.250154  0  0.127971  0.153202  0  1.035025  0
H  H132  1  0.59978848  0.58727421  0.53949286  1  0.144579  0  0.141048  0.103118  0  0.998162  0
H  H133  1  0.40021472  0.08727622  0.96050764  1  0.144622  0  0.140993  0.103049  0  0.998202  0
H  H134  1  0.40021273  0.41272778  0.46050752  1  0.144659  0  0.140998  0.103029  0  0.998159  0
H  H135  1  0.59978462  0.91273005  0.03949215  1  0.144714  0  0.140987  0.102987  0  0.998119  0
H  H136  1  0.33929927  0.62173833  0.51224917  1  0.139877  0  0.122966  0.122179  0  1.011437  0
H  H137  1  0.66070468  0.12174245  0.98774980  1  0.13981  0  0.122942  0.122166  0  1.011434  0
H  H138  1  0.66070195  0.37825937  0.48774870  1  0.139874  0  0.122963  0.122142  0  1.011454  0
H  H139  1  0.33929527  0.87826198  0.01225202  1  0.139813  0  0.122969  0.122175  0  1.011361  0
H  H140  1  0.40998105  0.62054102  0.38656042  1  0.192553  0  0.138783  0.154748  0  0.975315  0
H  H141  1  0.59002336  0.12054219  0.11343956  1  0.192151  0  0.138776  0.154705  0  0.975338  0
H  H142  1  0.59002142  0.37946096  0.61343851  1  0.19219  0  0.138799  0.154741  0  0.975341  0
H  H143  1  0.40997473  0.87946285  0.88656118  1  0.19213  0  0.138797  0.154778  0  0.975318  0
C  C144  1  0.91262344  0.38539117  0.38521290  1  0.035286  0  -0.086297  -0.26182  0  3.949546  0
C  C145  1  0.08737631  0.88539199  0.11478792  1  0.035305  0  -0.086241  -0.261652  0  3.949508  0
C  C146  1  0.08737089  0.61460469  0.61478719  1  0.035039  0  -0.086272  -0.261617  0  3.949652  0
C  C147  1  0.91262928  0.11460510  0.88521264  1  0.035067  0  -0.086279  -0.261621  0  3.949659  0
C  C148  1  0.88593128  0.43198951  0.43869204  1  0.267264  0  0.099135  0.192047  0  4.037179  0
C  C149  1  0.11406677  0.93199178  0.06130763  1  0.267256  0  0.099167  0.192023  0  4.037281  0
C  C150  1  0.11406304  0.56800697  0.56130805  1  0.267377  0  0.099147  0.191894  0  4.037591  0
C  C151  1  0.88593695  0.06800592  0.93869235  1  0.267463  0  0.099139  0.191956  0  4.037448  0
C  C152  1  0.82205418  0.48929721  0.42853167  1  -0.038027  0  -0.086422  -0.214727  0  3.925816  0
C  C153  1  0.17794283  0.98929969  0.07146785  1  -0.038015  0  -0.086521  -0.214824  0  3.925929  0
C  C154  1  0.17794078  0.51070049  0.57146794  1  -0.038059  0  -0.086475  -0.214712  0  3.926001  0
C  C155  1  0.82205525  0.01070107  0.92853139  1  -0.038033  0  -0.086461  -0.214762  0  3.925986  0
C  C156  1  0.78451772  0.50272353  0.36477272  1  0.068014  0  0.011851  0.123091  0  3.975091  0
C  C157  1  0.21548123  0.00272511  0.13522574  1  0.068008  0  0.01183  0.12313  0  3.97519  0
C  C158  1  0.21547974  0.49727662  0.63522599  1  0.067996  0  0.011837  0.123147  0  3.975112  0
C  C159  1  0.78451873  0.99727749  0.86477309  1  0.068391  0  0.011844  0.123168  0  3.975116  0
C  C160  1  0.81226873  0.45796687  0.31068421  1  0.017802  0  -0.071191  -0.184817  0  3.880544  0
C  C161  1  0.18773254  0.95796724  0.18931455  1  0.017842  0  -0.071196  -0.184838  0  3.880642  0
C  C162  1  0.18772935  0.54203328  0.68931404  1  0.017828  0  -0.071237  -0.184871  0  3.880616  0
C  C163  1  0.81226992  0.04203536  0.81068538  1  0.017475  0  -0.07124  -0.184878  0  3.880539  0
C  C164  1  0.87477730  0.39925665  0.32162740  1  0.315427  0  0.106615  0.198722  0  4.012195  0
C  C165  1  0.12522125  0.89925927  0.17837284  1  0.3154  0  0.106582  0.198606  0  4.012346  0
C  C166  1  0.12521827  0.60074044  0.67837274  1  0.315393  0  0.106588  0.198612  0  4.012171  0
C  C167  1  0.87478184  0.10074027  0.82162811  1  0.315381  0  0.106588  0.198609  0  4.012128  0
C  C168  1  0.71329872  0.55991072  0.35740590  1  0.045773  0  0.008805  0.117706  0  3.979122  0
C  C169  1  0.28670171  0.05991071  0.14259052  1  0.045773  0  0.008828  0.117671  0  3.979272  0
C  C170  1  0.28670124  0.44009310  0.64259242  1  0.04579  0  0.008967  0.117856  0  3.978955  0
C  C171  1  0.71329450  0.94009434  0.85740765  1  0.045804  0  0.008881  0.117795  0  3.979006  0
C  C172  1  0.65415901  0.55826949  0.40664393  1  0.000303  0  -0.089217  -0.229271  0  3.954867  0
C  C173  1  0.34584266  0.05826983  0.09335305  1  0.000255  0  -0.089223  -0.229304  0  3.954897  0
C  C174  1  0.34584221  0.44173494  0.59335494  1  0.000514  0  -0.089288  -0.229465  0  3.954872  0
C  C175  1  0.65415480  0.94173583  0.90664467  1  0.000269  0  -0.089197  -0.229374  0  3.954954  0
C  C176  1  0.58390117  0.60820742  0.40041327  1  0.28945  0  0.102366  0.198763  0  4.045745  0
C  C177  1  0.41610131  0.10820678  0.09958565  1  0.289389  0  0.102401  0.198818  0  4.045708  0
C  C178  1  0.41610004  0.39179701  0.59958611  1  0.289557  0  0.102453  0.198972  0  4.045408  0
C  C179  1  0.58389678  0.89179766  0.90041309  1  0.28955  0  0.102322  0.19881  0  4.045596  0
C  C180  1  0.57222444  0.66191328  0.34702121  1  0.03546  0  -0.076266  -0.236862  0  3.92822  0
C  C181  1  0.42777762  0.16191315  0.15297660  1  0.035427  0  -0.076198  -0.236809  0  3.928146  0
C  C182  1  0.42777678  0.33809115  0.65297767  1  0.03487  0  -0.076315  -0.23702  0  3.928259  0
C  C183  1  0.57222047  0.83808945  0.84702214  1  0.034922  0  -0.076217  -0.236734  0  3.928083  0
C  C184  1  0.63099211  0.66259605  0.29786045  1  0.353805  0  0.109022  0.199197  0  4.019709  0
C  C185  1  0.36900932  0.16259680  0.20213633  1  0.353598  0  0.108902  0.19913  0  4.019746  0
C  C186  1  0.36900848  0.33740777  0.70213790  1  0.353731  0  0.108964  0.199159  0  4.019777  0
C  C187  1  0.63098877  0.83740702  0.79786091  1  0.353517  0  0.108925  0.199057  0  4.019815  0
C  C188  1  0.70127424  0.61194005  0.30215090  1  0.032941  0  -0.073731  -0.1891  0  3.871614  0
C  C189  1  0.29872576  0.11194055  0.19784491  1  0.033179  0  -0.073662  -0.189055  0  3.871734  0
C  C190  1  0.29872510  0.38806316  0.69784690  1  0.033139  0  -0.073783  -0.189273  0  3.871695  0
C  C191  1  0.70127296  0.88806327  0.80215386  1  0.033228  0  -0.073772  -0.189308  0  3.871664  0
C  C192  1  0.19072818  0.20640095  0.63852849  1  1.576017  0  0.198157  0.563155  0  4.229364  0
C  C193  1  0.80927357  0.70640497  0.86147774  1  1.575583  0  0.198112  0.56292  0  4.229208  0
C  C194  1  0.80927677  0.79358880  0.36147904  1  1.57576  0  0.198126  0.563065  0  4.229274  0
C  C195  1  0.19072451  0.29359518  0.13852450  1  1.575403  0  0.198165  0.562981  0  4.229298  0
C  C196  1  0.26759703  0.18567665  0.60187982  1  -0.110982  0  -0.011693  -0.01349  0  3.942262  0
C  C197  1  0.73240277  0.68567846  0.89812386  1  -0.111765  0  -0.011687  -0.013367  0  3.942082  0
C  C198  1  0.73240542  0.81431372  0.39812561  1  -0.110597  0  -0.011557  -0.013203  0  3.94216  0
C  C199  1  0.26759531  0.31431986  0.10187788  1  -0.111393  0  -0.011768  -0.01341  0  3.942055  0
C  C200  1  0.33307436  0.14165331  0.63434098  1  -0.050771  0  -0.084242  -0.096373  0  3.961014  0
C  C201  1  0.66692591  0.64165742  0.86565981  1  -0.050715  0  -0.084183  -0.096278  0  3.960856  0
C  C202  1  0.66693186  0.85833827  0.36566111  1  -0.051265  0  -0.084207  -0.096289  0  3.961086  0
C  C203  1  0.33307029  0.35834457  0.13434186  1  -0.050557  0  -0.084143  -0.096216  0  3.960808  0
C  C204  1  0.40700087  0.12814951  0.60222239  1  -0.043777  0  -0.08532  -0.101499  0  3.962083  0
C  C205  1  0.59299810  0.62815204  0.89777636  1  -0.043959  0  -0.085318  -0.10156  0  3.962103  0
C  C206  1  0.59300161  0.87184574  0.39777354  1  -0.043981  0  -0.085376  -0.101661  0  3.962003  0
C  C207  1  0.40699935  0.37185056  0.10222635  1  -0.043918  0  -0.085362  -0.101638  0  3.96205  0
C  C208  1  0.41413509  0.15292995  0.53554565  1  -0.056553  0  -0.019733  -0.006562  0  3.985932  0
C  C209  1  0.58586397  0.65292982  0.96445407  1  -0.056672  0  -0.01975  -0.006564  0  3.985856  0
C  C210  1  0.58586300  0.84706592  0.46445210  1  -0.056531  0  -0.019705  -0.006443  0  3.985485  0
C  C211  1  0.41413598  0.34707033  0.03554926  1  -0.056558  0  -0.019714  -0.006493  0  3.985654  0
C  C212  1  0.34698231  0.19358187  0.50194509  1  -0.05355  0  -0.094482  -0.128798  0  4.012542  0
C  C213  1  0.65301689  0.69358129  0.99805656  1  -0.054489  0  -0.094474  -0.128831  0  4.012591  0
C  C214  1  0.65301326  0.80641277  0.49805655  1  -0.054385  0  -0.094502  -0.128783  0  4.012472  0
C  C215  1  0.34698494  0.30641641  0.00194684  1  -0.053758  0  -0.094472  -0.128632  0  4.012299  0
C  C216  1  0.27530030  0.21199905  0.53569237  1  0.036244  0  -0.087073  -0.09191  0  3.96748  0
C  C217  1  0.72469959  0.71199882  0.96431077  1  0.03766  0  -0.087052  -0.091962  0  3.967669  0
C  C218  1  0.72469839  0.78799376  0.46431190  1  0.035848  0  -0.087133  -0.09214  0  3.96772  0
C  C219  1  0.27530099  0.28799950  0.03569108  1  0.035498  0  -0.087037  -0.092059  0  3.967571  0
C  C220  1  0.49451357  0.13734839  0.50276912  1  0.9485  0  0.159398  0.354315  0  3.980532  0
C  C221  1  0.50548544  0.63734850  0.99723061  1  0.948698  0  0.159356  0.35428  0  3.980328  0
C  C222  1  0.50548390  0.86265115  0.49722759  1  0.948656  0  0.159314  0.354177  0  3.980485  0
C  C223  1  0.49451639  0.36265288  0.00277229  1  0.948678  0  0.159358  0.354284  0  3.980516  0
C  C224  1  0.49132558  0.10350840  0.43334462  1  -0.093687  0  -0.019438  -0.013502  0  3.973135  0
C  C225  1  0.50867375  0.60350721  0.06665518  1  -0.093555  0  -0.019471  -0.013587  0  3.973224  0
C  C226  1  0.50867313  0.89649358  0.56665265  1  -0.093768  0  -0.019427  -0.013578  0  3.973383  0
C  C227  1  0.49132683  0.39649356  0.93334717  1  -0.093758  0  -0.019436  -0.013604  0  3.973273  0
C  C228  1  0.56309428  0.10963485  0.39602012  1  -0.029225  0  -0.080971  -0.087574  0  3.950945  0
C  C229  1  0.43690633  0.60963391  0.10397972  1  -0.029207  0  -0.081002  -0.087623  0  3.950826  0
C  C230  1  0.43690507  0.89036713  0.60397618  1  -0.029021  0  -0.081081  -0.08777  0  3.950909  0
C  C231  1  0.56309425  0.39036502  0.89602313  1  -0.029256  0  -0.08108  -0.08772  0  3.950988  0
C  C232  1  0.56412502  0.07745366  0.33176980  1  -0.034042  0  -0.082227  -0.097467  0  3.960715  0
C  C233  1  0.43587546  0.57745316  0.16823060  1  -0.034046  0  -0.082215  -0.097482  0  3.960561  0
C  C234  1  0.43587369  0.92254710  0.66822747  1  -0.034223  0  -0.082242  -0.097436  0  3.960602  0
C  C235  1  0.56412574  0.42254516  0.83177278  1  -0.034037  0  -0.082252  -0.097416  0  3.960728  0
C  C236  1  0.49367421  0.03607982  0.30417789  1  -0.091463  0  -0.013829  -0.026241  0  3.957748  0
C  C237  1  0.50632612  0.53607889  0.19582207  1  -0.091494  0  -0.013838  -0.026193  0  3.957711  0
C  C238  1  0.50632513  0.96392156  0.69582040  1  -0.091405  0  -0.013815  -0.026192  0  3.957541  0
C  C239  1  0.49367571  0.46391943  0.80417984  1  -0.091225  0  -0.013807  -0.026269  0  3.957767  0
C  C240  1  0.42237808  0.02823524  0.34177502  1  -0.018989  0  -0.085935  -0.095891  0  3.973911  0
C  C241  1  0.57762097  0.52823467  0.15822490  1  -0.018966  0  -0.085925  -0.095873  0  3.974002  0
C  C242  1  0.57762001  0.97176674  0.65822223  1  -0.019481  0  -0.085961  -0.095957  0  3.973898  0
C  C243  1  0.42238024  0.47176670  0.84177698  1  -0.01925  0  -0.085975  -0.095979  0  3.974061  0
C  C244  1  0.42065879  0.06229481  0.40550497  1  0.021361  0  -0.082431  -0.101296  0  3.970682  0
C  C245  1  0.57934038  0.56229319  0.09449490  1  0.021321  0  -0.082438  -0.101245  0  3.970722  0
C  C246  1  0.57933930  0.93770778  0.59449177  1  0.022035  0  -0.082453  -0.101207  0  3.970569  0
C  C247  1  0.42066020  0.43770818  0.90550746  1  0.021891  0  -0.082434  -0.101206  0  3.970585  0
C  C248  1  0.49690876  0.99663678  0.23632768  1  1.558451  0  0.190296  0.552596  0  4.239674  0
C  C249  1  0.50309266  0.49663541  0.26367201  1  1.558541  0  0.190354  0.552634  0  4.239643  0
C  C250  1  0.50309246  0.00336704  0.76366970  1  1.558562  0  0.190256  0.552581  0  4.239707  0
C  C251  1  0.49691167  0.50336413  0.73633000  1  1.558221  0  0.190313  0.552666  0  4.239326  0
C  C252  1  0.09863846  0.38001766  0.79115499  1  1.549245  0  0.193606  0.552501  0  4.258929  0
C  C253  1  0.90136270  0.88001202  0.70884291  1  1.54873  0  0.193597  0.552545  0  4.259124  0
C  C254  1  0.90136526  0.61998433  0.20884349  1  1.549179  0  0.193457  0.55231  0  4.259125  0
C  C255  1  0.09863852  0.11998569  0.29115447  1  1.549104  0  0.193544  0.552413  0  4.259238  0
C  C256  1  0.08478884  0.44531779  0.84261287  1  -0.011305  0  -0.014982  -0.028385  0  3.963768  0
C  C257  1  0.91521695  0.94531539  0.65738411  1  -0.01148  0  -0.014986  -0.028226  0  3.963807  0
C  C258  1  0.91521863  0.55468114  0.15738727  1  -0.011312  0  -0.01498  -0.028233  0  3.963853  0
C  C259  1  0.08478678  0.05468109  0.34261187  1  -0.011388  0  -0.015012  -0.028405  0  3.964004  0
C  C260  1  0.13749576  0.44979935  0.90069178  1  0.024675  0  -0.081624  -0.087514  0  3.96241  0
C  C261  1  0.86251444  0.94979386  0.59930338  1  0.024602  0  -0.08186  -0.088216  0  3.962684  0
C  C262  1  0.86251109  0.55019896  0.09930683  1  0.024393  0  -0.081684  -0.087852  0  3.962657  0
C  C263  1  0.13749368  0.05020140  0.40069079  1  0.024382  0  -0.081715  -0.087766  0  3.962581  0
C  C264  1  0.12422883  0.50939709  0.94871054  1  -0.079831  0  -0.078921  -0.095386  0  3.961591  0
C  C265  1  0.87578160  0.00939212  0.55128441  1  -0.079841  0  -0.078754  -0.095056  0  3.961061  0
C  C266  1  0.87577739  0.49060245  0.05128905  1  -0.079593  0  -0.078867  -0.095154  0  3.961427  0
C  C267  1  0.12422714  0.99060007  0.44870979  1  -0.079589  0  -0.078858  -0.095239  0  3.961324  0
C  C268  1  0.05618982  0.56363125  0.94038457  1  -0.03791  0  -0.02031  -0.023858  0  3.992429  0
C  C269  1  0.94382143  0.06362529  0.55961232  1  -0.037438  0  -0.020364  -0.023867  0  3.992396  0
C  C270  1  0.94381702  0.43637013  0.05961755  1  -0.037941  0  -0.020395  -0.024053  0  3.992676  0
C  C271  1  0.05618605  0.93636875  0.44038282  1  -0.03793  0  -0.020352  -0.023941  0  3.992411  0
C  C272  1  0.00145507  0.55709086  0.88338517  1  -0.077567  0  -0.079748  -0.086005  0  3.942295  0
C  C273  1  0.99855114  0.05708740  0.61661502  1  -0.077729  0  -0.079701  -0.086075  0  3.942464  0
C  C274  1  0.99854990  0.44290806  0.11661537  1  -0.077663  0  -0.079633  -0.085838  0  3.942223  0
C  C275  1  0.00145384  0.94291030  0.38338102  1  -0.077496  0  -0.079639  -0.085837  0  3.942189  0
C  C276  1  0.01690845  0.49957580  0.83444218  1  -0.042017  0  -0.087866  -0.102506  0  3.980887  0
C  C277  1  0.98309754  0.99957179  0.66555621  1  -0.041475  0  -0.087812  -0.102392  0  3.980912  0
C  C278  1  0.98309777  0.50042496  0.16555791  1  -0.041669  0  -0.087904  -0.102594  0  3.980881  0
C  C279  1  0.01690618  0.00042591  0.33444127  1  -0.041926  0  -0.087862  -0.102428  0  3.981125  0
C  C280  1  0.04067712  0.62799800  0.99076759  1  0.929567  0  0.159301  0.349489  0  3.99707  0
C  C281  1  0.95932810  0.12799957  0.50923643  1  0.929691  0  0.159415  0.349513  0  3.996976  0
C  C282  1  0.95932721  0.37199971  0.00923792  1  0.929806  0  0.159439  0.349666  0  3.996851  0
C  C283  1  0.04067249  0.87199936  0.49076242  1  0.929801  0  0.159458  0.349655  0  3.996932  0
C  C284  1  0.11261767  0.65534864  0.03572923  1  -0.099003  0  -0.02174  -0.017352  0  4.019654  0
C  C285  1  0.88738622  0.15535548  0.46427618  1  -0.098491  0  -0.021856  -0.017392  0  4.019701  0
C  C286  1  0.88738604  0.34464478  0.96427626  1  -0.099352  0  -0.021907  -0.017583  0  4.019715  0
C  C287  1  0.11261249  0.84464161  0.53572260  1  -0.098544  0  -0.021901  -0.017524  0  4.019543  0
C  C288  1  0.18768379  0.67906610  0.00799505  1  -0.056538  0  -0.09095  -0.122698  0  4.004951  0
C  C289  1  0.81231956  0.17906831  0.49201128  1  -0.057479  0  -0.090951  -0.122756  0  4.004942  0
C  C290  1  0.81231679  0.32093221  0.99200930  1  -0.056589  0  -0.090952  -0.122601  0  4.004655  0
C  C291  1  0.18768165  0.82093000  0.50798959  1  -0.057305  0  -0.090951  -0.122729  0  4.004778  0
C  C292  1  0.25053668  0.71538280  0.04830996  1  -0.022887  0  -0.088088  -0.098303  0  3.982279  0
C  C293  1  0.74946618  0.21538428  0.45169530  1  -0.022979  0  -0.088196  -0.098253  0  3.982364  0
C  C294  1  0.74946390  0.28461857  0.95169289  1  -0.023049  0  -0.088089  -0.098237  0  3.982159  0
C  C295  1  0.25053377  0.78461282  0.54830653  1  -0.023153  0  -0.088147  -0.098171  0  3.982267  0
C  C296  1  0.24257380  0.72194568  0.11767760  1  -0.03262  0  -0.014707  -0.020586  0  3.941176  0
C  C297  1  0.75742971  0.22194982  0.38232717  1  -0.032539  0  -0.014622  -0.020596  0  3.941226  0
C  C298  1  0.75742866  0.27805569  0.88232584  1  -0.032543  0  -0.014623  -0.020556  0  3.941134  0
C  C299  1  0.24256899  0.77804789  0.61767360  1  -0.032731  0  -0.014662  -0.020647  0  3.941173  0
C  C300  1  0.17030815  0.69216312  0.14600513  1  -0.069932  0  -0.087808  -0.095942  0  3.971897  0
C  C301  1  0.82969775  0.19217065  0.35400029  1  -0.071836  0  -0.087829  -0.095953  0  3.971681  0
C  C302  1  0.82969680  0.30783275  0.85400040  1  -0.070749  0  -0.087869  -0.096076  0  3.971745  0
C  C303  1  0.17030034  0.80782461  0.64599795  1  -0.071725  0  -0.087766  -0.095921  0  3.97165  0
C  C304  1  0.10399167  0.66291035  0.10492221  1  -0.026099  0  -0.088798  -0.107812  0  3.971675  0
C  C305  1  0.89601476  0.16292168  0.39508379  1  -0.024245  0  -0.088684  -0.107723  0  3.971374  0
C  C306  1  0.89601329  0.33708185  0.89508433  1  -0.025349  0  -0.088671  -0.107656  0  3.971428  0
C  C307  1  0.10398396  0.83707541  0.60491498  1  -0.024139  0  -0.088694  -0.107699  0  3.971336  0
C  C308  1  0.31164641  0.76268645  0.15982717  1  1.574543  0  0.198747  0.569103  0  4.250344  0
C  C309  1  0.68835601  0.26268432  0.34017548  1  1.574424  0  0.198664  0.568831  0  4.25035  0
C  C310  1  0.68835480  0.23732043  0.84017470  1  1.574175  0  0.198687  0.568934  0  4.250421  0
C  C311  1  0.31164082  0.73731216  0.65982421  1  1.574318  0  0.198787  0.569097  0  4.250157  0
C  C312  1  0.96801031  0.35727971  0.53019252  1  0.942401  0  0.152072  0.105366  0  3.849306  0
C  C313  1  0.03199201  0.85727633  0.96980947  1  0.942427  0  0.152056  0.105361  0  3.849278  0
C  C314  1  0.03199028  0.64272044  0.46980633  1  0.94241  0  0.152048  0.105381  0  3.849167  0
C  C315  1  0.96800982  0.14271831  0.03019143  1  0.942407  0  0.152101  0.1054  0  3.849098  0
C  C316  1  0.95393127  0.44392083  0.61208727  1  0.479388  0  0.004082  -0.022787  0  3.995183  0
C  C317  1  0.04606511  0.94391894  0.88791381  1  0.479403  0  0.003972  -0.022985  0  3.995317  0
C  C318  1  0.04606869  0.55607871  0.38791055  1  0.479331  0  0.004045  -0.022813  0  3.995354  0
C  C319  1  0.95393109  0.05607632  0.11208835  1  0.479677  0  0.004071  -0.022784  0  3.995191  0
C  C320  1  0.91321706  0.47719696  0.55685845  1  0.235247  0  -0.002338  -0.11496  0  3.936336  0
C  C321  1  0.08677631  0.97719752  0.94314345  1  0.234846  0  -0.002311  -0.114853  0  3.936502  0
C  C322  1  0.08677852  0.52280074  0.44314169  1  0.23518  0  -0.002322  -0.114875  0  3.936459  0
C  C323  1  0.91322239  0.02279957  0.05685682  1  0.234333  0  -0.00229  -0.114811  0  3.936411  0
C  C324  1  0.97383538  0.31844101  0.25488128  1  0.969684  0  0.158823  0.113961  0  3.868982  0
C  C325  1  0.02615663  0.81844554  0.24511283  1  0.969893  0  0.15865  0.113377  0  3.869325  0
C  C326  1  0.02615458  0.68155486  0.74511312  1  0.969757  0  0.158671  0.11345  0  3.869398  0
C  C327  1  0.97384584  0.18155828  0.75488810  1  0.970042  0  0.158705  0.113483  0  3.869306  0
C  C328  1  0.88571531  0.27248901  0.17676010  1  0.455693  0  0.005012  -0.029236  0  3.998102  0
C  C329  1  0.11426901  0.77249121  0.32323777  1  0.45516  0  0.004894  -0.029408  0  3.998259  0
C  C330  1  0.11426900  0.72750869  0.82323906  1  0.454887  0  0.004875  -0.029457  0  3.998312  0
C  C331  1  0.88573158  0.22751139  0.67676258  1  0.454838  0  0.004887  -0.029391  0  3.998259  0
C  C332  1  0.84043820  0.32120975  0.21716746  1  0.294037  0  0.016007  -0.084281  0  3.885744  0
C  C333  1  0.15955192  0.82121038  0.28283457  1  0.29441  0  0.015974  -0.084248  0  3.885643  0
C  C334  1  0.15955049  0.67878795  0.78283439  1  0.294449  0  0.01594  -0.084297  0  3.885648  0
C  C335  1  0.84044991  0.17878977  0.71716783  1  0.294487  0  0.016018  -0.084266  0  3.885581  0
C  C336  1  0.54207442  0.75006236  0.22360334  1  0.974703  0  0.153803  0.108725  0  3.874474  0
C  C337  1  0.45792484  0.25006323  0.27639520  1  0.974693  0  0.153885  0.108815  0  3.874351  0
C  C338  1  0.45792492  0.24994024  0.77639496  1  0.97469  0  0.153848  0.108643  0  3.874355  0
C  C339  1  0.54207262  0.74993937  0.72360302  1  0.974606  0  0.153788  0.108645  0  3.874393  0
C  C340  1  0.63704014  0.81307770  0.16846215  1  0.433884  0  0.001769  -0.027532  0  3.997256  0
C  C341  1  0.36295810  0.31307686  0.33153573  1  0.434014  0  0.001844  -0.02749  0  3.997105  0
C  C342  1  0.36295858  0.18692551  0.83153412  1  0.434094  0  0.001744  -0.027735  0  3.997257  0
C  C343  1  0.63703873  0.68692818  0.66846446  1  0.434083  0  0.001769  -0.027628  0  3.997101  0
C  C344  1  0.67914296  0.75791191  0.20921430  1  0.201281  0  0.015144  -0.07934  0  3.849408  0
C  C345  1  0.32085570  0.25791041  0.29078270  1  0.201181  0  0.015183  -0.07933  0  3.849457  0
C  C346  1  0.32085513  0.24209313  0.79078245  1  0.200764  0  0.015147  -0.07934  0  3.849396  0
C  C347  1  0.67914301  0.74209463  0.70921707  1  0.200809  0  0.015154  -0.07935  0  3.849328  0
C  C348  1  0.53787680  0.59593629  0.51621729  1  0.94348  0  0.150031  0.103483  0  3.912312  0
C  C349  1  0.46212705  0.09593786  0.98378223  1  0.943333  0  0.150098  0.103647  0  3.912149  0
C  C350  1  0.46212504  0.40406630  0.48378261  1  0.943442  0  0.15005  0.103529  0  3.912197  0
C  C351  1  0.53787291  0.90406718  0.01621710  1  0.943228  0  0.150103  0.1038  0  3.912051  0
C  C352  1  0.40339528  0.61322126  0.49867772  1  0.377209  0  -7.9e-05  -0.036484  0  3.989992  0
C  C353  1  0.59660847  0.11322398  0.00132175  1  0.377158  0  -8.3e-05  -0.036563  0  3.989977  0
C  C354  1  0.59660656  0.38677828  0.50132168  1  0.377169  0  -7.9e-05  -0.036477  0  3.989942  0
C  C355  1  0.40339149  0.88678107  0.99867907  1  0.377133  0  -7.4e-05  -0.036472  0  3.989926  0
C  C356  1  0.43728053  0.61585027  0.43715018  1  0.272833  0  0.017053  -0.077889  0  3.867377  0
C  C357  1  0.56272197  0.11585209  0.06284973  1  0.273562  0  0.017073  -0.077778  0  3.867376  0
C  C358  1  0.56272068  0.38414988  0.56284920  1  0.273127  0  0.017015  -0.077888  0  3.867372  0
C  C359  1  0.43727548  0.88415234  0.93715099  1  0.273192  0  0.017036  -0.077856  0  3.867482  0
N  N360  1  0.92202959  0.42186303  0.50477994  1  -1.253371  0  -0.220935  0.008113  0  3.7802  0
N  N361  1  0.07796860  0.92186464  0.99522076  1  -1.253243  0  -0.220977  0.007986  0  3.780259  0
N  N362  1  0.07796599  0.57813345  0.49521969  1  -1.25336  0  -0.220878  0.008145  0  3.780181  0
N  N363  1  0.92203387  0.07813184  0.00477867  1  -1.253429  0  -0.220934  0.008019  0  3.780317  0
N  N364  1  0.98771536  0.36951875  0.59486992  1  -1.219387  0  -0.343782  -0.266461  0  3.533624  0
N  N365  1  0.01228638  0.86951364  0.90513152  1  -1.219354  0  -0.343684  -0.266289  0  3.533413  0
N  N366  1  0.01228774  0.63048323  0.40512853  1  -1.219402  0  -0.343803  -0.266551  0  3.533726  0
N  N367  1  0.98771295  0.13048040  0.09486977  1  -1.219265  0  -0.343822  -0.266511  0  3.533546  0
N  N368  1  0.89694697  0.34987776  0.26675866  1  -1.268434  0  -0.219655  0.002866  0  3.800097  0
N  N369  1  0.10304765  0.84988015  0.23323951  1  -1.268466  0  -0.219623  0.003066  0  3.800086  0
N  N370  1  0.10304611  0.65011872  0.73323937  1  -1.268444  0  -0.219623  0.003103  0  3.799908  0
N  N371  1  0.89695544  0.15012122  0.76676095  1  -1.268554  0  -0.219724  0.003049  0  3.79998  0
N  N372  1  0.96840134  0.27156126  0.20058491  1  -1.226784  0  -0.349833  -0.278108  0  3.623629  0
N  N373  1  0.03158611  0.77156567  0.29941009  1  -1.226464  0  -0.349527  -0.277525  0  3.623329  0
N  N374  1  0.03158486  0.72843461  0.79940933  1  -1.226485  0  -0.349512  -0.277493  0  3.623415  0
N  N375  1  0.96841510  0.22843815  0.70059079  1  -1.226707  0  -0.349512  -0.277571  0  3.623235  0
N  N376  1  0.61805683  0.71867633  0.24433402  1  -1.262248  0  -0.220595  0.005888  0  3.794067  0
N  N377  1  0.38194356  0.21867759  0.25566262  1  -1.262124  0  -0.220645  0.005875  0  3.794047  0
N  N378  1  0.38194251  0.28132688  0.75566428  1  -1.261883  0  -0.220556  0.006103  0  3.793788  0
N  N379  1  0.61805578  0.78132501  0.74433617  1  -1.261759  0  -0.220581  0.006053  0  3.793923  0
N  N380  1  0.55196844  0.80729562  0.17765989  1  -1.259151  0  -0.355122  -0.286253  0  3.610921  0
N  N381  1  0.44802977  0.30729634  0.32233951  1  -1.259152  0  -0.355242  -0.286381  0  3.61083  0
N  N382  1  0.44802964  0.19270698  0.82233886  1  -1.259063  0  -0.35514  -0.286121  0  3.610738  0
N  N383  1  0.55196831  0.69270565  0.67765974  1  -1.259206  0  -0.35514  -0.286209  0  3.610935  0
N  N384  1  0.52271202  0.60533923  0.44911778  1  -1.245108  0  -0.219179  0.016527  0  3.79846  0
N  N385  1  0.47729170  0.10533954  0.05088271  1  -1.245263  0  -0.21921  0.016454  0  3.798484  0
N  N386  1  0.47729044  0.39466459  0.55088265  1  -1.245108  0  -0.219117  0.016594  0  3.798259  0
N  N387  1  0.52270701  0.89466611  0.94911707  1  -1.244822  0  -0.219096  0.016368  0  3.798486  0
N  N388  1  0.46684947  0.60057181  0.54751939  1  -1.202177  0  -0.35338  -0.282798  0  3.601686  0
N  N389  1  0.53315378  0.10057494  0.95247959  1  -1.202169  0  -0.353411  -0.282866  0  3.601576  0
N  N390  1  0.53315175  0.39942957  0.45247999  1  -1.20216  0  -0.353421  -0.282819  0  3.601502  0
N  N391  1  0.46684555  0.89943194  0.04752071  1  -1.202206  0  -0.353477  -0.282963  0  3.601464  0
O  O392  1  0.16769770  0.16330714  0.68565140  1  -1.169323  0  -0.332665  -0.558757  0  2.094808  0
O  O393  1  0.83230451  0.66331137  0.81435343  1  -1.169098  0  -0.332694  -0.558696  0  2.094675  0
O  O394  1  0.83230725  0.83668139  0.31435564  1  -1.169283  0  -0.332695  -0.558739  0  2.094757  0
O  O395  1  0.16769419  0.33668817  0.18564834  1  -1.169229  0  -0.332693  -0.55871  0  2.094801  0
O  O396  1  0.15323277  0.27320028  0.61714291  1  -1.158139  0  -0.345951  -0.567099  0  2.340584  0
O  O397  1  0.84676984  0.77320193  0.88286475  1  -1.157767  0  -0.345956  -0.566995  0  2.340444  0
O  O398  1  0.84677030  0.72678947  0.38286455  1  -1.157926  0  -0.345971  -0.567166  0  2.340499  0
O  O399  1  0.15322761  0.22679883  0.11713847  1  -1.157673  0  -0.345946  -0.567008  0  2.340477  0
O  O400  1  0.56206741  0.15162924  0.53350753  1  -1.084983  0  -0.274124  -0.414542  0  2.066674  0
O  O401  1  0.43793039  0.65163408  0.96649313  1  -1.085033  0  -0.274106  -0.414521  0  2.066462  0
O  O402  1  0.43793006  0.84836907  0.46648968  1  -1.085146  0  -0.27408  -0.414482  0  2.066618  0
O  O403  1  0.56206893  0.34836974  0.03351017  1  -1.085128  0  -0.274095  -0.414524  0  2.066725  0
O  O404  1  0.55856677  0.00625425  0.20105453  1  -1.187076  0  -0.342088  -0.572429  0  2.088745  0
O  O405  1  0.44143283  0.50624914  0.29894445  1  -1.187126  0  -0.342135  -0.572468  0  2.088765  0
O  O406  1  0.44143383  0.99375141  0.79894332  1  -1.187045  0  -0.342042  -0.572386  0  2.08881  0
O  O407  1  0.55856901  0.49374856  0.70105646  1  -1.187076  0  -0.342032  -0.572359  0  2.088657  0
O  O408  1  0.43210911  0.95148356  0.21956030  1  -1.165937  0  -0.340723  -0.56058  0  2.346236  0
O  O409  1  0.56789089  0.45148360  0.28043991  1  -1.165959  0  -0.340747  -0.560616  0  2.346278  0
O  O410  1  0.56789211  0.04851904  0.78043758  1  -1.165998  0  -0.34075  -0.560644  0  2.346249  0
O  O411  1  0.43211220  0.54851594  0.71956054  1  -1.165828  0  -0.34082  -0.560697  0  2.346129  0
O  O412  1  0.14377904  0.31958684  0.80590841  1  -1.18181  0  -0.33005  -0.561441  0  2.132113  0
O  O413  1  0.85621626  0.81958535  0.69408735  1  -1.181165  0  -0.329993  -0.561427  0  2.132267  0
O  O414  1  0.85622030  0.68041087  0.19408989  1  -1.181755  0  -0.329975  -0.561366  0  2.132182  0
O  O415  1  0.14378433  0.18041296  0.30590850  1  -1.181311  0  -0.33  -0.561385  0  2.132217  0
O  O416  1  0.06024869  0.39238214  0.73313909  1  -1.187394  0  -0.340773  -0.575998  0  2.3601  0
O  O417  1  0.93975126  0.89237465  0.76685924  1  -1.187566  0  -0.340781  -0.576062  0  2.360294  0
O  O418  1  0.93975691  0.60762229  0.26685897  1  -1.187389  0  -0.340696  -0.575925  0  2.360128  0
O  O419  1  0.06024432  0.10762550  0.23314090  1  -1.1877  0  -0.340692  -0.575907  0  2.360141  0
O  O420  1  0.97161058  0.66152965  0.99462345  1  -1.093801  0  -0.262847  -0.405592  0  2.097442  0
O  O421  1  0.02839915  0.16153273  0.50537670  1  -1.09366  0  -0.262964  -0.405707  0  2.09727  0
O  O422  1  0.02839814  0.33846805  0.00537825  1  -1.093683  0  -0.262963  -0.405756  0  2.097237  0
O  O423  1  0.97159893  0.83847782  0.49462454  1  -1.093638  0  -0.262967  -0.405754  0  2.097426  0
O  O424  1  0.35139040  0.81603211  0.12541362  1  -1.185293  0  -0.344731  -0.574618  0  2.399291  0
O  O425  1  0.64860659  0.31602975  0.37458621  1  -1.185074  0  -0.344722  -0.574496  0  2.399324  0
O  O426  1  0.64860768  0.18397354  0.87458462  1  -1.184978  0  -0.344731  -0.574519  0  2.399416  0
O  O427  1  0.35139149  0.68396856  0.62541404  1  -1.18501  0  -0.34473  -0.574565  0  2.399331  0
O  O428  1  0.32564182  0.74476264  0.21996500  1  -1.172004  0  -0.339137  -0.561324  0  2.071731  0
O  O429  1  0.67436241  0.24476001  0.28003726  1  -1.172001  0  -0.339075  -0.561161  0  2.071653  0
O  O430  1  0.67435876  0.25524852  0.78003735  1  -1.17185  0  -0.3391  -0.56126  0  2.071667  0
O  O431  1  0.32563567  0.75523830  0.71996199  1  -1.171954  0  -0.339167  -0.561322  0  2.071624  0
