# generated using pymatgen
data_Co2H30C48N4O9
_symmetry_space_group_name_H-M   'P 1'
_cell_length_a   23.58284762
_cell_length_b   23.61577153
_cell_length_c   29.89634631
_cell_angle_alpha   113.26439877
_cell_angle_beta   113.23058145
_cell_angle_gamma   89.99166774
_symmetry_Int_Tables_number   1
_chemical_formula_structural   Co2H30C48N4O9
_chemical_formula_sum   'Co8 H120 C192 N16 O36'
_cell_volume   13815.19103434
_cell_formula_units_Z   4
loop_
 _symmetry_equiv_pos_site_id
 _symmetry_equiv_pos_as_xyz
  1  'x, y, z'
loop_
 _atom_site_type_symbol
 _atom_site_label
 _atom_site_symmetry_multiplicity
 _atom_site_fract_x
 _atom_site_fract_y
 _atom_site_fract_z
 _atom_site_occupancy
 _atom_site_pbe_bader_charge
 _atom_site_pbe_bader_spin_density
 _atom_site_pbe_cm5_charge
 _atom_site_pbe_ddec_charge
 _atom_site_pbe_ddec_spin_density
 _atom_site_pbe_ddec_sum_bond_order
 _atom_site_pbe_magmom
Co  Co0  1  0.64644228  0.12669066  0.16672022  1  1.298142  2.613476  0.661848  0.935801  2.847336  2.469405  2.591
Co  Co1  1  0.37880897  0.27131694  0.66724592  1  1.294912  2.607496  0.660804  0.938223  2.83612  2.445079  2.585
Co  Co2  1  0.52023380  0.04004013  0.16667573  1  1.297856  2.613755  0.662185  0.936969  2.84526  2.46668  2.591
Co  Co3  1  0.28848233  0.39589962  0.66726189  1  1.29444  2.607703  0.660484  0.938093  2.836918  2.44602  2.585
Co  Co4  1  0.14652984  0.54005489  0.16668081  1  1.296135  2.613945  0.661943  0.936824  2.847751  2.465105  2.591
Co  Co5  1  0.02025970  0.62668634  0.16675223  1  1.299857  2.613578  0.661905  0.93608  2.846125  2.464638  2.591
Co  Co6  1  0.78990313  0.77024432  0.66666260  1  1.298137  2.614042  0.662188  0.93729  2.845201  2.467679  2.591
Co  Co7  1  0.87677601  0.89642464  0.66667936  1  1.298541  2.613756  0.661717  0.935882  2.847724  2.469714  2.591
H  H8  1  0.56862001  0.02165766  0.08756879  1  0.634093  0.001937  0.349572  0.435461  0.000844  0.823882  0.001
H  H9  1  0.26809445  0.27357122  0.58835196  1  0.641856  0.001873  0.351609  0.436605  0.000819  0.820335  0.001
H  H10  1  0.51900959  0.06596232  0.08754407  1  0.633146  0.001938  0.349611  0.435745  0.000839  0.823786  0.001
H  H11  1  0.32032729  0.31488758  0.58834898  1  0.639535  0.001851  0.351954  0.436247  0.000829  0.8213  0.001
H  H12  1  0.06859529  0.56600299  0.08754814  1  0.63353  0.001931  0.349692  0.4357  0.000848  0.823119  0.001
H  H13  1  0.01909144  0.52167564  0.08761775  1  0.628965  0.001953  0.349803  0.436995  0.000829  0.823029  0.001
H  H14  1  0.81597282  0.76902691  0.58752614  1  0.633178  0.001924  0.349599  0.435896  0.00083  0.823639  0.001
H  H15  1  0.77163213  0.81858936  0.58753833  1  0.634854  0.001927  0.349474  0.435291  0.000839  0.824248  0.001
H  H16  1  0.77841863  0.12413505  0.23532353  1  0.120768  0.001957  0.120115  0.092445  0.000512  1.012666  0.001
H  H17  1  0.37390068  0.20690436  0.73483247  1  0.126  0.001808  0.121839  0.094647  0.00034  1.011173  0.001
H  H18  1  0.45719303  0.11146387  0.23561936  1  0.112473  0.001956  0.12018  0.092179  0.000512  1.013321  0.001
H  H19  1  0.36098292  0.52795670  0.73487038  1  0.112779  0.0018  0.121728  0.094362  0.000337  1.012274  0.001
H  H20  1  0.27858112  0.61140796  0.23560284  1  0.111133  0.001952  0.120081  0.09246  0.000513  1.01293  0.001
H  H21  1  0.95704632  0.62423038  0.23559722  1  0.122409  0.001954  0.120199  0.092402  0.000512  1.01227  0.001
H  H22  1  0.86155160  0.70730254  0.73563264  1  0.112732  0.001944  0.120003  0.091955  0.000508  1.013377  0.001
H  H23  1  0.87399227  0.02832859  0.73533197  1  0.11938  0.001947  0.120068  0.092128  0.000509  1.013012  0.001
H  H24  1  0.88252706  0.19677550  0.28960011  1  0.087649  0.001122  0.110752  0.117462  0.000557  0.99299  0.0
H  H25  1  0.44641509  0.15717404  0.78935613  1  0.067138  0.001058  0.111233  0.117737  0.000548  0.993036  0.0
H  H26  1  0.40722755  0.09300529  0.28977917  1  0.057279  0.00114  0.110866  0.117674  0.000558  0.992493  0.0
H  H27  1  0.34294888  0.63224856  0.78932718  1  0.086055  0.001044  0.110875  0.116872  0.000547  0.992565  0.0
H  H28  1  0.38266916  0.59285634  0.28976204  1  0.045931  0.001151  0.11088  0.117331  0.000557  0.993088  0.0
H  H29  1  0.90714642  0.69692970  0.28977672  1  0.074212  0.00113  0.110791  0.117547  0.000556  0.993104  0.0
H  H30  1  0.84313806  0.65731369  0.78972975  1  0.05532  0.001144  0.110812  0.117476  0.000559  0.992863  0.0
H  H31  1  0.94656885  0.13240021  0.78954885  1  0.083253  0.001131  0.11058  0.117284  0.000559  0.993088  0.0
H  H32  1  0.78837851  0.33802824  0.24820717  1  0.064276  0.001042  0.110643  0.117115  0.000522  0.991874  0.0
H  H33  1  0.58825917  0.20908763  0.74804812  1  0.061026  0.001141  0.11061  0.116916  0.000575  0.992939  0.0
H  H34  1  0.45979764  0.91029990  0.24819744  1  0.073294  0.001033  0.110583  0.117588  0.00052  0.992369  0.0
H  H35  1  0.15980407  0.53896277  0.74802049  1  0.067375  0.001134  0.110654  0.116548  0.000574  0.993056  0.0
H  H36  1  0.28834781  0.41023861  0.24819212  1  0.071571  0.001034  0.110694  0.117124  0.00052  0.991349  0.0
H  H37  1  0.95983816  0.83801619  0.24822892  1  0.06555  0.001036  0.110681  0.117694  0.000519  0.99153  0.0
H  H38  1  0.66016121  0.70970663  0.74828682  1  0.071182  0.001034  0.110662  0.117368  0.000521  0.991938  0.0
H  H39  1  0.08820356  0.03858102  0.74828232  1  0.062989  0.001042  0.1108  0.117396  0.000522  0.991878  0.0
H  H40  1  0.68854857  0.25869880  0.19497647  1  0.124119  0.001868  0.126277  0.104591  0.000423  0.98305  0.001
H  H41  1  0.50955535  0.25611638  0.69517747  1  0.113954  0.00222  0.125306  0.098316  0.000759  0.979617  0.002
H  H42  1  0.50652955  0.93646377  0.19508198  1  0.126529  0.001865  0.126119  0.104423  0.000422  0.983413  0.001
H  H43  1  0.18565827  0.43907170  0.69516301  1  0.152439  0.002209  0.125332  0.09873  0.000759  0.979041  0.002
H  H44  1  0.18854369  0.43648329  0.19503763  1  0.135362  0.001857  0.126366  0.10455  0.000421  0.982936  0.001
H  H45  1  0.00655610  0.75866235  0.19512624  1  0.118136  0.001858  0.125987  0.103995  0.000421  0.98331  0.001
H  H46  1  0.68631829  0.75647176  0.69523185  1  0.126348  0.001858  0.126406  0.104606  0.00042  0.983079  0.001
H  H47  1  0.00893668  0.93876941  0.69510213  1  0.123825  0.001864  0.12622  0.10446  0.000421  0.982296  0.001
H  H48  1  0.94087427  0.28999441  0.36809404  1  0.075408  4.3e-05  0.104308  0.111171  -9e-06  1.023663  0.0
H  H49  1  0.53980386  0.17696411  0.86804538  1  0.079594  3.6e-05  0.104248  0.110759  -1.8e-05  1.024912  0.0
H  H50  1  0.42719921  0.07818161  0.36811302  1  0.079118  4.1e-05  0.104075  0.110663  -9e-06  1.023624  0.0
H  H51  1  0.32814628  0.69099818  0.86800339  1  0.080774  3.5e-05  0.104117  0.111001  -1.7e-05  1.024241  0.0
H  H52  1  0.44087013  0.57793794  0.36795014  1  0.084431  4.4e-05  0.104062  0.110957  -9e-06  1.025085  0.0
H  H53  1  0.92702673  0.79000153  0.36800870  1  0.07046  3.8e-05  0.104168  0.110722  -9e-06  1.024787  0.0
H  H54  1  0.82814350  0.67703506  0.86804962  1  0.078817  6.1e-05  0.104167  0.110764  1.4e-05  1.023997  0.0
H  H55  1  0.03991885  0.19087747  0.86800492  1  0.047291  5.8e-05  0.104381  0.111187  1.4e-05  1.023887  0.0
H  H56  1  0.88638973  0.35403755  0.24348574  1  0.066248  4.8e-05  0.105259  0.112965  1e-06  1.017631  0.0
H  H57  1  0.60423034  0.10697884  0.74358711  1  0.055559  4.7e-05  0.104823  0.112723  1e-06  1.018418  0.0
H  H58  1  0.35726952  0.88948755  0.24356005  1  0.084053  5.2e-05  0.104911  0.1126  1e-06  1.01827  0.0
H  H59  1  0.13930297  0.63668103  0.74354902  1  0.065877  5.2e-05  0.104952  0.112499  1e-06  1.018319  0.0
H  H60  1  0.38647983  0.38927646  0.24351854  1  0.060607  4.7e-05  0.105152  0.112462  1e-06  1.018407  0.0
H  H61  1  0.85712217  0.85424953  0.24356015  1  0.05482  4.3e-05  0.105288  0.113428  1e-06  1.017857  0.0
H  H62  1  0.63936051  0.60708353  0.74346803  1  0.084427  5.1e-05  0.105327  0.113089  3e-06  1.017727  0.0
H  H63  1  0.10398902  0.13644596  0.74336049  1  0.065964  4.6e-05  0.105379  0.113169  3e-06  1.017657  0.0
H  H64  1  0.99947060  0.31774094  0.44809032  1  0.063486  3.6e-05  0.098863  0.096448  2.5e-05  1.013391  0.0
H  H65  1  0.56776440  0.19898841  0.94761210  1  0.048303  3.5e-05  0.099026  0.096509  2.6e-05  1.014402  0.0
H  H66  1  0.44852859  0.13046800  0.44800302  1  0.051954  3.7e-05  0.099056  0.097418  2.5e-05  1.013971  0.0
H  H67  1  0.37993450  0.74860698  0.94751505  1  0.049115  3.5e-05  0.099265  0.096861  2.6e-05  1.013517  0.0
H  H68  1  0.49844555  0.62980396  0.44734111  1  0.04606  3.6e-05  0.099386  0.096947  2.6e-05  1.013644  0.0
H  H69  1  0.94895743  0.81773916  0.44744284  1  0.048799  3.6e-05  0.099241  0.096782  2.6e-05  1.013905  0.0
H  H70  1  0.87982497  0.69881643  0.94746656  1  0.039387  3.9e-05  0.099384  0.097314  2.7e-05  1.013676  0.0
H  H71  1  0.06766274  0.24849888  0.94746472  1  0.046863  3.9e-05  0.099266  0.097101  2.7e-05  1.013999  0.0
H  H72  1  0.08448669  0.32914138  0.53435186  1  0.099629  0.000655  0.103968  0.110031  0.000356  0.996483  0.0
H  H73  1  0.57952752  0.20165140  0.03444447  1  0.103869  0.00056  0.104702  0.111516  0.000306  0.996884  0.0
H  H74  1  0.44977819  0.20534241  0.53427462  1  0.102528  0.000664  0.104197  0.110666  0.000356  0.996066  0.0
H  H75  1  0.45492279  0.83277138  0.03438891  1  0.103541  0.000549  0.10496  0.111722  0.000306  0.996297  0.0
H  H76  1  0.58258570  0.70479326  0.53421221  1  0.102095  0.000548  0.105108  0.111768  0.000305  0.996568  0.0
H  H77  1  0.95162209  0.82950717  0.53427333  1  0.106483  0.000556  0.104903  0.111578  0.000306  0.996841  0.0
H  H78  1  0.95475539  0.70156165  0.03434271  1  0.093637  0.000555  0.10502  0.111936  0.000305  0.99644  0.0
H  H79  1  0.07958259  0.33263968  0.03434317  1  0.091176  0.000553  0.104926  0.111825  0.000305  0.996283  0.0
H  H80  1  0.21419481  0.42932377  0.51114866  1  0.097251  0.000566  0.105543  0.11322  0.000326  0.993725  0.0
H  H81  1  0.67789769  0.04730297  0.01147074  1  0.083817  0.000659  0.10483  0.111581  0.000357  0.992425  0.0
H  H82  1  0.29689471  0.08192806  0.51110866  1  0.087084  0.000576  0.105514  0.113091  0.000326  0.993471  0.0
H  H83  1  0.33353838  0.96408001  0.01140351  1  0.076753  0.000655  0.105057  0.111934  0.000356  0.992131  0.0
H  H84  1  0.71418774  0.58356777  0.51144990  1  0.076016  0.000655  0.104997  0.111853  0.000356  0.992165  0.0
H  H85  1  0.79722080  0.92792246  0.51150291  1  0.081816  0.000659  0.105057  0.111877  0.000356  0.992594  0.0
H  H86  1  0.83343722  0.54725179  0.01137449  1  0.082194  0.000658  0.104964  0.112148  0.000355  0.992388  0.0
H  H87  1  0.17793434  0.46395025  0.01134707  1  0.073798  0.000658  0.105088  0.112377  0.000356  0.992808  0.0
H  H88  1  0.12873527  0.41700812  0.42294902  1  0.083203  3.2e-05  0.102331  0.101809  2.3e-05  1.023183  0.0
H  H89  1  0.66678426  0.04431788  0.92351513  1  0.07748  2.8e-05  0.102264  0.102121  2e-05  1.021058  0.0
H  H90  1  0.29419159  0.00604404  0.42292263  1  0.068821  3.3e-05  0.102139  0.101331  2.3e-05  1.023867  0.0
H  H91  1  0.25669498  0.87909050  0.92347361  1  0.104332  2.7e-05  0.102172  0.101723  2e-05  1.022877  0.0
H  H92  1  0.62918404  0.50671421  0.42351439  1  0.103967  2.8e-05  0.102242  0.101709  2.1e-05  1.023105  0.0
H  H93  1  0.79425682  0.91682841  0.42354332  1  0.079903  2.9e-05  0.102233  0.101845  2.1e-05  1.021263  0.0
H  H94  1  0.75669061  0.54419707  0.92336096  1  0.072094  2.9e-05  0.10193  0.101505  1.9e-05  1.022069  0.0
H  H95  1  0.16670250  0.37900607  0.92333767  1  0.081314  2.9e-05  0.102161  0.101978  1.9e-05  1.021723  0.0
H  H96  1  0.12906794  0.48330241  0.27858886  1  0.092914  7e-05  0.105097  0.108736  -8.6e-05  1.000414  0.0
H  H97  1  0.73340171  0.89956586  0.77852208  1  0.072853  6.4e-05  0.104798  0.108233  -8.9e-05  0.999912  0.0
H  H98  1  0.14964213  0.79540495  0.27875210  1  0.076217  6.4e-05  0.104796  0.108627  -8.7e-05  0.999606  0.0
H  H99  1  0.04529910  0.87906889  0.77870031  1  0.088939  6.7e-05  0.105127  0.109158  -8.7e-05  0.998937  0.0
H  H100  1  0.62913693  0.29522726  0.27870616  1  0.089729  6.7e-05  0.105075  0.108943  -8.7e-05  0.999584  0.0
H  H101  1  0.64946892  0.98348972  0.27851808  1  0.072213  6.4e-05  0.104859  0.108675  -8.9e-05  1.000131  0.0
H  H102  1  0.54406661  0.40063850  0.77920783  1  0.085954  0.000154  0.10437  0.107881  -3.4e-05  1.001203  0.0
H  H103  1  0.23516066  0.37844324  0.77906109  1  0.057899  0.000158  0.104485  0.10838  -3.4e-05  0.999947  0.0
H  H104  1  0.09633545  0.42602684  0.32211794  1  0.092335  0.000158  0.103297  0.10365  9e-05  1.010061  0.0
H  H105  1  0.67599621  0.97575871  0.82210800  1  0.082278  0.000161  0.103248  0.103895  9e-05  1.010733  0.0
H  H106  1  0.22592694  0.89617981  0.32221244  1  0.069125  0.000161  0.103459  0.104009  9e-05  1.010366  0.0
H  H107  1  0.14616913  0.84630569  0.82229754  1  0.109134  0.000155  0.103304  0.103817  9e-05  1.010643  0.0
H  H108  1  0.59637126  0.39605531  0.32223577  1  0.111677  0.000155  0.103239  0.103706  9e-05  1.010937  0.0
H  H109  1  0.72560034  0.92607529  0.32205513  1  0.083801  0.000161  0.103426  0.104009  9e-05  1.010903  0.0
H  H110  1  0.64551278  0.47581855  0.82198781  1  0.074262  0.000143  0.103065  0.103778  5.5e-05  1.010087  0.0
H  H111  1  0.17643281  0.34613771  0.82183787  1  0.084106  0.000142  0.103308  0.104214  5.5e-05  1.010148  0.0
H  H112  1  0.90535312  0.44640473  0.24497666  1  0.036253  0.000144  0.099047  0.096535  8e-05  1.009064  0.0
H  H113  1  0.69653815  0.08948450  0.74506412  1  0.028496  0.000145  0.098906  0.096207  8.1e-05  1.009254  0.0
H  H114  1  0.33970771  0.79848919  0.24504029  1  0.070053  0.00014  0.099105  0.096565  8e-05  1.008567  0.0
H  H115  1  0.04838057  0.65562197  0.74511398  1  0.040643  0.000143  0.098951  0.096119  8.1e-05  1.008813  0.0
H  H116  1  0.40543085  0.29848385  0.24511410  1  0.038789  0.000144  0.099192  0.096412  8.1e-05  1.009232  0.0
H  H117  1  0.83965437  0.94643127  0.24507833  1  0.025025  0.000146  0.099258  0.096661  8.1e-05  1.008914  0.0
H  H118  1  0.54861899  0.58989860  0.74502685  1  0.066864  0.000133  0.099345  0.096957  5.1e-05  1.007965  0.0
H  H119  1  0.19619070  0.15501997  0.74490733  1  0.031401  0.000135  0.099151  0.096236  5.2e-05  1.008896  0.0
H  H120  1  0.93867107  0.50537379  0.20394961  1  0.063702  0.000336  0.105522  0.109058  0.000123  0.999621  0.0
H  H121  1  0.75555229  0.01516174  0.70394438  1  0.07511  0.000334  0.10541  0.108621  0.000124  0.99977  0.0
H  H122  1  0.26535317  0.69852934  0.20411278  1  0.0995  0.000336  0.105263  0.108636  0.000123  1.000195  0.0
H  H123  1  0.94833609  0.68898458  0.70402441  1  0.073753  0.000336  0.105587  0.109183  0.000124  1.000164  0.0
H  H124  1  0.43881033  0.19848251  0.20411067  1  0.070257  0.000337  0.10546  0.108817  0.000124  0.999879  0.0
H  H125  1  0.76541607  0.00548533  0.20403077  1  0.073643  0.000336  0.105628  0.109295  0.000124  0.999317  0.0
H  H126  1  0.44818090  0.51598010  0.70399956  1  0.093261  0.000175  0.106558  0.111035  2.4e-05  0.999087  0.0
H  H127  1  0.25558117  0.18779134  0.70379164  1  0.088466  0.000174  0.106476  0.111021  2.4e-05  0.999632  0.0
C  C128  1  0.78331018  0.17209178  0.23948198  1  0.466684  -0.010961  0.049893  0.097854  -0.01135  3.951644  -0.007
C  C129  1  0.42206157  0.20629967  0.73936105  1  0.464204  -0.013299  0.051671  0.102357  -0.013986  3.940447  -0.008
C  C130  1  0.45638113  0.06761908  0.23968999  1  0.479829  -0.010941  0.050191  0.09936  -0.011338  3.952653  -0.007
C  C131  1  0.31733406  0.53310406  0.73935699  1  0.477723  -0.013286  0.052045  0.102489  -0.013968  3.940444  -0.008
C  C132  1  0.28343120  0.56754891  0.23965897  1  0.483642  -0.010935  0.049831  0.097619  -0.011291  3.950671  -0.007
C  C133  1  0.95630779  0.67216882  0.23970293  1  0.473847  -0.010896  0.049744  0.098185  -0.011288  3.950461  -0.007
C  C134  1  0.81765610  0.70645307  0.73971529  1  0.485691  -0.010965  0.050555  0.099211  -0.011374  3.952244  -0.007
C  C135  1  0.92201135  0.03326227  0.73949613  1  0.474436  -0.010989  0.050622  0.099674  -0.011375  3.950423  -0.007
C  C136  1  0.84067976  0.21301936  0.26990468  1  -0.021272  0.006458  -0.08393  -0.178571  0.002863  3.960314  0.005
C  C137  1  0.46288121  0.17931344  0.76978198  1  -0.003203  0.006682  -0.082592  -0.177691  0.002866  3.957043  0.006
C  C138  1  0.42934991  0.05706548  0.27004613  1  -0.003976  0.006462  -0.08426  -0.17951  0.002871  3.958589  0.005
C  C139  1  0.30690218  0.59052664  0.76973481  1  -0.016933  0.00671  -0.082325  -0.176207  0.002871  3.952163  0.006
C  C140  1  0.34079156  0.55694440  0.27001887  1  0.013038  0.006474  -0.084096  -0.178101  0.002879  3.958084  0.005
C  C141  1  0.92931395  0.71312402  0.27006871  1  -0.018776  0.006465  -0.084064  -0.179209  0.00287  3.959326  0.005
C  C142  1  0.80711218  0.67937830  0.77002911  1  -0.010594  0.006434  -0.084561  -0.179456  0.002859  3.958332  0.005
C  C143  1  0.96289728  0.09062496  0.76988058  1  -0.025292  0.006446  -0.083918  -0.178778  0.002852  3.959554  0.005
C  C144  1  0.84458946  0.27397441  0.27327710  1  -0.014909  -0.017464  0.009769  0.106721  -0.018072  3.990588  -0.011
C  C145  1  0.52398535  0.17855334  0.77327944  1  -0.028931  -0.020892  0.00954  0.105604  -0.02163  3.988901  -0.013
C  C146  1  0.42873646  0.99943917  0.27334260  1  -0.056657  -0.017467  0.009783  0.106576  -0.018074  3.987655  -0.011
C  C147  1  0.24927485  0.59475523  0.77321484  1  0.027487  -0.020815  0.00933  0.104995  -0.021594  3.987106  -0.013
C  C148  1  0.34462576  0.49929621  0.27329361  1  -0.014238  -0.017368  0.009898  0.105978  -0.018008  3.989549  -0.011
C  C149  1  0.92873265  0.77405115  0.27337091  1  -0.032392  -0.017374  0.009847  0.107882  -0.017989  3.987628  -0.011
C  C150  1  0.74941166  0.67866061  0.77333427  1  -0.052612  -0.017523  0.01019  0.106922  -0.018144  3.986482  -0.011
C  C151  1  0.02392994  0.09463016  0.77324826  1  -0.013191  -0.017496  0.00978  0.106204  -0.018114  3.990602  -0.011
C  C152  1  0.78863755  0.29089304  0.24611194  1  -0.005663  0.006635  -0.083022  -0.179237  0.002982  3.956205  0.005
C  C153  1  0.54112035  0.20708606  0.74608247  1  0.030401  0.007762  -0.08317  -0.177869  0.003367  3.960321  0.006
C  C154  1  0.45753073  0.95537707  0.24617983  1  0.001206  0.006655  -0.083428  -0.180875  0.002972  3.957301  0.005
C  C155  1  0.20497804  0.53901045  0.74605007  1  -0.072036  0.007747  -0.083161  -0.17709  0.003361  3.960311  0.006
C  C156  1  0.28863761  0.45529759  0.24614099  1  -0.020829  0.006622  -0.083418  -0.179108  0.002967  3.955775  0.005
C  C157  1  0.95755763  0.79092289  0.24622251  1  -0.043571  0.006633  -0.08328  -0.180819  0.00297  3.957256  0.005
C  C158  1  0.70529213  0.70745917  0.74624767  1  -0.00057  0.00661  -0.083144  -0.179872  0.002947  3.956002  0.005
C  C159  1  0.04098953  0.03877955  0.74615151  1  -0.00647  0.006591  -0.083198  -0.17931  0.002957  3.956625  0.005
C  C160  1  0.73289326  0.24750536  0.21683489  1  0.445875  -0.011913  0.051643  0.100964  -0.012612  3.940516  -0.007
C  C161  1  0.49790317  0.23374259  0.71692025  1  0.43228  -0.013427  0.049907  0.095041  -0.01387  3.950216  -0.008
C  C162  1  0.48408576  0.96953437  0.21697113  1  0.470347  -0.011966  0.052485  0.102686  -0.012632  3.940457  -0.007
C  C163  1  0.21904471  0.48319353  0.71689619  1  0.443774  -0.013423  0.05011  0.094689  -0.013846  3.951536  -0.008
C  C164  1  0.23290910  0.46949428  0.21690218  1  0.466688  -0.011933  0.05227  0.101786  -0.012607  3.939791  -0.007
C  C165  1  0.98408120  0.74750814  0.21700172  1  0.519909  -0.011889  0.052561  0.102732  -0.012589  3.940182  -0.007
C  C166  1  0.71944479  0.73404328  0.71706803  1  0.472042  -0.011995  0.052021  0.10177  -0.012662  3.940776  -0.007
C  C167  1  0.99763886  0.98303675  0.71691808  1  0.44801  -0.011947  0.052221  0.101752  -0.012646  3.940331  -0.007
C  C168  1  0.00917470  0.35998561  0.37674979  1  0.585424  0.000597  0.121102  0.220258  0.000112  4.019304  0.001
C  C169  1  0.60996217  0.11746391  0.87676353  1  0.563586  0.000721  0.12127  0.218809  0.000164  4.021413  0.001
C  C170  1  0.36762841  0.01679570  0.37678623  1  0.566978  0.000595  0.12073  0.219588  0.000112  4.01846  0.001
C  C171  1  0.26673282  0.75923049  0.87678009  1  0.588159  0.000711  0.121525  0.220185  0.000163  4.0235  0.001
C  C172  1  0.50919264  0.51663001  0.37673850  1  0.570194  0.000602  0.121385  0.221361  0.00012  4.020786  0.001
C  C173  1  0.86743269  0.86003809  0.37671758  1  0.567545  0.000606  0.121111  0.220223  0.00012  4.020153  0.001
C  C174  1  0.76672645  0.61735586  0.87661579  1  0.511921  0.00041  0.121296  0.218957  4.2e-05  4.020669  0.001
C  C175  1  0.10982371  0.25917917  0.87655674  1  0.49439  0.000397  0.121477  0.220652  4.2e-05  4.018978  0.001
C  C176  1  0.95099653  0.31960837  0.35100131  1  -0.088844  -0.004959  -0.088874  -0.226556  -0.005116  3.915856  -0.003
C  C177  1  0.56952311  0.14984214  0.85098353  1  -0.087571  -0.00568  -0.088691  -0.225573  -0.005847  3.915645  -0.003
C  C178  1  0.40004638  0.03145076  0.35103555  1  -0.075538  -0.004964  -0.088732  -0.226334  -0.005126  3.915017  -0.003
C  C179  1  0.28137513  0.70109889  0.85096022  1  -0.076585  -0.005657  -0.088806  -0.227272  -0.005826  3.91758  -0.003
C  C180  1  0.45099976  0.53122394  0.35092688  1  -0.082598  -0.004966  -0.088858  -0.228019  -0.005122  3.91844  -0.003
C  C181  1  0.89986882  0.81966076  0.35094828  1  -0.086782  -0.004967  -0.088693  -0.226123  -0.005129  3.916173  -0.003
C  C182  1  0.78140356  0.64979917  0.85090421  1  -0.011943  -0.003939  -0.088427  -0.225615  -0.004083  3.915536  -0.002
C  C183  1  0.06949972  0.20100855  0.85086442  1  0.033339  -0.003912  -0.088796  -0.226459  -0.004066  3.916746  -0.002
C  C184  1  0.90534821  0.31752498  0.30279898  1  -0.018644  0.000148  0.002238  0.106803  -0.000505  4.035444  0.001
C  C185  1  0.56748287  0.14730798  0.80280867  1  -0.010375  0.000151  0.001688  0.106745  -0.000593  4.034218  0.001
C  C186  1  0.39751190  0.98535550  0.30284583  1  -0.035748  0.000138  0.002443  0.109253  -0.000501  4.029969  0.001
C  C187  1  0.23526217  0.65550035  0.80275248  1  -0.040733  0.00013  0.001868  0.107786  -0.000589  4.032669  0.001
C  C188  1  0.40535490  0.48514182  0.30275398  1  -0.04339  0.000117  0.002249  0.108623  -0.0005  4.033267  0.001
C  C189  1  0.89740894  0.81761250  0.30280366  1  0.001138  0.000138  0.002177  0.106725  -0.000501  4.034867  0.001
C  C190  1  0.73531413  0.64732223  0.80274578  1  -0.04373  -5e-06  0.001972  0.108283  -0.000581  4.030027  0.001
C  C191  1  0.06740930  0.15538771  0.80267325  1  0.002322  1.4e-05  0.002158  0.107042  -0.000582  4.035901  0.001
C  C192  1  0.91986346  0.35619447  0.28195667  1  -0.028304  -0.004844  -0.08873  -0.226463  -0.005001  3.917221  -0.003
C  C193  1  0.60626676  0.11198059  0.78202555  1  -0.066567  -0.00546  -0.088336  -0.226988  -0.005626  3.917041  -0.003
C  C194  1  0.36223477  0.92580090  0.28201981  1  -0.037749  -0.004858  -0.088813  -0.228297  -0.00501  3.915923  -0.003
C  C195  1  0.17568488  0.67006055  0.78201539  1  -0.013102  -0.005432  -0.088781  -0.2274  -0.005618  3.916164  -0.003
C  C196  1  0.41990406  0.42562065  0.28198993  1  -0.009188  -0.004826  -0.088896  -0.22675  -0.004989  3.916507  -0.003
C  C197  1  0.86206530  0.85630648  0.28198853  1  -0.068309  -0.004842  -0.088677  -0.227575  -0.004988  3.917459  -0.003
C  C198  1  0.67572262  0.61200668  0.78189443  1  -0.026565  -0.004033  -0.088471  -0.22734  -0.004172  3.914332  -0.002
C  C199  1  0.10607366  0.16992275  0.78180107  1  -0.034927  -0.00402  -0.088599  -0.227232  -0.004161  3.917258  -0.002
C  C200  1  0.97980381  0.39369391  0.30884185  1  0.524285  0.000473  0.121252  0.218431  9e-06  4.033584  0.001
C  C201  1  0.64373425  0.07893108  0.80888780  1  0.587048  0.000504  0.121166  0.219587  -4e-06  4.032229  0.001
C  C202  1  0.32921045  0.91513461  0.30891487  1  0.545664  0.000478  0.122372  0.221766  1.2e-05  4.029575  0.001
C  C203  1  0.16505620  0.72992192  0.80897350  1  0.519304  0.000485  0.121438  0.220635  -1e-06  4.031783  0.001
C  C204  1  0.47985724  0.41503383  0.30894002  1  0.521376  0.000468  0.121763  0.218739  9e-06  4.034351  0.001
C  C205  1  0.82893098  0.89373511  0.30884681  1  0.593001  0.000485  0.121538  0.219668  9e-06  4.031061  0.001
C  C206  1  0.66505765  0.57892932  0.80872098  1  0.508781  0.000329  0.12195  0.219748  1.9e-05  4.03021  0.001
C  C207  1  0.14353263  0.22982708  0.80863375  1  0.525746  0.000331  0.121605  0.220617  1.9e-05  4.0288  0.001
C  C208  1  0.05863420  0.36592839  0.42882667  1  -0.046865  -0.00268  -0.007296  0.038502  -0.002762  3.980103  -0.002
C  C209  1  0.61580841  0.12034711  0.92888515  1  -0.033434  -0.002681  -0.007197  0.040148  -0.002754  3.980278  -0.002
C  C210  1  0.37016413  0.06300089  0.42880700  1  -0.055066  -0.00269  -0.007194  0.0399  -0.00277  3.980503  -0.002
C  C211  1  0.31304387  0.80845169  0.92885425  1  -0.056537  -0.00267  -0.007415  0.039004  -0.002746  3.982659  -0.002
C  C212  1  0.55842310  0.56297117  0.42879937  1  -0.059585  -0.002643  -0.007331  0.038969  -0.002722  3.982261  -0.002
C  C213  1  0.87030324  0.86585466  0.42882661  1  -0.041944  -0.002658  -0.007224  0.039735  -0.002734  3.980523  -0.002
C  C214  1  0.81299574  0.62021277  0.92872562  1  -0.084036  -0.002605  -0.007318  0.039301  -0.002686  3.981444  -0.002
C  C215  1  0.11569972  0.30837936  0.92869369  1  -0.023077  -0.002606  -0.007011  0.039448  -0.002688  3.981053  -0.002
C  C216  1  0.04652028  0.34146357  0.46078399  1  -0.086024  0.00096  -0.093081  -0.130779  0.000347  3.998909  0.001
C  C217  1  0.59139539  0.16484735  0.96061592  1  -0.053376  0.000999  -0.092389  -0.129716  0.000372  4.001803  0.001
C  C218  1  0.41419396  0.11945872  0.46071408  1  -0.043528  0.000962  -0.093427  -0.132553  0.000347  3.999724  0.001
C  C219  1  0.36924708  0.79572057  0.96054091  1  -0.023036  0.000997  -0.092882  -0.129712  0.000372  4.000939  0.001
C  C220  1  0.54561519  0.61914797  0.46040848  1  -0.023498  0.00097  -0.092597  -0.129813  0.000359  4.001711  0.001
C  C221  1  0.91479473  0.84138278  0.46048188  1  -0.054773  0.000973  -0.092865  -0.130299  0.000359  4.00017  0.001
C  C222  1  0.86915091  0.66469195  0.96046127  1  0.010877  0.000931  -0.092854  -0.130516  0.000339  4.001754  0.001
C  C223  1  0.09130613  0.29562215  0.96044322  1  -0.077779  0.000932  -0.093222  -0.1315  0.000341  4.002188  0.001
C  C224  1  0.09388760  0.34808056  0.50960356  1  -0.079524  -0.000749  -0.086842  -0.095607  -0.001061  3.991565  0.0
C  C225  1  0.59804586  0.16701359  0.00960689  1  -0.024168  -0.000823  -0.087015  -0.096445  -0.001106  3.992509  0.0
C  C226  1  0.41561961  0.16166549  0.50952625  1  -0.056167  -0.000769  -0.087277  -0.096621  -0.001063  3.990454  0.0
C  C227  1  0.41154746  0.84254262  0.00954833  1  -0.061441  -0.000807  -0.086826  -0.09649  -0.001101  3.992047  0.0
C  C228  1  0.59243769  0.66145759  0.50942044  1  -0.055851  -0.000786  -0.087215  -0.096101  -0.001085  3.992439  0.0
C  C229  1  0.91696409  0.84803481  0.50947711  1  -0.042646  -0.000794  -0.086622  -0.09565  -0.001091  3.991651  0.0
C  C230  1  0.91142315  0.66690584  0.00949038  1  -0.045293  -0.000764  -0.086695  -0.09614  -0.001059  3.991954  0.0
C  C231  1  0.09805064  0.34243586  0.00947813  1  -0.021114  -0.000767  -0.086504  -0.095055  -0.001063  3.991264  0.0
C  C232  1  0.15455955  0.37974592  0.52785549  1  0.007852  0.002702  -0.020981  -0.02251  0.001374  3.983587  0.002
C  C233  1  0.62910216  0.12449784  0.02801552  1  -0.040374  0.002609  -0.020069  -0.022154  0.001309  3.984375  0.002
C  C234  1  0.37324985  0.14819746  0.52780543  1  -0.0249  0.00274  -0.02062  -0.022288  0.001379  3.984429  0.002
C  C235  1  0.39886137  0.90344419  0.02797945  1  -0.007636  0.002608  -0.02041  -0.022875  0.001309  3.984092  0.002
C  C236  1  0.65340769  0.64881603  0.52792344  1  -0.005461  0.002571  -0.020304  -0.023255  0.00129  3.984532  0.002
C  C237  1  0.87445378  0.87912019  0.52795631  1  -0.037466  0.002567  -0.020109  -0.022691  0.001287  3.984745  0.002
C  C238  1  0.89875758  0.62446445  0.02795212  1  -0.002648  0.00254  -0.020183  -0.022102  0.001274  3.983124  0.002
C  C239  1  0.12913804  0.40334457  0.02790933  1  0.011362  0.00253  -0.020112  -0.022887  0.001273  3.983743  0.002
C  C240  1  0.16690200  0.40459169  0.49637442  1  -0.012975  -0.000764  -0.083879  -0.093218  -0.001036  3.978607  0.0
C  C241  1  0.65368248  0.08001318  0.99669231  1  -0.020592  -0.000726  -0.083527  -0.091718  -0.000992  3.975662  0.0
C  C242  1  0.32941570  0.09188694  0.49632892  1  -0.035484  -0.000764  -0.083727  -0.092347  -0.001041  3.978925  0.0
C  C243  1  0.34297118  0.91659160  0.99663815  1  -0.038704  -0.000719  -0.084183  -0.092611  -0.000987  3.975587  0.0
C  C244  1  0.66664544  0.59297292  0.49663921  1  -0.039014  -0.000703  -0.084259  -0.092769  -0.000973  3.975701  0.0
C  C245  1  0.82994934  0.90370871  0.49668886  1  0.006627  -0.00072  -0.083698  -0.09186  -0.00098  3.976384  0.0
C  C246  1  0.84288970  0.57995209  0.99659575  1  -0.064131  -0.000674  -0.083511  -0.092667  -0.000951  3.977512  0.0
C  C247  1  0.15368589  0.41648248  0.99655947  1  -0.048812  -0.000676  -0.083976  -0.092841  -0.000951  3.977225  0.0
C  C248  1  0.11965551  0.39767566  0.44755326  1  -0.011945  0.00102  -0.08691  -0.111791  0.000399  3.976595  0.001
C  C249  1  0.64730295  0.07818387  0.94789477  1  -0.016355  0.00101  -0.08694  -0.11331  0.000395  3.973821  0.001
C  C250  1  0.32785708  0.04998660  0.44751887  1  0.000924  0.00102  -0.086716  -0.111891  0.000399  3.978061  0.001
C  C251  1  0.30055006  0.86961421  0.94786354  1  -0.020509  0.001009  -0.086655  -0.112173  0.000394  3.974729  0.001
C  C252  1  0.61966129  0.55054048  0.44785883  1  -0.017111  0.000983  -0.086557  -0.112079  0.00038  3.975259  0.001
C  C253  1  0.82813291  0.89735295  0.44789762  1  -0.027144  0.000985  -0.087069  -0.113281  0.000382  3.974903  0.001
C  C254  1  0.80052905  0.57807193  0.94775711  1  0.013166  0.00094  -0.08672  -0.11214  0.000357  3.974584  0.001
C  C255  1  0.14724693  0.36953124  0.94773103  1  -0.036007  0.000937  -0.08705  -0.113105  0.000356  3.975066  0.001
C  C256  1  0.20593359  0.38719561  0.57985927  1  1.51747  -0.005019  0.183502  0.533672  -0.00646  4.241574  -0.006
C  C257  1  0.63549070  0.12669707  0.08018478  1  1.51043  -0.004857  0.183708  0.535428  -0.006292  4.24244  -0.006
C  C258  1  0.37398305  0.19266077  0.57985970  1  1.521215  -0.00509  0.183177  0.533863  -0.006473  4.242184  -0.006
C  C259  1  0.44460858  0.95342220  0.08019135  1  1.513696  -0.004885  0.184981  0.537596  -0.006308  4.238313  -0.006
C  C260  1  0.70335980  0.69455296  0.58015399  1  1.513267  -0.0049  0.184708  0.537573  -0.006316  4.238021  -0.006
C  C261  1  0.87668501  0.88554415  0.58014994  1  1.510299  -0.004884  0.183899  0.536326  -0.006313  4.242097  -0.006
C  C262  1  0.94453424  0.62670815  0.08017178  1  1.520557  -0.004881  0.183641  0.535003  -0.006281  4.240334  -0.006
C  C263  1  0.13559642  0.45333360  0.08013749  1  1.526986  -0.004899  0.183781  0.536016  -0.006288  4.240111  -0.006
C  C264  1  0.08029176  0.47513800  0.27188400  1  -0.02025  -0.002702  -0.083345  -0.089537  -0.002952  3.979382  -0.002
C  C265  1  0.72519558  0.94159754  0.77185110  1  0.020107  -0.002767  -0.082611  -0.087599  -0.003036  3.977164  -0.002
C  C266  1  0.19174576  0.79680385  0.27207230  1  -0.020771  -0.002673  -0.083083  -0.088673  -0.002951  3.977901  -0.002
C  C267  1  0.04672653  0.83036643  0.77205797  1  -0.007821  -0.002792  -0.083961  -0.089724  -0.003031  3.977412  -0.002
C  C268  1  0.58037475  0.29668196  0.27205732  1  -0.067844  -0.002716  -0.083665  -0.089165  -0.002995  3.978311  -0.002
C  C269  1  0.69156860  0.97527474  0.27186007  1  0.016979  -0.002733  -0.083262  -0.088827  -0.003002  3.977758  -0.002
C  C270  1  0.54582708  0.44245968  0.77228563  1  -0.04403  0.001189  -0.083388  -0.087458  0.000466  3.97888  0.001
C  C271  1  0.22635020  0.32968566  0.77207088  1  -0.044053  0.001218  -0.083558  -0.088307  0.000463  3.97692  0.001
C  C272  1  0.06207603  0.44316233  0.29577059  1  -0.037679  0.001742  -0.08478  -0.112325  0.000775  3.973062  0.001
C  C273  1  0.69316713  0.98363813  0.79575491  1  -0.052817  0.001773  -0.085248  -0.113754  0.000791  3.975945  0.001
C  C274  1  0.23385651  0.85265158  0.29592554  1  -0.012318  0.001743  -0.085346  -0.113849  0.000776  3.975671  0.001
C  C275  1  0.10259554  0.81215248  0.79598283  1  -0.026415  0.001783  -0.084581  -0.112826  0.000792  3.975204  0.001
C  C276  1  0.56216134  0.35253546  0.29595500  1  -0.027161  0.001763  -0.08513  -0.113503  0.000781  3.975798  0.001
C  C277  1  0.73357383  0.94322765  0.29573843  1  -0.052694  0.001753  -0.085169  -0.113647  0.000781  3.976265  0.001
C  C278  1  0.60203213  0.48400056  0.79582824  1  0.001152  0.000364  -0.085063  -0.114481  0.00012  3.973087  0.0
C  C279  1  0.19365095  0.31174407  0.79561891  1  -0.033505  0.000364  -0.084914  -0.114561  0.00012  3.972929  0.0
C  C280  1  0.99878926  0.43122316  0.28571031  1  -0.016042  -0.004434  -0.006002  0.042419  -0.00458  3.985684  -0.003
C  C281  1  0.68126488  0.03680213  0.78572135  1  -0.037166  -0.00456  -0.005422  0.043  -0.004703  3.985487  -0.003
C  C282  1  0.28707710  0.85447272  0.28583511  1  -0.024297  -0.00444  -0.005862  0.042163  -0.004579  3.984732  -0.003
C  C283  1  0.10436547  0.74892927  0.78590419  1  -0.062695  -0.004561  -0.006539  0.04105  -0.0047  3.988346  -0.003
C  C284  1  0.49886949  0.35437468  0.28588948  1  -0.046558  -0.004499  -0.006402  0.041691  -0.004641  3.988337  -0.003
C  C285  1  0.78680734  0.93124855  0.28569868  1  -0.040012  -0.004504  -0.005497  0.043123  -0.004648  3.985887  -0.003
C  C286  1  0.60421073  0.53704690  0.78567468  1  0.010319  3.9e-05  -0.005382  0.044515  -6.1e-05  3.983881  0.0
C  C287  1  0.18129324  0.24856723  0.78552207  1  -0.00915  2.3e-05  -0.00553  0.043002  -7.2e-05  3.98348  0.0
C  C288  1  0.95449766  0.45400856  0.25239488  1  -0.029939  0.001562  -0.093077  -0.131236  0.000632  4.003346  0.001
C  C289  1  0.70409767  0.04777180  0.75241499  1  -0.014329  0.0016  -0.093472  -0.131753  0.000648  4.002582  0.001
C  C290  1  0.29803050  0.79833496  0.25253696  1  -0.013571  0.001578  -0.093294  -0.131296  0.000633  4.004571  0.001
C  C291  1  0.04820441  0.70471880  0.75258012  1  -0.006961  0.001597  -0.093001  -0.130055  0.000646  4.004218  0.001
C  C292  1  0.45459052  0.29828334  0.25259029  1  -0.022407  0.001574  -0.092749  -0.129952  0.000636  4.004175  0.001
C  C293  1  0.79789105  0.95404364  0.25243500  1  -0.047133  0.001568  -0.093581  -0.131893  0.000638  4.003114  0.001
C  C294  1  0.54817716  0.54827614  0.75247677  1  -0.042732  0.000565  -0.092933  -0.131916  0.000242  4.001697  0.0
C  C295  1  0.20407175  0.20407410  0.75230271  1  -0.034861  0.000568  -0.092841  -0.130329  0.000243  4.001258  0.0
C  C296  1  0.97289963  0.48743368  0.22960501  1  -0.020248  -0.002427  -0.087932  -0.099056  -0.002766  3.999073  -0.001
C  C297  1  0.73755316  0.00661501  0.72958707  1  -0.053136  -0.002495  -0.087666  -0.098123  -0.00285  3.998545  -0.002
C  C298  1  0.25683664  0.74213641  0.22980103  1  -0.147257  -0.002416  -0.087733  -0.098663  -0.002763  4.001012  -0.001
C  C299  1  0.99198233  0.72313539  0.72976938  1  -0.04615  -0.002503  -0.087829  -0.098959  -0.002844  4.001176  -0.001
C  C300  1  0.47301593  0.24207391  0.22982213  1  -0.032898  -0.002473  -0.087946  -0.098371  -0.002808  4.0001  -0.001
C  C301  1  0.75678452  0.98752995  0.22964782  1  -0.018918  -0.002453  -0.088019  -0.09879  -0.002817  3.998805  -0.001
C  C302  1  0.49171608  0.50744992  0.72978525  1  -0.120404  0.000988  -0.086552  -0.095589  0.000422  3.995882  0.001
C  C303  1  0.23780594  0.22213361  0.72954115  1  0.000902  0.000915  -0.08594  -0.095516  0.000416  3.996367  0.001
C  C304  1  0.03583544  0.49765690  0.23857362  1  -0.051505  0.010733  -0.01725  -0.030934  0.005482  3.970773  0.009
C  C305  1  0.74775417  0.95272796  0.73854866  1  -0.00279  0.01073  -0.017492  -0.031813  0.005494  3.971265  0.009
C  C306  1  0.20289237  0.74093332  0.23880850  1  0.011467  0.010695  -0.016978  -0.03117  0.005485  3.97061  0.009
C  C307  1  0.99082918  0.78599147  0.73874258  1  -0.04924  0.010768  -0.017014  -0.03192  0.005495  3.972466  0.009
C  C308  1  0.53594382  0.24084535  0.23879061  1  0.000847  0.010702  -0.016957  -0.032035  0.005483  3.971826  0.009
C  C309  1  0.70281267  0.99779891  0.23859164  1  0.001321  0.0107  -0.017388  -0.031749  0.005483  3.970836  0.009
C  C310  1  0.49007259  0.45378193  0.73899697  1  0.009518  0.009284  -0.017722  -0.035581  0.004911  3.969002  0.007
C  C311  1  0.24875717  0.28501237  0.73876624  1  -0.03547  0.009335  -0.018137  -0.03545  0.00491  3.969104  0.007
C  C312  1  0.05521952  0.53229341  0.21298954  1  1.552656  -0.006755  0.22202  0.597154  -0.007646  4.15718  -0.004
C  C313  1  0.78240316  0.90776480  0.71297127  1  1.534113  -0.006938  0.222062  0.597121  -0.007845  4.156854  -0.004
C  C314  1  0.15789089  0.68071304  0.21316597  1  1.534748  -0.006763  0.222123  0.597572  -0.007672  4.156547  -0.004
C  C315  1  0.93061789  0.80532829  0.71304466  1  1.534173  -0.006968  0.221907  0.59789  -0.007854  4.156136  -0.004
C  C316  1  0.55528400  0.18064346  0.21311285  1  1.535571  -0.00691  0.221976  0.597876  -0.007801  4.156528  -0.004
C  C317  1  0.65788912  0.03247546  0.21303457  1  1.534188  -0.00689  0.221925  0.596993  -0.007803  4.15701  -0.004
C  C318  1  0.42942021  0.40917436  0.71318335  1  1.545417  0.005158  0.224194  0.602633  0.003931  4.154147  0.004
C  C319  1  0.28372160  0.30381337  0.71304585  1  1.555215  0.005018  0.223528  0.602582  0.00391  4.153215  0.004
N  N320  1  0.73002957  0.18857931  0.21293028  1  -1.214161  0.062917  -0.326263  -0.242321  0.033328  3.591605  0.056
N  N321  1  0.43890205  0.23309296  0.71303238  1  -1.200177  0.063971  -0.327181  -0.240774  0.033959  3.595131  0.055
N  N322  1  0.48307952  0.02457742  0.21310730  1  -1.202773  0.062873  -0.326921  -0.244404  0.033334  3.59398  0.056
N  N323  1  0.27417721  0.47996461  0.71303529  1  -1.209535  0.06391  -0.327127  -0.241243  0.033902  3.59545  0.055
N  N324  1  0.23011793  0.52455114  0.21305622  1  -1.211662  0.062913  -0.326446  -0.24275  0.033324  3.590881  0.056
N  N325  1  0.98303185  0.68859059  0.21312098  1  -1.209299  0.062844  -0.326106  -0.242632  0.033294  3.590632  0.056
N  N326  1  0.77454678  0.73310820  0.71316678  1  -1.200006  0.062702  -0.326478  -0.243701  0.033221  3.593145  0.056
N  N327  1  0.93862686  0.98006905  0.71298858  1  -1.211198  0.062778  -0.326451  -0.243589  0.03324  3.590975  0.056
N  N328  1  0.02315064  0.39527364  0.35512684  1  -1.181462  -0.005047  -0.306176  -0.332609  -0.005184  3.275048  -0.004
N  N329  1  0.64529734  0.08185387  0.85517605  1  -1.196074  -0.005678  -0.306658  -0.333549  -0.005833  3.276057  -0.004
N  N330  1  0.33212450  0.95985012  0.35519615  1  -1.187245  -0.005053  -0.306432  -0.334294  -0.005196  3.274103  -0.004
N  N331  1  0.20979654  0.77325137  0.85525851  1  -1.209851  -0.005655  -0.306406  -0.334005  -0.005814  3.275711  -0.004
N  N332  1  0.52323670  0.45975041  0.35521250  1  -1.194662  -0.005033  -0.306448  -0.333449  -0.005171  3.274994  -0.004
N  N333  1  0.83180371  0.89531979  0.35512818  1  -1.196001  -0.005038  -0.306363  -0.333596  -0.005177  3.274668  -0.004
N  N334  1  0.70977971  0.58177003  0.85497950  1  -1.188289  -0.004287  -0.306603  -0.333589  -0.004415  3.273976  -0.003
N  N335  1  0.14507710  0.27321600  0.85490207  1  -1.194241  -0.004274  -0.306438  -0.333698  -0.004403  3.271336  -0.003
O  O336  1  0.19610358  0.36071586  0.60719072  1  -1.147505  0.090391  -0.336878  -0.573921  0.046777  2.190942  0.076
O  O337  1  0.61740872  0.17027878  0.11058738  1  -1.163191  0.073221  -0.326048  -0.562001  0.037698  2.175936  0.063
O  O338  1  0.41118990  0.24643107  0.60720919  1  -1.140283  0.090597  -0.336625  -0.573748  0.046828  2.190369  0.076
O  O339  1  0.49304838  0.94024666  0.11064118  1  -1.160439  0.072921  -0.326102  -0.562801  0.037666  2.176656  0.063
O  O340  1  0.69007519  0.74289770  0.61059479  1  -1.160351  0.072913  -0.326132  -0.562826  0.03766  2.176344  0.063
O  O341  1  0.92036861  0.86755040  0.61054784  1  -1.162622  0.073238  -0.326349  -0.562688  0.037721  2.176883  0.063
O  O342  1  0.99295390  0.67034752  0.11060682  1  -1.162083  0.073031  -0.325849  -0.561867  0.037614  2.175439  0.063
O  O343  1  0.11755735  0.44018229  0.11056692  1  -1.149514  0.072737  -0.325794  -0.56219  0.037552  2.175537  0.063
O  O344  1  0.26001606  0.41887083  0.59740891  1  -1.148204  0.074104  -0.3281  -0.557005  0.037766  2.147719  0.065
O  O345  1  0.65855099  0.08408344  0.09465398  1  -1.145419  0.088975  -0.334976  -0.569885  0.04593  2.179858  0.075
O  O346  1  0.33744830  0.17851787  0.59740126  1  -1.141597  0.074174  -0.328087  -0.557252  0.037815  2.147746  0.065
O  O347  1  0.43603087  0.01050725  0.09461668  1  -1.141524  0.08893  -0.335716  -0.570526  0.045864  2.177119  0.075
O  O348  1  0.76053847  0.68606914  0.59462267  1  -1.140081  0.088876  -0.33554  -0.570466  0.045841  2.176328  0.075
O  O349  1  0.83401049  0.90854381  0.59464214  1  -1.145542  0.088879  -0.334872  -0.569916  0.045874  2.179506  0.075
O  O350  1  0.93601665  0.58405335  0.09461455  1  -1.144874  0.088755  -0.335238  -0.569451  0.045812  2.177771  0.075
O  O351  1  0.15862444  0.51041033  0.09456500  1  -1.144517  0.088841  -0.335361  -0.570107  0.045897  2.177343  0.075
O  O352  1  0.10876589  0.52809358  0.21213927  1  -1.147788  0.075883  -0.312522  -0.56337  0.039588  2.386883  0.063
O  O353  1  0.77820396  0.85346331  0.71215074  1  -1.152786  0.075865  -0.313031  -0.563588  0.039575  2.386655  0.063
O  O354  1  0.10347934  0.68409877  0.21228179  1  -1.148906  0.075902  -0.313149  -0.563536  0.039573  2.385725  0.063
O  O355  1  0.93406132  0.85881420  0.71222780  1  -1.151487  0.076094  -0.313366  -0.564105  0.039672  2.385693  0.063
O  O356  1  0.60883756  0.18402395  0.21228485  1  -1.152778  0.076089  -0.313208  -0.563898  0.039672  2.386573  0.063
O  O357  1  0.60350584  0.02832513  0.21221545  1  -1.154012  0.075826  -0.312768  -0.563325  0.039545  2.386057  0.063
O  O358  1  0.43208031  0.35612290  0.71482571  1  -1.152455  0.080844  -0.314685  -0.568175  0.042094  2.393688  0.066
O  O359  1  0.28285389  0.35856278  0.71479303  1  -1.155647  0.080805  -0.31461  -0.568615  0.042023  2.39358  0.066
O  O360  1  0.01672693  0.56403414  0.19421868  1  -1.16541  0.090678  -0.312069  -0.558027  0.047776  2.417262  0.076
O  O361  1  0.81413496  0.92742191  0.69414791  1  -1.1585  0.091158  -0.31179  -0.557442  0.047972  2.419425  0.077
O  O362  1  0.17754714  0.63019155  0.19430441  1  -1.156906  0.090753  -0.311595  -0.558125  0.047765  2.416735  0.077
O  O363  1  0.88004130  0.76685766  0.69413256  1  -1.159145  0.091074  -0.311127  -0.557135  0.047947  2.41946  0.077
O  O364  1  0.51674313  0.13013607  0.19420143  1  -1.159244  0.090863  -0.311319  -0.557562  0.047849  2.417988  0.077
O  O365  1  0.67760726  0.06415884  0.19423033  1  -1.157966  0.090897  -0.311922  -0.557779  0.047837  2.418305  0.077
O  O366  1  0.37936975  0.42814236  0.69163658  1  -1.158564  0.073722  -0.313061  -0.560874  0.038158  2.372567  0.058
O  O367  1  0.31218991  0.26326431  0.69149129  1  -1.157191  0.073709  -0.312467  -0.560596  0.038179  2.371695  0.058
O  O368  1  0.55547090  0.05547466  0.11097524  1  -1.194268  0.065194  -0.523692  -0.753712  0.035649  2.284356  0.051
O  O369  1  0.30590523  0.30584166  0.61166699  1  -1.208187  0.065351  -0.521058  -0.751139  0.03586  2.280915  0.051
O  O370  1  0.05557566  0.55556692  0.11100504  1  -1.18991  0.065013  -0.523951  -0.755639  0.035574  2.2826  0.051
O  O371  1  0.80544415  0.80545121  0.61094951  1  -1.19517  0.065252  -0.523753  -0.753906  0.035687  2.282237  0.052
