# generated using pymatgen
data_CuH7C15NO4
_symmetry_space_group_name_H-M   'P 1'
_cell_length_a   18.27776591
_cell_length_b   18.27775322
_cell_length_c   26.46124805
_cell_angle_alpha   69.79889058
_cell_angle_beta   69.79893187
_cell_angle_gamma   60.00034626
_symmetry_Int_Tables_number   1
_chemical_formula_structural   CuH7C15NO4
_chemical_formula_sum   'Cu12 H84 C180 N12 O48'
_cell_volume   7020.83229851
_cell_formula_units_Z   12
loop_
 _symmetry_equiv_pos_site_id
 _symmetry_equiv_pos_as_xyz
  1  'x, y, z'
loop_
 _atom_site_type_symbol
 _atom_site_label
 _atom_site_symmetry_multiplicity
 _atom_site_fract_x
 _atom_site_fract_y
 _atom_site_fract_z
 _atom_site_occupancy
 _atom_site_pbe_bader_charge
 _atom_site_pbe_bader_spin_density
 _atom_site_pbe_cm5_charge
 _atom_site_pbe_ddec_charge
 _atom_site_pbe_ddec_spin_density
 _atom_site_pbe_ddec_sum_bond_order
 _atom_site_pbe_magmom
Cu  Cu0  1  0.68449091  0.24026660  0.79151156  1  1.081805  0.585055  0.690005  0.77913  0.739763  2.385393  0.586
Cu  Cu1  1  0.28373942  0.68448799  0.79150591  1  1.086879  0.585143  0.690207  0.780357  0.740196  2.383617  0.586
Cu  Cu2  1  0.24025835  0.28375365  0.79150467  1  1.083111  0.585066  0.690241  0.781577  0.740324  2.381685  0.586
Cu  Cu3  1  0.81551357  0.21626019  0.70849295  1  1.088096  0.585195  0.690247  0.780357  0.740207  2.383558  0.586
Cu  Cu4  1  0.21624712  0.25974222  0.70849413  1  1.084739  0.585131  0.690278  0.781655  0.740331  2.381532  0.586
Cu  Cu5  1  0.25973279  0.81551077  0.70848806  1  1.083002  0.585105  0.690091  0.779217  0.739774  2.385205  0.586
Cu  Cu6  1  0.31550712  0.75973442  0.20848959  1  1.081789  0.585043  0.690011  0.779194  0.739747  2.385416  0.586
Cu  Cu7  1  0.71625990  0.31551305  0.20849380  1  1.087208  0.585152  0.690175  0.78028  0.740195  2.383766  0.586
Cu  Cu8  1  0.75974161  0.71624653  0.20849508  1  1.083104  0.585064  0.690223  0.781519  0.740322  2.381803  0.586
Cu  Cu9  1  0.18448446  0.78373965  0.29150810  1  1.0881  0.585203  0.69029  0.780356  0.740215  2.383489  0.586
Cu  Cu10  1  0.78375220  0.74025824  0.29150572  1  1.084821  0.58513  0.690261  0.781618  0.740331  2.381589  0.586
Cu  Cu11  1  0.74026653  0.18448968  0.29151179  1  1.082685  0.585097  0.690111  0.779265  0.739776  2.385185  0.586
H  H12  1  0.71905337  0.16004867  0.41216122  1  0.113207  -7.4e-05  0.121808  0.103688  -8e-05  0.993892  0.0
H  H13  1  0.70872849  0.71906841  0.41216131  1  0.137361  -7.3e-05  0.121502  0.103782  -8e-05  0.994432  0.0
H  H14  1  0.16004516  0.70873748  0.41215983  1  0.10911  -7.3e-05  0.121887  0.104243  -8e-05  0.994027  0.0
H  H15  1  0.78093197  0.79127252  0.08783844  1  0.137448  -7.3e-05  0.121493  0.103762  -8e-05  0.99448  0.0
H  H16  1  0.79126291  0.33995568  0.08783957  1  0.109131  -7.3e-05  0.121885  0.104248  -8e-05  0.99402  0.0
H  H17  1  0.33995178  0.78094736  0.08783783  1  0.113309  -7.4e-05  0.121771  0.103566  -8e-05  0.993964  0.0
H  H18  1  0.28094724  0.83995122  0.58783883  1  0.113306  -7.4e-05  0.121795  0.103647  -8e-05  0.993917  0.0
H  H19  1  0.29127212  0.28093091  0.58783888  1  0.13734  -7.3e-05  0.121511  0.103794  -8e-05  0.994476  0.0
H  H20  1  0.83995674  0.29126244  0.58783877  1  0.109145  -7.3e-05  0.121899  0.104281  -8e-05  0.993969  0.0
H  H21  1  0.21906799  0.20872707  0.91216146  1  0.13744  -7.3e-05  0.121501  0.103771  -8e-05  0.994471  0.0
H  H22  1  0.20873706  0.66004391  0.91216032  1  0.109129  -7.3e-05  0.121894  0.104257  -8e-05  0.994013  0.0
H  H23  1  0.66004948  0.21905284  0.91216048  1  0.113231  -7.4e-05  0.121817  0.103684  -8e-05  0.993933  0.0
H  H24  1  0.76507606  0.98874041  0.32337560  1  0.091435  1e-06  0.122222  0.097559  -1.9e-05  0.98188  0.0
H  H25  1  0.92281801  0.76504274  0.32337866  1  0.113597  -0.0  0.122583  0.098084  -1.9e-05  0.981454  0.0
H  H26  1  0.98874328  0.92282563  0.32338274  1  0.094477  0.0  0.122474  0.098182  -1.9e-05  0.981833  0.0
H  H27  1  0.73495741  0.57718275  0.17662122  1  0.113626  -0.0  0.122589  0.098121  -1.9e-05  0.981408  0.0
H  H28  1  0.57717387  0.51125946  0.17661530  1  0.09452  0.0  0.122435  0.098078  -1.9e-05  0.981915  0.0
H  H29  1  0.51126075  0.73492407  0.17662300  1  0.090892  1e-06  0.122191  0.097515  -1.9e-05  0.981941  0.0
H  H30  1  0.23492325  0.01126005  0.67662462  1  0.091436  1e-06  0.122216  0.09753  -1.9e-05  0.981852  0.0
H  H31  1  0.07718195  0.23495744  0.67662147  1  0.113596  -0.0  0.122595  0.098144  -1.9e-05  0.981459  0.0
H  H32  1  0.01125862  0.07717371  0.67661562  1  0.094586  0.0  0.122441  0.098099  -1.9e-05  0.981845  0.0
H  H33  1  0.26504320  0.42281656  0.82337859  1  0.113625  -0.0  0.122588  0.098119  -1.9e-05  0.9814  0.0
H  H34  1  0.42282674  0.48874102  0.82338461  1  0.094588  0.0  0.122436  0.098086  -1.9e-05  0.981915  0.0
H  H35  1  0.48873986  0.26507641  0.82337540  1  0.091435  1e-06  0.122216  0.097564  -1.9e-05  0.981884  0.0
H  H36  1  0.73085307  0.88693307  0.40932015  1  0.088197  1.1e-05  0.10496  0.107783  1.1e-05  1.033399  0.0
H  H37  1  0.97289920  0.73082601  0.40931514  1  0.084242  1.1e-05  0.10523  0.107691  1.1e-05  1.033986  0.0
H  H38  1  0.88693449  0.97291598  0.40932324  1  0.094452  1e-05  0.105303  0.108305  1e-05  1.033076  0.0
H  H39  1  0.76917450  0.52710121  0.09068476  1  0.084231  1.1e-05  0.105218  0.107649  1.1e-05  1.034025  0.0
H  H40  1  0.52708533  0.61306750  0.09067452  1  0.09473  1e-05  0.105297  0.108319  1e-05  1.033057  0.0
H  H41  1  0.61306794  0.76914705  0.09067850  1  0.088179  1.1e-05  0.104899  0.107657  1.1e-05  1.033438  0.0
H  H42  1  0.26914754  0.11306741  0.59067975  1  0.088325  1.1e-05  0.104907  0.107687  1.1e-05  1.033425  0.0
H  H43  1  0.02710012  0.26917445  0.59068508  1  0.084298  1.1e-05  0.105213  0.107664  1.1e-05  1.033977  0.0
H  H44  1  0.11306742  0.02708394  0.59067536  1  0.094738  1e-05  0.10528  0.108298  1e-05  1.03307  0.0
H  H45  1  0.23082547  0.47289838  0.90931551  1  0.08425  1.1e-05  0.105226  0.107647  1.1e-05  1.034031  0.0
H  H46  1  0.47291528  0.38693240  0.90932552  1  0.094723  1e-05  0.105281  0.108311  1e-05  1.033057  0.0
H  H47  1  0.38693331  0.23085315  0.90932057  1  0.0882  1.1e-05  0.104905  0.107669  1.1e-05  1.033424  0.0
H  H48  1  0.68777959  0.92611371  0.50076428  1  0.089111  1.6e-05  0.115171  0.117848  0.0  0.973479  0.0
H  H49  1  0.88537576  0.68775926  0.50076967  1  0.06903  1.5e-05  0.115298  0.117488  0.0  0.973023  0.0
H  H50  1  0.92609022  0.88535848  0.50077914  1  0.069767  1.5e-05  0.115083  0.118064  0.0  0.972735  0.0
H  H51  1  0.81224025  0.61462478  0.99923060  1  0.06903  1.5e-05  0.115296  0.117476  0.0  0.973042  0.0
H  H52  1  0.61464318  0.57391085  0.99921895  1  0.069775  1.5e-05  0.115077  0.118046  0.0  0.972659  0.0
H  H53  1  0.57388700  0.81221973  0.99923479  1  0.089069  1.6e-05  0.11517  0.117831  0.0  0.973494  0.0
H  H54  1  0.31222102  0.07388618  0.49923576  1  0.089123  1.6e-05  0.115158  0.117835  0.0  0.97348  0.0
H  H55  1  0.11462485  0.31224005  0.49923052  1  0.069035  1.5e-05  0.115299  0.11749  0.0  0.973027  0.0
H  H56  1  0.07391169  0.11464144  0.49921946  1  0.069694  1.5e-05  0.115102  0.118076  0.0  0.972605  0.0
H  H57  1  0.18775972  0.38537423  0.00076981  1  0.069038  1.5e-05  0.115292  0.117474  0.0  0.973034  0.0
H  H58  1  0.38535742  0.42608963  0.00078096  1  0.069711  1.5e-05  0.115095  0.118064  0.0  0.972645  0.0
H  H59  1  0.42611490  0.18777903  0.00076409  1  0.089119  1.6e-05  0.115183  0.117837  0.0  0.973507  0.0
H  H60  1  0.72682920  0.13126362  0.60982182  1  0.113746  0.000351  0.112564  0.123117  0.000254  0.985414  0.0
H  H61  1  0.53211412  0.72680679  0.60981236  1  0.108274  0.000351  0.112629  0.12345  0.000254  0.98505  0.0
H  H62  1  0.13125188  0.53211746  0.60981395  1  0.100656  0.000357  0.112551  0.12309  0.000254  0.985439  0.0
H  H63  1  0.77319227  0.96788665  0.89018715  1  0.108276  0.000351  0.112651  0.123473  0.000254  0.985017  0.0
H  H64  1  0.96788345  0.36874865  0.89018560  1  0.100653  0.000357  0.112562  0.123117  0.000254  0.985388  0.0
H  H65  1  0.36873720  0.77317062  0.89017640  1  0.113804  0.000351  0.112578  0.123153  0.000254  0.985377  0.0
H  H66  1  0.27317076  0.86873597  0.39017921  1  0.11386  0.000351  0.112558  0.123106  0.000254  0.985482  0.0
H  H67  1  0.46788713  0.27319341  0.39018633  1  0.108286  0.000351  0.112613  0.123439  0.000254  0.985053  0.0
H  H68  1  0.86874938  0.46788216  0.39018525  1  0.100582  0.000357  0.112565  0.123123  0.000254  0.985435  0.0
H  H69  1  0.22680705  0.03211322  0.10981397  1  0.108313  0.000352  0.11261  0.123446  0.000254  0.984972  0.0
H  H70  1  0.03211780  0.63125039  0.10981450  1  0.100649  0.000357  0.112558  0.123116  0.000255  0.985377  0.0
H  H71  1  0.63126341  0.22682986  0.10982237  1  0.113759  0.000351  0.112567  0.123128  0.000254  0.985394  0.0
H  H72  1  0.50437003  0.23168030  0.73615232  1  0.131035  0.00065  0.110534  0.122162  0.000585  1.012396  0.0
H  H73  1  0.52778904  0.50438941  0.73617723  1  0.130825  0.000655  0.110494  0.122323  0.000585  1.012721  0.0
H  H74  1  0.23164847  0.52782068  0.73616256  1  0.132231  0.000655  0.110802  0.122288  0.000584  1.013207  0.0
H  H75  1  0.99560971  0.97221083  0.76382251  1  0.130822  0.000654  0.110477  0.122281  0.000584  1.012784  0.0
H  H76  1  0.97218063  0.26835176  0.76383698  1  0.13232  0.000655  0.110785  0.122237  0.000584  1.013276  0.0
H  H77  1  0.26831974  0.99563183  0.76384632  1  0.130946  0.00065  0.110569  0.122245  0.000584  1.012438  0.0
H  H78  1  0.49562929  0.76831899  0.26384818  1  0.131055  0.000651  0.110519  0.122154  0.000585  1.012389  0.0
H  H79  1  0.47220898  0.49561335  0.26382313  1  0.130852  0.000655  0.110509  0.122327  0.000585  1.012746  0.0
H  H80  1  0.76835214  0.47217922  0.26383749  1  0.132238  0.000656  0.110811  0.122306  0.000584  1.013186  0.0
H  H81  1  0.00438896  0.02779166  0.23617739  1  0.130875  0.000654  0.110459  0.122323  0.000584  1.012734  0.0
H  H82  1  0.02781868  0.73164753  0.23616314  1  0.132312  0.000655  0.11078  0.122238  0.000584  1.01328  0.0
H  H83  1  0.73168022  0.00436951  0.23615278  1  0.130991  0.00065  0.110539  0.122204  0.000584  1.012398  0.0
H  H84  1  0.47806722  0.15933806  0.60758948  1  0.098281  0.00037  0.111896  0.121891  0.000268  0.989377  0.0
H  H85  1  0.75499404  0.47803733  0.60762229  1  0.116259  0.000362  0.111858  0.121708  0.000268  0.9886  0.0
H  H86  1  0.15931376  0.75503661  0.60761031  1  0.109364  0.000358  0.112103  0.121999  0.000268  0.98883  0.0
H  H87  1  0.02196280  0.74500541  0.89237728  1  0.116248  0.000362  0.111865  0.121714  0.000268  0.988602  0.0
H  H88  1  0.74496447  0.34068668  0.89238767  1  0.109401  0.000359  0.11211  0.121962  0.000268  0.988791  0.0
H  H89  1  0.34066239  0.02193187  0.89240980  1  0.098304  0.00037  0.111886  0.12189  0.000268  0.989339  0.0
H  H90  1  0.52193274  0.84066212  0.39240990  1  0.09829  0.00037  0.111889  0.121887  0.000268  0.989385  0.0
H  H91  1  0.24500527  0.52196138  0.39237873  1  0.116198  0.000362  0.111856  0.121679  0.000268  0.988667  0.0
H  H92  1  0.84068685  0.24496329  0.39238898  1  0.109359  0.000358  0.112103  0.122007  0.000268  0.988814  0.0
H  H93  1  0.97803716  0.25499535  0.10762234  1  0.116242  0.000362  0.111856  0.121697  0.000268  0.988559  0.0
H  H94  1  0.25503484  0.65931377  0.10761330  1  0.109433  0.000359  0.112099  0.121918  0.000268  0.988827  0.0
H  H95  1  0.65933887  0.97806716  0.10758954  1  0.098311  0.00037  0.111882  0.121898  0.000268  0.989318  0.0
C  C96  1  0.72154054  0.09856990  0.41345498  1  0.554  -0.000514  0.057454  0.051656  -0.000568  3.876126  0.0
C  C97  1  0.76643452  0.72153582  0.41345351  1  0.516734  -0.000512  0.05784  0.05213  -0.000568  3.874655  0.0
C  C98  1  0.09856794  0.76643913  0.41345516  1  0.533632  -0.000512  0.056848  0.050203  -0.000568  3.877546  0.0
C  C99  1  0.77846528  0.73356631  0.08654612  1  0.516669  -0.000512  0.057883  0.052222  -0.000568  3.874662  0.0
C  C100  1  0.73356117  0.40143322  0.08654417  1  0.534015  -0.000512  0.056824  0.0502  -0.000567  3.877532  0.0
C  C101  1  0.40143074  0.77845972  0.08654453  1  0.553986  -0.000514  0.057539  0.051864  -0.000568  3.876197  0.0
C  C102  1  0.27845942  0.90143028  0.58654553  1  0.553988  -0.000514  0.057467  0.051647  -0.000568  3.876174  0.0
C  C103  1  0.23356544  0.27846436  0.58654662  1  0.516786  -0.000512  0.057854  0.052118  -0.000568  3.874674  0.0
C  C104  1  0.90143396  0.23356021  0.58654357  1  0.534056  -0.000512  0.056839  0.050172  -0.000568  3.877438  0.0
C  C105  1  0.22153533  0.26643359  0.91345355  1  0.516675  -0.000512  0.057842  0.052146  -0.000568  3.874623  0.0
C  C106  1  0.26643944  0.59856668  0.91345626  1  0.533917  -0.000512  0.056838  0.05021  -0.000567  3.877496  0.0
C  C107  1  0.59857052  0.22153990  0.91345429  1  0.553972  -0.000514  0.057479  0.051679  -0.000568  3.87625  0.0
C  C108  1  0.74742848  0.00269127  0.36394596  1  0.472105  -0.000492  0.05138  0.092919  -0.000544  3.9357  0.0
C  C109  1  0.88595955  0.74734512  0.36394072  1  0.468422  -0.000493  0.051619  0.094138  -0.000546  3.936376  0.0
C  C110  1  0.00270248  0.88596593  0.36395462  1  0.477322  -0.000492  0.051383  0.093224  -0.000545  3.937281  0.0
C  C111  1  0.75265571  0.61404079  0.13605873  1  0.468508  -0.000492  0.051637  0.094077  -0.000546  3.936331  0.0
C  C112  1  0.61403441  0.49729867  0.13604429  1  0.47797  -0.000492  0.051455  0.093373  -0.000545  3.93721  0.0
C  C113  1  0.49730941  0.75257156  0.13605285  1  0.472683  -0.000492  0.051421  0.092949  -0.000544  3.935769  0.0
C  C114  1  0.25257148  0.99730949  0.63605365  1  0.472086  -0.000492  0.051407  0.092959  -0.000544  3.935668  0.0
C  C115  1  0.11403977  0.25265533  0.63605950  1  0.468408  -0.000493  0.051622  0.094028  -0.000546  3.936378  0.0
C  C116  1  0.99729878  0.11403310  0.63604435  1  0.477881  -0.000492  0.05143  0.093342  -0.000545  3.93723  0.0
C  C117  1  0.24734490  0.38595853  0.86394108  1  0.468621  -0.000492  0.051595  0.09402  -0.000546  3.936354  0.0
C  C118  1  0.38596685  0.50270094  0.86395567  1  0.477879  -0.000492  0.051438  0.09334  -0.000545  3.937304  0.0
C  C119  1  0.50269120  0.24742833  0.86394607  1  0.472122  -0.000492  0.051398  0.092897  -0.000544  3.93566  0.0
C  C120  1  0.72794549  0.94653149  0.41191619  1  -0.056055  0.000483  -0.083639  -0.12587  0.00031  4.011054  0.0
C  C121  1  0.91363764  0.72786161  0.41191223  1  -0.023423  0.000483  -0.084019  -0.127444  0.00031  4.012368  0.0
C  C122  1  0.94653167  0.91363211  0.41192770  1  -0.001645  0.000482  -0.084314  -0.127886  0.000309  4.01237  0.0
C  C123  1  0.77213787  0.58636396  0.08808724  1  -0.023382  0.000483  -0.084051  -0.127466  0.00031  4.012466  0.0
C  C124  1  0.58636846  0.55346923  0.08807052  1  -0.001782  0.000481  -0.084302  -0.127936  0.000309  4.012231  0.0
C  C125  1  0.55346902  0.77205423  0.08808266  1  -0.056283  0.000482  -0.083667  -0.125833  0.000309  4.011116  0.0
C  C126  1  0.27205447  0.05346927  0.58808380  1  -0.056193  0.000483  -0.08367  -0.125893  0.00031  4.011083  0.0
C  C127  1  0.08636232  0.27213856  0.58808791  1  -0.023474  0.000483  -0.084061  -0.127494  0.00031  4.012354  0.0
C  C128  1  0.05346959  0.08636692  0.58807088  1  -0.001847  0.000481  -0.084302  -0.127963  0.000309  4.012326  0.0
C  C129  1  0.22786209  0.41363563  0.91191265  1  -0.023498  0.000483  -0.084003  -0.127366  0.00031  4.012394  0.0
C  C130  1  0.41363215  0.44653124  0.91192939  1  -0.001792  0.000481  -0.084303  -0.127956  0.000308  4.012279  0.0
C  C131  1  0.44653159  0.22794567  0.91191663  1  -0.056052  0.000482  -0.083709  -0.125899  0.000309  4.011074  0.0
C  C132  1  0.70396184  0.96830742  0.46255641  1  0.034872  -0.000646  -0.06234  -0.085043  -0.000723  3.918057  0.0
C  C133  1  0.86521210  0.70389182  0.46256455  1  -0.011705  -0.000648  -0.0621  -0.083221  -0.000725  3.916336  0.0
C  C134  1  0.96828751  0.86518801  0.46257300  1  -0.041774  -0.000646  -0.062446  -0.084929  -0.000722  3.916585  0.0
C  C135  1  0.79610963  0.63478815  0.03743514  1  -0.011725  -0.000648  -0.062091  -0.08315  -0.000725  3.916381  0.0
C  C136  1  0.63481356  0.53171306  0.03742507  1  -0.042008  -0.000646  -0.062484  -0.084913  -0.000722  3.916406  0.0
C  C137  1  0.53169323  0.79603823  0.03744270  1  0.035184  -0.000646  -0.062293  -0.084972  -0.000722  3.918184  0.0
C  C138  1  0.29603877  0.03169247  0.53744363  1  0.034786  -0.000647  -0.062283  -0.084975  -0.000723  3.918136  0.0
C  C139  1  0.13478786  0.29610894  0.53743544  1  -0.011706  -0.000648  -0.062091  -0.083178  -0.000725  3.916305  0.0
C  C140  1  0.03171439  0.13481133  0.53742536  1  -0.041947  -0.000646  -0.062487  -0.084907  -0.000722  3.916356  0.0
C  C141  1  0.20389033  0.36521086  0.96256489  1  -0.011704  -0.000648  -0.062072  -0.083151  -0.000724  3.916339  0.0
C  C142  1  0.36518705  0.46828684  0.96257497  1  -0.041954  -0.000646  -0.062496  -0.084909  -0.000722  3.916375  0.0
C  C143  1  0.46830867  0.20396111  0.96255642  1  0.034702  -0.000646  -0.062239  -0.084885  -0.000722  3.918157  0.0
C  C144  1  0.69979507  0.04659663  0.46411993  1  0.043182  0.000395  0.002543  0.094776  0.000269  4.119022  0.0
C  C145  1  0.78948439  0.69978691  0.46412187  1  0.110037  0.000394  0.00343  0.09602  0.000269  4.116289  0.0
C  C146  1  0.04657587  0.78947400  0.46412382  1  0.099013  0.000392  0.004353  0.096377  0.000268  4.117533  0.0
C  C147  1  0.80021426  0.71051579  0.03587752  1  0.110024  0.000394  0.00339  0.095891  0.000269  4.116318  0.0
C  C148  1  0.71052799  0.45342439  0.03587493  1  0.098609  0.000392  0.004354  0.096326  0.000268  4.117602  0.0
C  C149  1  0.45340454  0.80020437  0.03587965  1  0.043002  0.000395  0.002555  0.09481  0.000269  4.119028  0.0
C  C150  1  0.30020489  0.95340413  0.53588045  1  0.043191  0.000395  0.002569  0.094864  0.000269  4.118987  0.0
C  C151  1  0.21051557  0.30021326  0.53587826  1  0.110049  0.000394  0.003395  0.095948  0.000269  4.116233  0.0
C  C152  1  0.95342603  0.21052534  0.53587492  1  0.098665  0.000392  0.004327  0.09633  0.000268  4.117496  0.0
C  C153  1  0.19978570  0.28948380  0.96412237  1  0.110025  0.000394  0.003397  0.09591  0.000269  4.116348  0.0
C  C154  1  0.28947261  0.54657551  0.96412549  1  0.098666  0.000392  0.00433  0.096285  0.000268  4.117562  0.0
C  C155  1  0.54659737  0.19979497  0.96411908  1  0.043376  0.000395  0.002552  0.094789  0.000269  4.119072  0.0
C  C156  1  0.67166741  0.07557159  0.51374777  1  0.109453  0.000843  -0.051287  -0.126178  0.000565  4.130872  0.001
C  C157  1  0.73895437  0.67171862  0.51374184  1  -0.120469  0.000867  -0.051655  -0.125832  0.000566  4.133327  0.001
C  C158  1  0.07559395  0.73896510  0.51374042  1  0.106528  0.000844  -0.05106  -0.124306  0.000566  4.129618  0.001
C  C159  1  0.82828199  0.76104590  0.98625783  1  -0.120419  0.000867  -0.051657  -0.125775  0.000566  4.133368  0.001
C  C160  1  0.76103738  0.42440640  0.98625875  1  0.106263  0.000844  -0.051056  -0.124329  0.000566  4.129566  0.001
C  C161  1  0.42442841  0.82833170  0.98625195  1  0.109485  0.000843  -0.05128  -0.126203  0.000565  4.130831  0.001
C  C162  1  0.32833255  0.92442859  0.48625198  1  0.109465  0.000842  -0.051319  -0.12623  0.000565  4.130855  0.001
C  C163  1  0.26104624  0.32828128  0.48625783  1  -0.12043  0.000867  -0.05167  -0.125824  0.000565  4.133344  0.001
C  C164  1  0.92440795  0.26103482  0.48625855  1  0.106146  0.000844  -0.051072  -0.124346  0.000566  4.129636  0.001
C  C165  1  0.17171861  0.23895341  0.01374236  1  -0.120361  0.000867  -0.051646  -0.125743  0.000566  4.133337  0.001
C  C166  1  0.23896387  0.57559380  0.01374145  1  0.106336  0.000844  -0.051047  -0.124292  0.000566  4.129522  0.001
C  C167  1  0.57557349  0.17166647  0.01374744  1  0.109453  0.000843  -0.051289  -0.126152  0.000565  4.130725  0.001
C  C168  1  0.64386457  0.10494818  0.55503116  1  -0.46304  0.0003  -0.034844  -0.08221  0.000142  4.104994  0.0
C  C169  1  0.69618304  0.64387322  0.55505898  1  -0.245382  0.000277  -0.034947  -0.082985  0.000143  4.108003  0.0
C  C170  1  0.10496073  0.69617497  0.55503035  1  -0.467532  0.000301  -0.035245  -0.083675  0.000142  4.105792  0.0
C  C171  1  0.85612726  0.80381699  0.94494002  1  -0.245462  0.000277  -0.034936  -0.083022  0.000143  4.108035  0.0
C  C172  1  0.80382570  0.39504057  0.94496829  1  -0.467161  0.0003  -0.035266  -0.083638  0.000142  4.105709  0.0
C  C173  1  0.39505263  0.85613326  0.94496867  1  -0.463059  0.0003  -0.034878  -0.082234  0.000142  4.105007  0.0
C  C174  1  0.35613540  0.89505200  0.44496935  1  -0.463049  0.0003  -0.034862  -0.082237  0.000142  4.104976  0.0
C  C175  1  0.30381692  0.35612579  0.44494143  1  -0.245452  0.000277  -0.034959  -0.083012  0.000143  4.108016  0.0
C  C176  1  0.89504117  0.30382495  0.44496900  1  -0.46714  0.0003  -0.035253  -0.08364  0.000142  4.105769  0.0
C  C177  1  0.14387335  0.19618174  0.05506030  1  -0.245515  0.000277  -0.034939  -0.083032  0.000143  4.108072  0.0
C  C178  1  0.19617490  0.60495933  0.05503214  1  -0.467238  0.0003  -0.03527  -0.083662  0.000142  4.105683  0.0
C  C179  1  0.60494862  0.14386461  0.05502982  1  -0.463064  0.0003  -0.03488  -0.082303  0.000142  4.104914  0.0
C  C180  1  0.60734047  0.13974202  0.60316595  1  0.143173  0.001764  0.000681  0.127384  0.001052  4.119743  0.001
C  C181  1  0.64978310  0.60732655  0.60319954  1  0.085584  0.001776  1.4e-05  0.125796  0.001053  4.119847  0.001
C  C182  1  0.13972943  0.64978133  0.60317388  1  0.042553  0.001786  0.000214  0.126027  0.001053  4.119538  0.001
C  C183  1  0.89267239  0.85021805  0.89679994  1  0.08546  0.001777  3.2e-05  0.125848  0.001053  4.119807  0.001
C  C184  1  0.85021945  0.36027133  0.89682450  1  0.042334  0.001786  0.00023  0.125958  0.001053  4.119607  0.001
C  C185  1  0.36025940  0.89265852  0.89683307  1  0.143009  0.001765  0.000689  0.127402  0.001052  4.119711  0.001
C  C186  1  0.39265949  0.86025699  0.39683446  1  0.143146  0.001764  0.000723  0.127448  0.001052  4.119653  0.001
C  C187  1  0.35021751  0.39267276  0.39680064  1  0.085583  0.001776  4.5e-05  0.125838  0.001053  4.119807  0.001
C  C188  1  0.86027248  0.35021859  0.39682510  1  0.042557  0.001786  0.000195  0.125967  0.001053  4.119547  0.001
C  C189  1  0.10732693  0.14978241  0.10320028  1  0.085438  0.001777  1.2e-05  0.125737  0.001053  4.119869  0.001
C  C190  1  0.14978116  0.63972798  0.10317569  1  0.042327  0.001786  0.000168  0.125887  0.001053  4.119601  0.001
C  C191  1  0.63974121  0.10734138  0.10316622  1  0.143266  0.001765  0.000706  0.127502  0.001053  4.119653  0.001
C  C192  1  0.65829967  0.14947840  0.62774058  1  -0.008908  -0.000413  -0.063498  -0.116793  -0.00089  3.868164  0.0
C  C193  1  0.56452512  0.65829914  0.62776298  1  0.002203  -0.000416  -0.063442  -0.11632  -0.000895  3.86607  0.0
C  C194  1  0.14943013  0.56453203  0.62774456  1  -0.022139  -0.000346  -0.063168  -0.115674  -0.00089  3.867018  0.0
C  C195  1  0.84170119  0.93547515  0.87223560  1  0.00219  -0.000415  -0.063474  -0.116357  -0.000894  3.866106  0.0
C  C196  1  0.93546888  0.35056913  0.87225491  1  -0.022162  -0.000346  -0.063201  -0.115687  -0.00089  3.867069  0.0
C  C197  1  0.35052042  0.84170145  0.87225818  1  -0.008758  -0.000413  -0.063503  -0.116822  -0.00089  3.868143  0.0
C  C198  1  0.34169835  0.85052086  0.37226137  1  -0.009024  -0.000414  -0.063522  -0.116803  -0.000891  3.868147  0.0
C  C199  1  0.43547420  0.34170132  0.37223648  1  0.002199  -0.000416  -0.063434  -0.116292  -0.000894  3.866024  0.0
C  C200  1  0.85057112  0.43546758  0.37225464  1  -0.022051  -0.000346  -0.063146  -0.115655  -0.00089  3.867043  0.0
C  C201  1  0.15829748  0.06452500  0.12776598  1  0.002204  -0.000415  -0.063439  -0.11627  -0.000894  3.866141  0.0
C  C202  1  0.06453043  0.64943074  0.12774545  1  -0.022349  -0.000346  -0.06312  -0.115611  -0.00089  3.867038  0.0
C  C203  1  0.64947954  0.15829931  0.12774106  1  -0.008928  -0.000413  -0.063508  -0.116834  -0.00089  3.868232  0.0
C  C204  1  0.62095807  0.18235450  0.67563785  1  -0.028317  0.017533  -0.013446  -0.022395  0.012166  3.9825  0.014
C  C205  1  0.52107182  0.62096924  0.67564755  1  -0.02109  0.017561  -0.013087  -0.023143  0.012178  3.982487  0.014
C  C206  1  0.18231665  0.52108373  0.67563847  1  0.05789  0.017395  -0.012859  -0.022257  0.012183  3.979333  0.014
C  C207  1  0.87902892  0.97892811  0.82435200  1  -0.02111  0.017561  -0.013084  -0.02314  0.012178  3.982352  0.014
C  C208  1  0.97891663  0.31768491  0.82436135  1  0.057922  0.017395  -0.012849  -0.02232  0.012183  3.97938  0.014
C  C209  1  0.31764427  0.87904281  0.82436210  1  -0.028665  0.017535  -0.013508  -0.022415  0.012166  3.982564  0.014
C  C210  1  0.37904254  0.81764423  0.32436323  1  -0.028458  0.017534  -0.013433  -0.022374  0.012166  3.982481  0.014
C  C211  1  0.47892815  0.37903152  0.32435169  1  -0.021061  0.017561  -0.013115  -0.023206  0.012178  3.982423  0.014
C  C212  1  0.81768396  0.47891559  0.32436095  1  0.057882  0.017395  -0.012871  -0.022301  0.012183  3.979395  0.014
C  C213  1  0.12097104  0.02107381  0.17564847  1  -0.021106  0.017562  -0.013051  -0.023145  0.012179  3.982205  0.014
C  C214  1  0.02108333  0.68231469  0.17563817  1  0.058086  0.017395  -0.012832  -0.022283  0.012184  3.979446  0.014
C  C215  1  0.68235569  0.12095795  0.17563676  1  -0.028547  0.017535  -0.013514  -0.022435  0.012166  3.982587  0.014
C  C216  1  0.53310085  0.20647217  0.69880509  1  -0.029547  0.001396  -0.068737  -0.088667  0.000632  3.903962  0.001
C  C217  1  0.56162190  0.53311356  0.69883857  1  -0.004749  0.001369  -0.067965  -0.088041  0.000629  3.905951  0.001
C  C218  1  0.20644961  0.56163881  0.69881399  1  -0.014926  0.001361  -0.069508  -0.090214  0.000631  3.905418  0.001
C  C219  1  0.96688623  0.93837907  0.80115999  1  -0.004768  0.001368  -0.067938  -0.088016  0.000628  3.905654  0.001
C  C220  1  0.93836437  0.29354895  0.80118512  1  -0.015151  0.00136  -0.069468  -0.090069  0.000631  3.905294  0.001
C  C221  1  0.29352699  0.96690138  0.80119291  1  -0.029761  0.001395  -0.068769  -0.088807  0.000631  3.904039  0.001
C  C222  1  0.46689846  0.79352771  0.30119564  1  -0.029568  0.001396  -0.068759  -0.088709  0.000632  3.904081  0.001
C  C223  1  0.43837612  0.46688804  0.30116244  1  -0.004828  0.001369  -0.067988  -0.088016  0.00063  3.905864  0.001
C  C224  1  0.79354971  0.43836106  0.30118637  1  -0.014949  0.001361  -0.069521  -0.090219  0.000631  3.905424  0.001
C  C225  1  0.03311180  0.06162253  0.19884178  1  -0.004902  0.001368  -0.067967  -0.088082  0.000628  3.905471  0.001
C  C226  1  0.06163430  0.70645179  0.19881519  1  -0.015153  0.00136  -0.06949  -0.090149  0.00063  3.905321  0.001
C  C227  1  0.70647233  0.03310024  0.19880627  1  -0.029876  0.001395  -0.068792  -0.088789  0.000631  3.903934  0.001
C  C228  1  0.48148178  0.19926174  0.67407395  1  0.052777  0.01663  -0.013559  -0.02403  0.011591  3.983713  0.013
C  C229  1  0.64514891  0.48149428  0.67410632  1  -0.014368  0.016619  -0.01379  -0.023961  0.011587  3.985521  0.013
C  C230  1  0.19925072  0.64517474  0.67409195  1  0.015246  0.016661  -0.013714  -0.02287  0.011595  3.98445  0.013
C  C231  1  0.01850437  0.85484977  0.82589489  1  -0.014332  0.01662  -0.013785  -0.02392  0.011588  3.985408  0.013
C  C232  1  0.85482655  0.30074981  0.82590751  1  0.015001  0.016662  -0.013699  -0.022969  0.011595  3.984537  0.013
C  C233  1  0.30073943  0.01851880  0.82592518  1  0.053228  0.016629  -0.013525  -0.024002  0.011592  3.983745  0.013
C  C234  1  0.51851818  0.80073669  0.32592584  1  0.052771  0.01663  -0.013536  -0.023999  0.011591  3.983648  0.013
C  C235  1  0.35484976  0.51850587  0.32589412  1  -0.014343  0.016619  -0.013763  -0.023872  0.011587  3.985427  0.013
C  C236  1  0.80074925  0.35482544  0.32590781  1  0.015225  0.016661  -0.01372  -0.022881  0.011595  3.984474  0.013
C  C237  1  0.98149559  0.14515157  0.17410572  1  -0.014283  0.016619  -0.013766  -0.023906  0.011587  3.985457  0.013
C  C238  1  0.14517342  0.69925037  0.17409225  1  0.015064  0.016662  -0.013711  -0.022927  0.011595  3.984555  0.013
C  C239  1  0.69926117  0.98148110  0.17407449  1  0.053221  0.016629  -0.013527  -0.024025  0.011591  3.983748  0.013
C  C240  1  0.51836734  0.16557776  0.62653076  1  -0.126087  -0.000376  -0.06395  -0.117551  -0.00088  3.867658  0.0
C  C241  1  0.68951079  0.51834499  0.62655681  1  -0.051375  -0.000428  -0.064579  -0.117347  -0.000881  3.866904  0.0
C  C242  1  0.16556684  0.68955212  0.62654725  1  -0.055429  -0.000422  -0.065025  -0.118451  -0.000879  3.866969  0.0
C  C243  1  0.98165462  0.81048915  0.87344206  1  -0.051204  -0.000428  -0.064596  -0.117389  -0.000881  3.866988  0.0
C  C244  1  0.81044954  0.33443340  0.87345104  1  -0.055189  -0.000422  -0.065014  -0.11829  -0.000878  3.866992  0.0
C  C245  1  0.33442279  0.98163186  0.87346840  1  -0.126181  -0.000376  -0.063947  -0.117561  -0.00088  3.867673  0.0
C  C246  1  0.48163197  0.83442212  0.37346960  1  -0.126076  -0.000376  -0.063926  -0.117561  -0.00088  3.867565  0.0
C  C247  1  0.31048723  0.48165544  0.37344410  1  -0.051314  -0.000428  -0.064591  -0.117373  -0.000881  3.866897  0.0
C  C248  1  0.83443377  0.31044720  0.37345294  1  -0.055425  -0.000422  -0.065024  -0.11843  -0.000879  3.866898  0.0
C  C249  1  0.01834534  0.18951102  0.12655845  1  -0.051199  -0.000428  -0.064568  -0.117294  -0.000881  3.866869  0.0
C  C250  1  0.18954913  0.66556676  0.12654978  1  -0.055181  -0.000422  -0.06501  -0.118234  -0.000878  3.867032  0.0
C  C251  1  0.66557782  0.01836745  0.12653179  1  -0.126246  -0.000376  -0.063922  -0.117588  -0.00088  3.867671  0.0
C  C252  1  0.67258390  0.19426715  0.70292237  1  1.567913  -0.001684  0.217122  0.580462  -0.002005  4.156519  -0.004
C  C253  1  0.43023212  0.67258857  0.70291070  1  1.574753  -0.001681  0.216693  0.581689  -0.002014  4.158848  -0.004
C  C254  1  0.19422316  0.43024575  0.70290946  1  1.544313  -0.001532  0.218148  0.583966  -0.002018  4.156791  -0.004
C  C255  1  0.82741547  0.06976813  0.79708631  1  1.574764  -0.001681  0.216673  0.581665  -0.002014  4.158694  -0.004
C  C256  1  0.06975429  0.30577669  0.79708776  1  1.544207  -0.001531  0.218099  0.5839  -0.002019  4.156677  -0.004
C  C257  1  0.30573055  0.82742332  0.79707331  1  1.568106  -0.001686  0.217141  0.580454  -0.002005  4.156703  -0.004
C  C258  1  0.32741348  0.80573239  0.29708004  1  1.567822  -0.001685  0.217143  0.580353  -0.002005  4.156559  -0.004
C  C259  1  0.56976785  0.32741219  0.29708930  1  1.574712  -0.001681  0.216622  0.581577  -0.002013  4.158912  -0.004
C  C260  1  0.80577680  0.56975442  0.29709030  1  1.54432  -0.001532  0.218101  0.583899  -0.002018  4.156916  -0.004
C  C261  1  0.17258061  0.93023372  0.20291775  1  1.575024  -0.00168  0.216764  0.581758  -0.002015  4.158388  -0.004
C  C262  1  0.93024567  0.69422232  0.20291303  1  1.544461  -0.001531  0.21805  0.583856  -0.002019  4.156747  -0.004
C  C263  1  0.69426877  0.17257714  0.20292654  1  1.568054  -0.001686  0.217161  0.580497  -0.002005  4.156676  -0.004
C  C264  1  0.38710302  0.22779563  0.69983472  1  1.562854  -0.001555  0.217272  0.585011  -0.001928  4.152049  -0.004
C  C265  1  0.68524232  0.38711969  0.69984364  1  1.55348  -0.001496  0.216509  0.582321  -0.001918  4.150747  -0.004
C  C266  1  0.22779841  0.68524436  0.69985600  1  1.556452  -0.001582  0.215898  0.582988  -0.001923  4.150959  -0.004
C  C267  1  0.11287863  0.81476153  0.80015342  1  1.553536  -0.001496  0.216608  0.582432  -0.001919  4.150847  -0.004
C  C268  1  0.81476336  0.27220126  0.80013948  1  1.556292  -0.001581  0.215799  0.582841  -0.001924  4.151242  -0.004
C  C269  1  0.27220481  0.11289649  0.80016292  1  1.563087  -0.001555  0.21729  0.585145  -0.001928  4.152103  -0.004
C  C270  1  0.61289629  0.77220425  0.30016564  1  1.56308  -0.001555  0.217246  0.585017  -0.001928  4.1521  -0.004
C  C271  1  0.31475118  0.61288095  0.30016057  1  1.553376  -0.001496  0.216696  0.582478  -0.001918  4.151073  -0.004
C  C272  1  0.77220155  0.31475465  0.30014479  1  1.556475  -0.001582  0.215877  0.582941  -0.001923  4.150901  -0.004
C  C273  1  0.88712068  0.18523893  0.19984718  1  1.553559  -0.001497  0.216595  0.582447  -0.001919  4.150823  -0.004
C  C274  1  0.18523078  0.72780026  0.19986361  1  1.556501  -0.00158  0.215732  0.582658  -0.001923  4.151603  -0.004
C  C275  1  0.72779580  0.88710340  0.19983675  1  1.563119  -0.001556  0.217346  0.585208  -0.001928  4.152065  -0.004
N  N276  1  0.74450493  0.07731281  0.36482416  1  -1.206723  0.001739  -0.327986  -0.236946  0.001455  3.511574  0.003
N  N277  1  0.81336373  0.74447138  0.36481681  1  -1.224491  0.001734  -0.329659  -0.24066  0.001449  3.512323  0.003
N  N278  1  0.07732487  0.81338832  0.36482319  1  -1.20265  0.001715  -0.328313  -0.237478  0.001441  3.511711  0.003
N  N279  1  0.75552958  0.68663715  0.13518246  1  -1.224579  0.001733  -0.329616  -0.24055  0.001448  3.512325  0.003
N  N280  1  0.68661176  0.42267600  0.13517587  1  -1.203272  0.001711  -0.328306  -0.237447  0.001439  3.511561  0.003
N  N281  1  0.42268730  0.75549553  0.13517543  1  -1.206653  0.001732  -0.327987  -0.236962  0.00145  3.511643  0.003
N  N282  1  0.25549439  0.92268765  0.63517606  1  -1.206739  0.001738  -0.327977  -0.236891  0.001455  3.511657  0.003
N  N283  1  0.18663558  0.25552966  0.63518327  1  -1.224521  0.001735  -0.329613  -0.240504  0.001449  3.512292  0.003
N  N284  1  0.92267639  0.18661130  0.63517601  1  -1.203274  0.001712  -0.328264  -0.237405  0.001439  3.51158  0.003
N  N285  1  0.24447038  0.31336302  0.86481730  1  -1.224599  0.001733  -0.329619  -0.240546  0.001448  3.512248  0.003
N  N286  1  0.31338885  0.57732390  0.86482417  1  -1.203182  0.00171  -0.32826  -0.237396  0.001438  3.511534  0.003
N  N287  1  0.57731331  0.24450495  0.86482372  1  -1.206728  0.001734  -0.327976  -0.236893  0.001452  3.511538  0.003
O  O288  1  0.63448161  0.21190833  0.75069950  1  -1.104165  0.101474  -0.315039  -0.519414  0.063892  2.395101  0.092
O  O289  1  0.40291051  0.63446944  0.75067782  1  -1.10793  0.101553  -0.314801  -0.520415  0.063927  2.397737  0.092
O  O290  1  0.21188508  0.40292305  0.75068040  1  -1.100588  0.101486  -0.315415  -0.521453  0.063928  2.395907  0.092
O  O291  1  0.86552986  0.09708855  0.74932286  1  -1.108038  0.101541  -0.314752  -0.520348  0.06392  2.398072  0.092
O  O292  1  0.09707676  0.28811596  0.74931887  1  -1.100669  0.101482  -0.315383  -0.521395  0.063925  2.396092  0.092
O  O293  1  0.28809122  0.86551857  0.74930080  1  -1.104327  0.101459  -0.315031  -0.519341  0.063882  2.395355  0.092
O  O294  1  0.36551835  0.78809126  0.24930001  1  -1.103869  0.101484  -0.315109  -0.519434  0.063898  2.394785  0.092
O  O295  1  0.59708945  0.36553190  0.24932128  1  -1.107925  0.101554  -0.314777  -0.520354  0.063929  2.397747  0.092
O  O296  1  0.78811424  0.59707740  0.24931945  1  -1.100603  0.101482  -0.315339  -0.521344  0.063926  2.396028  0.092
O  O297  1  0.13446946  0.90291132  0.25067674  1  -1.108418  0.101526  -0.314773  -0.520333  0.063911  2.398184  0.092
O  O298  1  0.90292256  0.71188450  0.25068059  1  -1.101017  0.101478  -0.315327  -0.521315  0.063922  2.396146  0.092
O  O299  1  0.71190810  0.13448130  0.25069880  1  -1.104277  0.10146  -0.31503  -0.51935  0.063884  2.395367  0.092
O  O300  1  0.74787822  0.18737643  0.67704507  1  -1.113349  0.089542  -0.310291  -0.517706  0.056364  2.31848  0.081
O  O301  1  0.38771675  0.74788605  0.67702783  1  -1.111384  0.089543  -0.310197  -0.517808  0.05645  2.317602  0.081
O  O302  1  0.18733219  0.38773087  0.67701872  1  -1.104739  0.089558  -0.31047  -0.518971  0.056445  2.318956  0.081
O  O303  1  0.75211067  0.11228625  0.82297251  1  -1.111326  0.089573  -0.310219  -0.517832  0.056469  2.317166  0.081
O  O304  1  0.11227129  0.31266800  0.82298057  1  -1.104606  0.08958  -0.310436  -0.518923  0.05646  2.318577  0.081
O  O305  1  0.31262326  0.75212100  0.82295469  1  -1.113163  0.089578  -0.310287  -0.517736  0.056387  2.318266  0.081
O  O306  1  0.25212369  0.81262349  0.32295504  1  -1.113416  0.089521  -0.31024  -0.51754  0.05635  2.318722  0.081
O  O307  1  0.61228257  0.25211557  0.32297174  1  -1.111353  0.089538  -0.310148  -0.517739  0.056446  2.317643  0.081
O  O308  1  0.81266777  0.61226931  0.32298104  1  -1.10472  0.08956  -0.31048  -0.518961  0.056446  2.318897  0.081
O  O309  1  0.24789059  0.88771395  0.17702769  1  -1.111195  0.089599  -0.310289  -0.517965  0.056487  2.316902  0.082
O  O310  1  0.88772868  0.68733218  0.17701881  1  -1.104611  0.089586  -0.310451  -0.518952  0.056464  2.318597  0.081
O  O311  1  0.68737606  0.24787946  0.17704515  1  -1.113174  0.089574  -0.310304  -0.517774  0.056385  2.318295  0.081
O  O312  1  0.36234952  0.24679368  0.74680851  1  -1.109553  0.088961  -0.313694  -0.525074  0.05593  2.341634  0.081
O  O313  1  0.64403223  0.36236464  0.74682177  1  -1.110972  0.089055  -0.313469  -0.523719  0.05596  2.340894  0.081
O  O314  1  0.24679014  0.64402578  0.74682968  1  -1.108759  0.089026  -0.313124  -0.524563  0.055993  2.34122  0.081
O  O315  1  0.13763320  0.85596593  0.75317978  1  -1.111272  0.089028  -0.313504  -0.523695  0.055944  2.34123  0.081
O  O316  1  0.85597618  0.25321097  0.75316986  1  -1.108565  0.089003  -0.31314  -0.524546  0.05598  2.341652  0.081
O  O317  1  0.25320797  0.13764978  0.75319116  1  -1.109641  0.088954  -0.31373  -0.525201  0.055924  2.34182  0.081
O  O318  1  0.63764980  0.75320678  0.25319096  1  -1.109552  0.088966  -0.313721  -0.525131  0.055933  2.341657  0.081
O  O319  1  0.35596385  0.63763722  0.25317964  1  -1.110805  0.089071  -0.313672  -0.524022  0.055971  2.340882  0.081
O  O320  1  0.75320982  0.35597440  0.25317007  1  -1.108731  0.089033  -0.313152  -0.524572  0.055997  2.341132  0.081
O  O321  1  0.86236611  0.14403395  0.24682021  1  -1.111281  0.089026  -0.313519  -0.523746  0.055942  2.341269  0.081
O  O322  1  0.14402249  0.74678860  0.24683073  1  -1.108754  0.088987  -0.313055  -0.524357  0.055969  2.341967  0.081
O  O323  1  0.74679199  0.86235039  0.24680821  1  -1.109625  0.088951  -0.313758  -0.525196  0.055923  2.341856  0.081
O  O324  1  0.33931406  0.23076995  0.67284566  1  -1.105767  0.098078  -0.312944  -0.518052  0.06193  2.361856  0.089
O  O325  1  0.75703544  0.33933386  0.67285233  1  -1.10771  0.098075  -0.312654  -0.516678  0.061999  2.362138  0.089
O  O326  1  0.23076665  0.75704529  0.67286057  1  -1.106197  0.098105  -0.312639  -0.516824  0.061894  2.362818  0.089
O  O327  1  0.16066655  0.74296284  0.82714823  1  -1.107463  0.098091  -0.312738  -0.51684  0.06201  2.361898  0.089
O  O328  1  0.74295555  0.26923474  0.82713839  1  -1.105984  0.098121  -0.312546  -0.516679  0.061904  2.362576  0.089
O  O329  1  0.26923031  0.16068644  0.82715405  1  -1.105953  0.098088  -0.312909  -0.518031  0.061936  2.361715  0.089
O  O330  1  0.66068461  0.76923021  0.32715441  1  -1.105991  0.098077  -0.312898  -0.517991  0.061929  2.361843  0.089
O  O331  1  0.24296259  0.66066424  0.32714990  1  -1.107744  0.09807  -0.312612  -0.516593  0.061995  2.362523  0.089
O  O332  1  0.76923331  0.24295430  0.32713932  1  -1.106225  0.098103  -0.312587  -0.516762  0.061892  2.36282  0.089
O  O333  1  0.83933147  0.25703876  0.17285165  1  -1.10751  0.098093  -0.312717  -0.516845  0.062011  2.361881  0.089
O  O334  1  0.25704182  0.73076655  0.17286247  1  -1.106067  0.098127  -0.312596  -0.516726  0.061908  2.362413  0.089
O  O335  1  0.73076965  0.83931257  0.17284560  1  -1.105976  0.098089  -0.312922  -0.518058  0.061937  2.361722  0.089
