# generated using pymatgen
data_CoH12C16(NO2)2
_symmetry_space_group_name_H-M   'P 1'
_cell_length_a   17.54099623
_cell_length_b   17.54023402
_cell_length_c   20.13837708
_cell_angle_alpha   89.99838649
_cell_angle_beta   90.01033916
_cell_angle_gamma   90.00371855
_symmetry_Int_Tables_number   1
_chemical_formula_structural   CoH12C16(NO2)2
_chemical_formula_sum   'Co12 H144 C192 N24 O48'
_cell_volume   6196.03837362
_cell_formula_units_Z   12
loop_
 _symmetry_equiv_pos_site_id
 _symmetry_equiv_pos_as_xyz
  1  'x, y, z'
loop_
 _atom_site_type_symbol
 _atom_site_label
 _atom_site_symmetry_multiplicity
 _atom_site_fract_x
 _atom_site_fract_y
 _atom_site_fract_z
 _atom_site_occupancy
 _atom_site_pbe_bader_charge
 _atom_site_pbe_bader_spin_density
 _atom_site_pbe_cm5_charge
 _atom_site_pbe_ddec_charge
 _atom_site_pbe_ddec_spin_density
 _atom_site_pbe_ddec_sum_bond_order
 _atom_site_pbe_magmom
Co  Co0  1  0.74661672  0.75528381  0.00056843  1  1.243852  2.588336  0.675249  0.795763  2.837816  2.524674  2.554
Co  Co1  1  0.74473430  0.24669418  0.00059340  1  1.244224  2.588993  0.67535  0.795494  2.838894  2.526123  2.555
Co  Co2  1  0.25329237  0.24480312  0.00057839  1  1.243483  2.589018  0.675371  0.795808  2.838884  2.525883  2.555
Co  Co3  1  0.25521070  0.75329298  0.00058271  1  1.244225  2.58892  0.675428  0.795583  2.838745  2.52629  2.555
Co  Co4  1  0.73823596  0.25352432  0.33348011  1  1.243553  2.59131  0.681072  0.791398  2.838476  2.555499  2.556
Co  Co5  1  0.24665619  0.23829876  0.33343049  1  1.24306  2.591411  0.681294  0.791833  2.838236  2.555029  2.556
Co  Co6  1  0.26171346  0.74663340  0.33347458  1  1.242737  2.591443  0.681217  0.791668  2.838365  2.554671  2.556
Co  Co7  1  0.75343916  0.76177287  0.33346562  1  1.243151  2.591484  0.681083  0.791532  2.838731  2.554971  2.556
Co  Co8  1  0.23853266  0.25004668  0.66618096  1  1.240504  2.586267  0.680936  0.791761  2.83022  2.559783  2.55
Co  Co9  1  0.24982837  0.73853768  0.66619420  1  1.240314  2.586166  0.680776  0.791309  2.830034  2.560923  2.55
Co  Co10  1  0.76149752  0.74992528  0.66620671  1  1.239307  2.586213  0.680736  0.791463  2.830063  2.559724  2.55
Co  Co11  1  0.75002052  0.26149528  0.66621828  1  1.23986  2.586274  0.680983  0.79147  2.830126  2.560131  2.55
H  H12  1  0.49480270  0.24050880  0.60450595  1  0.127904  0.001603  0.108468  0.134043  0.000871  1.027178  0.001
H  H13  1  0.25940498  0.99481664  0.60454979  1  0.137147  0.001594  0.108511  0.134118  0.000871  1.027411  0.001
H  H14  1  0.50521690  0.75959628  0.60449045  1  0.127426  0.001603  0.108406  0.133863  0.00087  1.0271  0.001
H  H15  1  0.74053881  0.00518810  0.60455931  1  0.128151  0.001603  0.108459  0.134197  0.000871  1.026895  0.001
H  H16  1  0.99398411  0.26065410  0.39541164  1  0.128548  0.001614  0.108003  0.133821  0.000871  1.030264  0.001
H  H17  1  0.23957272  0.49398398  0.39535780  1  0.128012  0.001616  0.108002  0.133725  0.000872  1.030168  0.001
H  H18  1  0.00602612  0.73951417  0.39545075  1  0.128798  0.001615  0.107962  0.133816  0.000872  1.030094  0.001
H  H19  1  0.76041811  0.50605031  0.39540180  1  0.128881  0.001615  0.107923  0.133656  0.000873  1.030357  0.001
H  H20  1  0.38986020  0.27871604  0.48542463  1  0.090759  0.00069  0.105172  0.108928  0.000421  1.022855  0.0
H  H21  1  0.22129611  0.88991450  0.48543225  1  0.092035  0.00069  0.105211  0.10909  0.000421  1.022628  0.0
H  H22  1  0.61017563  0.72143621  0.48543242  1  0.101221  0.000685  0.105211  0.108978  0.000422  1.022613  0.0
H  H23  1  0.77853448  0.11017674  0.48547592  1  0.100827  0.000683  0.105173  0.108836  0.000421  1.022383  0.0
H  H24  1  0.88999378  0.22137794  0.51484709  1  0.101096  0.000677  0.10535  0.109204  0.000417  1.023125  0.0
H  H25  1  0.27872268  0.39006224  0.51490007  1  0.092677  0.000678  0.105316  0.10906  0.000416  1.02337  0.0
H  H26  1  0.11000999  0.77876994  0.51492631  1  0.102487  0.000677  0.105472  0.109361  0.000417  1.023635  0.0
H  H27  1  0.72124289  0.61001950  0.51488028  1  0.101863  0.000677  0.105418  0.109175  0.000417  1.023192  0.0
H  H28  1  0.45377153  0.29890826  0.37983397  1  0.069546  0.000916  0.10545  0.11429  0.000276  1.019062  0.0
H  H29  1  0.20130997  0.95380011  0.37980223  1  0.06963  0.000914  0.105485  0.114179  0.000276  1.01903  0.0
H  H30  1  0.54622917  0.70136712  0.37977913  1  0.0687  0.000914  0.105569  0.114443  0.000276  1.018894  0.0
H  H31  1  0.79870270  0.04628428  0.37986401  1  0.068403  0.000914  0.105516  0.114416  0.000277  1.018977  0.0
H  H32  1  0.95442976  0.20159867  0.62015231  1  0.07435  0.000907  0.106085  0.114496  0.000286  1.018867  0.0
H  H33  1  0.29836861  0.45448279  0.62017643  1  0.072552  0.000908  0.105905  0.114093  0.000285  1.018926  0.0
H  H34  1  0.04560793  0.79841412  0.62022844  1  0.059334  0.000914  0.105998  0.114168  0.000285  1.018664  0.0
H  H35  1  0.70150888  0.54558302  0.62015664  1  0.075522  0.000906  0.106022  0.114479  0.000286  1.018804  0.0
H  H36  1  0.57151563  0.29270861  0.31003573  1  0.085833  0.002236  0.113397  0.079234  0.000793  1.013072  0.001
H  H37  1  0.20751715  0.07156634  0.31000704  1  0.084622  0.002236  0.113383  0.07925  0.000793  1.013244  0.001
H  H38  1  0.42844315  0.70756218  0.31002094  1  0.085043  0.002236  0.11338  0.079243  0.000794  1.01349  0.001
H  H39  1  0.79253627  0.92852714  0.31008936  1  0.086193  0.002237  0.113306  0.079196  0.000795  1.013062  0.001
H  H40  1  0.07213277  0.20954372  0.68986947  1  0.091448  0.002196  0.114115  0.080282  0.000767  1.014008  0.001
H  H41  1  0.29028894  0.57216341  0.68987808  1  0.091455  0.002201  0.11396  0.080317  0.00077  1.013701  0.001
H  H42  1  0.92793427  0.79038586  0.68993264  1  0.089777  0.002194  0.114112  0.080281  0.000766  1.01359  0.001
H  H43  1  0.70950275  0.42790071  0.68988379  1  0.091219  0.002196  0.11424  0.08037  0.000767  1.013711  0.001
H  H44  1  0.70041130  0.21646894  0.46963308  1  0.128726  0.001902  0.120285  0.098088  0.00061  1.045138  0.002
H  H45  1  0.28371267  0.20047330  0.46961166  1  0.127376  0.001892  0.120433  0.098116  0.000605  1.045055  0.002
H  H46  1  0.29958874  0.78370948  0.46963999  1  0.128677  0.001894  0.120385  0.097897  0.000606  1.045115  0.002
H  H47  1  0.71643502  0.79956031  0.46968377  1  0.128627  0.001893  0.120395  0.098022  0.000606  1.045114  0.002
H  H48  1  0.20030110  0.28521194  0.52964518  1  0.167176  0.001901  0.119763  0.097661  0.000641  1.045642  0.002
H  H49  1  0.21481773  0.70036480  0.52956425  1  0.167333  0.001897  0.119619  0.09745  0.000639  1.046163  0.002
H  H50  1  0.79974508  0.71474447  0.52967678  1  0.168535  0.001898  0.119707  0.097379  0.00064  1.0457  0.002
H  H51  1  0.78521248  0.29974099  0.52968522  1  0.168375  0.001901  0.119701  0.097441  0.000642  1.045834  0.002
H  H52  1  0.59103169  0.22218358  0.54583170  1  0.144566  0.000725  0.117246  0.142746  0.00027  1.010493  0.0
H  H53  1  0.27785195  0.09110276  0.54586596  1  0.144352  0.000726  0.117055  0.142536  0.00027  1.010557  0.0
H  H54  1  0.40900476  0.77788235  0.54583697  1  0.144048  0.000726  0.117049  0.142463  0.000271  1.010774  0.0
H  H55  1  0.72216398  0.90894720  0.54587819  1  0.14415  0.000726  0.117038  0.142418  0.00027  1.010924  0.0
H  H56  1  0.09084761  0.27795772  0.45356505  1  0.14126  0.000711  0.116833  0.142175  0.000254  1.012028  0.0
H  H57  1  0.22220093  0.59092816  0.45349897  1  0.139929  0.000712  0.11671  0.141773  0.000253  1.012748  0.0
H  H58  1  0.90916048  0.72210833  0.45358775  1  0.1419  0.000709  0.116926  0.142487  0.000253  1.01194  0.0
H  H59  1  0.77787956  0.40916013  0.45358134  1  0.141564  0.00071  0.116896  0.142439  0.000252  1.011872  0.0
H  H60  1  0.75347369  0.50724246  0.27366651  1  0.139124  0.00172  0.103874  0.127379  0.000912  1.040276  0.001
H  H61  1  0.99289599  0.25348679  0.27365605  1  0.141736  0.001715  0.103808  0.127464  0.000911  1.039926  0.001
H  H62  1  0.24652881  0.49287900  0.27362462  1  0.1422  0.001714  0.103759  0.127475  0.000911  1.040107  0.001
H  H63  1  0.00716694  0.74637640  0.27367928  1  0.140264  0.001717  0.103993  0.127516  0.000911  1.039871  0.001
H  H64  1  0.25148378  0.99618441  0.72677847  1  0.138531  0.001658  0.10463  0.12837  0.000852  1.038215  0.001
H  H65  1  0.50375684  0.75141079  0.72682353  1  0.139684  0.001657  0.104633  0.128504  0.000852  1.037215  0.001
H  H66  1  0.74872494  0.00378447  0.72687966  1  0.13925  0.001658  0.104667  0.128615  0.000851  1.037485  0.001
H  H67  1  0.49616911  0.24852102  0.72677648  1  0.138085  0.001659  0.104516  0.128243  0.000852  1.038313  0.001
H  H68  1  0.72293705  0.40571231  0.15045833  1  0.152008  0.0008  0.10443  0.116845  0.000521  1.0512  0.0
H  H69  1  0.09438129  0.22261853  0.15047158  1  0.156802  0.000799  0.104422  0.117019  0.000522  1.050813  0.0
H  H70  1  0.27736586  0.59440286  0.15045299  1  0.156179  0.000797  0.104379  0.117017  0.000521  1.051181  0.0
H  H71  1  0.90570613  0.77745843  0.15049435  1  0.155651  0.000798  0.104598  0.117383  0.000518  1.050885  0.0
H  H72  1  0.22319138  0.09972255  0.84903547  1  0.114063  0.000888  0.104182  0.111621  0.000569  1.03598  0.0
H  H73  1  0.40014853  0.72286536  0.84900041  1  0.110882  0.000892  0.10434  0.111623  0.00057  1.036208  0.0
H  H74  1  0.77700975  0.90016941  0.84912946  1  0.112958  0.000889  0.104219  0.111666  0.00057  1.036002  0.0
H  H75  1  0.59971908  0.27680310  0.84904631  1  0.11417  0.000888  0.104248  0.111814  0.000569  1.03587  0.0
H  H76  1  0.71310830  0.46973108  0.04512256  1  0.135263  0.000746  0.113871  0.137614  0.000191  0.993992  0.0
H  H77  1  0.03033942  0.21265249  0.04519952  1  0.131733  0.000747  0.113756  0.13724  0.000191  0.99451  0.0
H  H78  1  0.28734027  0.53040175  0.04517547  1  0.131655  0.000747  0.113586  0.137059  0.000191  0.994745  0.0
H  H79  1  0.96965365  0.78733437  0.04525787  1  0.131958  0.000746  0.113827  0.13736  0.000191  0.994309  0.0
H  H80  1  0.20724222  0.03586828  0.95414576  1  0.109081  0.000856  0.111925  0.133148  0.000292  0.998984  0.0
H  H81  1  0.46399741  0.70665558  0.95405329  1  0.100707  0.000863  0.1119  0.133048  0.000293  0.999039  0.0
H  H82  1  0.79273684  0.96410408  0.95432904  1  0.106255  0.000854  0.112094  0.133126  0.00029  0.998968  0.0
H  H83  1  0.53586702  0.29270220  0.95417472  1  0.109172  0.000854  0.112132  0.133469  0.000291  0.998946  0.0
H  H84  1  0.72325380  0.58950897  0.97706590  1  0.106143  0.001838  0.119374  0.09114  0.000468  0.992815  0.001
H  H85  1  0.91055339  0.22293556  0.97711632  1  0.107214  0.00183  0.119123  0.090898  0.000461  0.993276  0.001
H  H86  1  0.27703389  0.41064511  0.97709433  1  0.106236  0.001829  0.119301  0.091288  0.000461  0.992993  0.001
H  H87  1  0.08938540  0.77702866  0.97713129  1  0.107597  0.001831  0.119255  0.091087  0.000463  0.992928  0.001
H  H88  1  0.21298406  0.91649603  0.02234778  1  0.105507  0.002349  0.115452  0.081752  0.000906  0.992964  0.002
H  H89  1  0.58332813  0.71251476  0.02235438  1  0.105123  0.002351  0.115672  0.082071  0.000907  0.993295  0.002
H  H90  1  0.78685261  0.08347502  0.02246292  1  0.103505  0.002352  0.115729  0.082289  0.000907  0.993332  0.002
H  H91  1  0.41649255  0.28697512  0.02233218  1  0.106056  0.002349  0.115498  0.081797  0.000908  0.99297  0.002
H  H92  1  0.77678208  0.71796542  0.14372131  1  0.170291  0.001792  0.11722  0.094345  0.000415  1.036292  0.001
H  H93  1  0.78224750  0.27686829  0.14369985  1  0.172314  0.001789  0.117462  0.094674  0.000413  1.036502  0.001
H  H94  1  0.22315172  0.28225429  0.14368194  1  0.172968  0.001787  0.117451  0.09477  0.000413  1.036362  0.001
H  H95  1  0.21780944  0.72320320  0.14372576  1  0.171451  0.001788  0.117332  0.094685  0.000413  1.036338  0.001
H  H96  1  0.26913150  0.78625922  0.85702927  1  0.126501  0.001791  0.117335  0.09231  0.000294  1.031513  0.001
H  H97  1  0.71349797  0.76932518  0.85714264  1  0.129355  0.001794  0.117551  0.092383  0.000299  1.031996  0.001
H  H98  1  0.73087974  0.21360568  0.85702470  1  0.128427  0.001788  0.117511  0.092503  0.000292  1.031257  0.001
H  H99  1  0.28624990  0.23086240  0.85696643  1  0.125877  0.001788  0.11734  0.092429  0.000292  1.03114  0.001
H  H100  1  0.77203949  0.60623638  0.21688213  1  0.131245  0.000662  0.113747  0.13868  0.000144  1.031898  0.0
H  H101  1  0.89392137  0.27189132  0.21688483  1  0.131261  0.000662  0.113748  0.138574  0.000144  1.032229  0.0
H  H102  1  0.22813931  0.39389603  0.21688447  1  0.131872  0.000661  0.113799  0.138648  0.000143  1.032013  0.0
H  H103  1  0.10619358  0.72818978  0.21693986  1  0.130622  0.00066  0.113734  0.138709  0.000142  1.032122  0.0
H  H104  1  0.26889662  0.89805252  0.78384870  1  0.144176  0.000692  0.113726  0.138476  0.000255  1.029761  0.0
H  H105  1  0.60177717  0.76895615  0.78389614  1  0.144588  0.000692  0.113934  0.138451  0.000255  1.02997  0.0
H  H106  1  0.73125387  0.10179878  0.78389161  1  0.144818  0.000691  0.1139  0.138517  0.000255  1.030728  0.0
H  H107  1  0.39804494  0.23105763  0.78381137  1  0.144001  0.000692  0.1138  0.138427  0.000255  1.029622  0.0
H  H108  1  0.91916701  0.82969263  0.84918314  1  0.076436  0.001083  0.108168  0.120279  0.000495  0.996689  0.001
H  H109  1  0.66980582  0.41910963  0.84916176  1  0.074436  0.001098  0.108354  0.120283  0.000504  0.997244  0.001
H  H110  1  0.08085569  0.16981392  0.84918537  1  0.074722  0.001096  0.108291  0.120366  0.000503  0.997152  0.001
H  H111  1  0.33005671  0.58078345  0.84927774  1  0.075054  0.001096  0.108372  0.120402  0.000502  0.996795  0.001
H  H112  1  0.42381313  0.66539004  0.15619639  1  0.067761  0.00131  0.10886  0.120796  0.000582  0.996932  0.001
H  H113  1  0.83465452  0.92407951  0.15618954  1  0.067397  0.001309  0.10918  0.121101  0.000581  0.99677  0.001
H  H114  1  0.57624186  0.33467135  0.15622130  1  0.066755  0.001312  0.108903  0.120808  0.000583  0.996639  0.001
H  H115  1  0.16538223  0.07624926  0.15619785  1  0.067343  0.00131  0.108873  0.120786  0.000581  0.996837  0.001
H  H116  1  0.94685261  0.65729704  0.86620865  1  0.093515  0.000401  0.10689  0.11154  0.000328  0.997216  0.0
H  H117  1  0.84218582  0.44693157  0.86618370  1  0.068944  0.000417  0.106829  0.111459  0.000333  0.996206  0.0
H  H118  1  0.05301174  0.34219242  0.86623707  1  0.098936  0.000412  0.106825  0.111351  0.000335  0.996394  0.0
H  H119  1  0.15768652  0.55290624  0.86627940  1  0.09773  0.00041  0.106815  0.111329  0.000334  0.996202  0.0
H  H120  1  0.45129888  0.83623402  0.12901550  1  0.122528  0.000623  0.10813  0.113925  0.000397  0.992774  0.0
H  H121  1  0.66382875  0.95162022  0.12893633  1  0.12783  0.000618  0.108125  0.113997  0.000394  0.992304  0.0
H  H122  1  0.54867860  0.16383566  0.12902392  1  0.123656  0.000622  0.108155  0.113764  0.000396  0.992422  0.0
H  H123  1  0.33622456  0.04872882  0.12901222  1  0.122322  0.000621  0.10818  0.113863  0.000396  0.992625  0.0
H  H124  1  0.03733784  0.60081002  0.78800441  1  0.069903  0.00108  0.103772  0.102943  0.000517  1.0099  0.0
H  H125  1  0.89859987  0.53712046  0.78816482  1  0.066544  0.001081  0.103995  0.103375  0.000515  1.010242  0.0
H  H126  1  0.96268184  0.39865859  0.78837512  1  0.0738  0.001077  0.104044  0.103417  0.000516  1.01002  0.0
H  H127  1  0.10125108  0.46260584  0.78834480  1  0.073641  0.001079  0.103896  0.103239  0.000516  1.009775  0.0
H  H128  1  0.53897142  0.89718741  0.21048794  1  0.053368  0.001115  0.103883  0.104388  0.000543  1.008854  0.0
H  H129  1  0.60296444  0.03903104  0.21043496  1  0.053862  0.001114  0.103874  0.104221  0.000543  1.009123  0.0
H  H130  1  0.46108918  0.10289218  0.21050652  1  0.054685  0.001116  0.103666  0.103951  0.000544  1.008832  0.0
H  H131  1  0.39716570  0.96109416  0.21053120  1  0.053431  0.001116  0.103762  0.104056  0.000543  1.008658  0.0
H  H132  1  0.14603318  0.61497483  0.70957542  1  0.102656  0.002042  0.113737  0.075121  0.000553  1.022323  0.001
H  H133  1  0.88470889  0.64585585  0.70967146  1  0.108967  0.002045  0.113742  0.074976  0.000556  1.022037  0.001
H  H134  1  0.85390174  0.38481329  0.70991012  1  0.080246  0.002019  0.113676  0.074964  0.000554  1.02193  0.001
H  H135  1  0.11515420  0.35391345  0.70982848  1  0.080638  0.002019  0.113631  0.075019  0.000553  1.022128  0.001
H  H136  1  0.64766065  0.88539165  0.28928544  1  0.096436  0.001987  0.114128  0.075968  0.000507  1.02093  0.001
H  H137  1  0.61470529  0.14768777  0.28929244  1  0.085116  0.00198  0.114001  0.075925  0.000506  1.020536  0.001
H  H138  1  0.35241182  0.11468939  0.28931904  1  0.083982  0.001982  0.114111  0.075997  0.000508  1.020386  0.001
H  H139  1  0.38534096  0.85242634  0.28935574  1  0.083413  0.00198  0.11406  0.076049  0.000508  1.020368  0.001
H  H140  1  0.14550247  0.84991662  0.72981693  1  0.119995  0.001686  0.121533  0.096435  0.000438  1.021301  0.001
H  H141  1  0.64976422  0.64564095  0.72965473  1  0.159321  0.001666  0.121779  0.097028  0.000436  1.020113  0.001
H  H142  1  0.85436991  0.14980757  0.72958792  1  0.15969  0.001665  0.121787  0.097053  0.000434  1.020198  0.001
H  H143  1  0.35013609  0.35440536  0.72961902  1  0.161074  0.001668  0.121865  0.096854  0.000436  1.020501  0.001
H  H144  1  0.64932217  0.65006445  0.27216643  1  0.160852  0.001639  0.122482  0.097714  0.000392  1.022603  0.001
H  H145  1  0.85000833  0.14949896  0.27219422  1  0.159638  0.001636  0.122091  0.097108  0.000391  1.023736  0.001
H  H146  1  0.35073418  0.35001315  0.27216021  1  0.159391  0.001642  0.122318  0.097447  0.000393  1.022854  0.001
H  H147  1  0.15002922  0.85077647  0.27219698  1  0.160642  0.001641  0.122371  0.097532  0.000393  1.022656  0.001
H  H148  1  0.03506230  0.84628812  0.80716165  1  0.068571  0.000883  0.113799  0.119862  0.000421  0.986551  0.0
H  H149  1  0.65314023  0.53518861  0.80705236  1  0.061866  0.000888  0.113835  0.12025  0.000422  0.985902  0.0
H  H150  1  0.96485128  0.15314225  0.80694584  1  0.062787  0.000887  0.113873  0.120427  0.000422  0.985873  0.0
H  H151  1  0.34675626  0.46480618  0.80701986  1  0.064094  0.000886  0.11384  0.120338  0.000422  0.986264  0.0
H  H152  1  0.53931809  0.65133349  0.19456021  1  0.088664  0.00084  0.113708  0.120125  0.000418  0.987622  0.0
H  H153  1  0.84877724  0.03950791  0.19457055  1  0.086071  0.000842  0.113828  0.120475  0.000418  0.987711  0.0
H  H154  1  0.46070897  0.34873179  0.19456425  1  0.088004  0.00084  0.113827  0.120491  0.000418  0.987929  0.0
H  H155  1  0.15134105  0.96075292  0.19457974  1  0.088733  0.000841  0.113709  0.120239  0.000418  0.988053  0.0
C  C156  1  0.37205706  0.25507513  0.61593156  1  1.486945  -0.004472  0.193332  0.590024  -0.00549  4.215069  -0.004
C  C157  1  0.24473711  0.87208900  0.61597064  1  1.485838  -0.004477  0.193283  0.590896  -0.00549  4.213031  -0.004
C  C158  1  0.62796322  0.74502160  0.61595496  1  1.485743  -0.004471  0.193094  0.590643  -0.00549  4.215761  -0.004
C  C159  1  0.75503803  0.12795528  0.61598289  1  1.486403  -0.004476  0.193389  0.590779  -0.005495  4.215206  -0.004
C  C160  1  0.87108872  0.24693838  0.38462031  1  1.475332  -0.004754  0.193111  0.588545  -0.005763  4.212568  -0.004
C  C161  1  0.25329659  0.37110026  0.38462963  1  1.474997  -0.004784  0.192827  0.588003  -0.005783  4.212674  -0.004
C  C162  1  0.12891527  0.75330207  0.38466239  1  1.475391  -0.004783  0.19254  0.587498  -0.005779  4.213279  -0.004
C  C163  1  0.74671137  0.62894122  0.38462427  1  1.475186  -0.004779  0.193024  0.588129  -0.005782  4.211838  -0.005
C  C164  1  0.44270851  0.25264480  0.57669263  1  -0.106652  -0.007347  -0.086685  -0.206198  -0.008234  3.87557  -0.004
C  C165  1  0.24725741  0.94273928  0.57672599  1  -0.114886  -0.007352  -0.086594  -0.206583  -0.008252  3.87658  -0.004
C  C166  1  0.55731954  0.74748285  0.57668656  1  -0.110691  -0.007374  -0.086513  -0.206378  -0.008261  3.876735  -0.004
C  C167  1  0.75260590  0.05730455  0.57674307  1  -0.10844  -0.007354  -0.086757  -0.206913  -0.008241  3.877234  -0.004
C  C168  1  0.94206939  0.24833742  0.42340950  1  -0.010449  -0.007484  -0.087583  -0.207575  -0.008341  3.878436  -0.004
C  C169  1  0.25184578  0.44208154  0.42339592  1  -0.111166  -0.007406  -0.087421  -0.207218  -0.008316  3.878401  -0.004
C  C170  1  0.05794610  0.75184705  0.42345592  1  -0.109418  -0.007393  -0.087414  -0.207401  -0.008299  3.877533  -0.004
C  C171  1  0.74813379  0.55795983  0.42341885  1  -0.110409  -0.007389  -0.087606  -0.207442  -0.008298  3.877232  -0.004
C  C172  1  0.44341633  0.26472782  0.51050349  1  0.021636  -0.0002  -0.074881  -0.083354  -0.001144  3.943591  0.001
C  C173  1  0.23527572  0.94345261  0.51052557  1  0.02127  -0.000201  -0.074836  -0.083181  -0.001147  3.944705  0.001
C  C174  1  0.55661218  0.73540196  0.51050456  1  0.015995  -0.000191  -0.0748  -0.083322  -0.001141  3.944894  0.001
C  C175  1  0.76462338  0.05659450  0.51055745  1  0.012985  -0.000201  -0.074637  -0.082957  -0.00115  3.945148  0.001
C  C176  1  0.94334261  0.23554352  0.48950644  1  -0.081839  -0.000307  -0.074196  -0.082781  -0.001293  3.943306  0.001
C  C177  1  0.26458232  0.44338930  0.48950252  1  0.027149  -0.000392  -0.073879  -0.08222  -0.001317  3.943105  0.001
C  C178  1  0.05667069  0.76457497  0.48955881  1  0.016047  -0.000387  -0.074166  -0.082573  -0.001316  3.942591  0.001
C  C179  1  0.73541673  0.55667046  0.48952995  1  0.017154  -0.000389  -0.074263  -0.082582  -0.001317  3.942573  0.001
C  C180  1  0.51135445  0.26070224  0.46922598  1  -0.01907  -0.013838  0.008319  0.146608  -0.014456  4.012017  -0.009
C  C181  1  0.23938860  0.01138374  0.46924058  1  -0.018343  -0.013861  0.008378  0.146305  -0.014478  4.011892  -0.009
C  C182  1  0.48867116  0.73943286  0.46921485  1  -0.018999  -0.013867  0.008217  0.146894  -0.014483  4.012048  -0.009
C  C183  1  0.76060452  0.98866071  0.46927274  1  -0.017653  -0.013854  0.00845  0.14718  -0.01447  4.01214  -0.009
C  C184  1  0.01154304  0.23963116  0.53051290  1  -0.017215  -0.013965  0.008132  0.145523  -0.014586  4.011844  -0.009
C  C185  1  0.26043796  0.51159797  0.53047934  1  0.027899  -0.013942  0.008034  0.144974  -0.014577  4.011869  -0.009
C  C186  1  0.98848052  0.76039764  0.53055995  1  -0.018033  -0.013941  0.008179  0.145266  -0.014561  4.011019  -0.009
C  C187  1  0.73952232  0.48845590  0.53051555  1  0.036335  -0.013921  0.007959  0.145223  -0.014556  4.011527  -0.009
C  C188  1  0.50758370  0.28033921  0.40151889  1  -0.041078  0.006545  -0.084787  -0.177051  0.002797  3.939443  0.005
C  C189  1  0.21983749  0.00762256  0.40151368  1  -0.0403  0.006548  -0.085112  -0.176916  0.002798  3.939157  0.005
C  C190  1  0.49242038  0.71988359  0.40149890  1  -0.040379  0.006551  -0.085012  -0.177203  0.002799  3.93944  0.005
C  C191  1  0.78016659  0.99245657  0.40156072  1  -0.041838  0.006545  -0.085085  -0.177739  0.002795  3.939263  0.005
C  C192  1  0.00807762  0.22037878  0.59829837  1  -0.033211  0.006516  -0.084542  -0.175043  0.002781  3.936806  0.005
C  C193  1  0.27959719  0.50812321  0.59829071  1  -0.076567  0.006488  -0.084321  -0.17441  0.002775  3.936669  0.005
C  C194  1  0.99196350  0.77962559  0.59835890  1  -0.018245  0.006488  -0.084222  -0.174453  0.002773  3.935496  0.005
C  C195  1  0.72028829  0.49193875  0.59830646  1  -0.092471  0.006489  -0.08431  -0.175072  0.002775  3.936334  0.005
C  C196  1  0.57257809  0.27661224  0.36238481  1  0.468878  -0.009051  0.036789  0.075281  -0.009556  3.989296  -0.005
C  C197  1  0.22359699  0.07262644  0.36236652  1  0.470419  -0.009068  0.036398  0.074559  -0.00957  3.989005  -0.005
C  C198  1  0.42739047  0.72361924  0.36237543  1  0.470314  -0.009079  0.036455  0.074461  -0.009584  3.989503  -0.005
C  C199  1  0.77646050  0.92744711  0.36243544  1  0.479696  -0.009064  0.036496  0.07497  -0.009557  3.988877  -0.005
C  C200  1  0.07307416  0.22510255  0.63739840  1  0.463284  -0.009298  0.037317  0.07497  -0.009811  3.986283  -0.005
C  C201  1  0.27481573  0.57310673  0.63738405  1  0.460402  -0.009275  0.037449  0.074729  -0.009791  3.986102  -0.005
C  C202  1  0.92699448  0.77483728  0.63746130  1  0.464118  -0.009271  0.037004  0.074821  -0.009784  3.986632  -0.005
C  C203  1  0.72504711  0.42695966  0.63741852  1  0.465454  -0.009269  0.036868  0.07486  -0.009782  3.986937  -0.005
C  C204  1  0.64465545  0.23400652  0.45153122  1  0.444665  -0.006522  0.043269  0.088184  -0.006957  3.93024  -0.003
C  C205  1  0.26614840  0.14471265  0.45152957  1  0.444032  -0.006528  0.043118  0.088348  -0.00697  3.928506  -0.003
C  C206  1  0.35534081  0.76615651  0.45153734  1  0.445581  -0.006525  0.04316  0.088209  -0.006964  3.929777  -0.003
C  C207  1  0.73396759  0.85531983  0.45157922  1  0.443362  -0.006524  0.042873  0.088402  -0.006966  3.929636  -0.003
C  C208  1  0.14470239  0.26743471  0.54793846  1  0.394358  -0.00651  0.04282  0.085462  -0.006954  3.931962  -0.003
C  C209  1  0.23258935  0.64476605  0.54788607  1  0.391632  -0.006501  0.042937  0.085381  -0.006947  3.932061  -0.003
C  C210  1  0.85534817  0.73251485  0.54798129  1  0.393073  -0.0065  0.042786  0.085716  -0.006943  3.931862  -0.003
C  C211  1  0.76740991  0.35533059  0.54797757  1  0.393181  -0.006492  0.042835  0.08577  -0.006937  3.932519  -0.003
C  C212  1  0.58270909  0.23711040  0.49381277  1  -0.021629  0.005958  -0.072246  -0.153291  0.002717  3.874514  0.005
C  C213  1  0.26297709  0.08275716  0.49382595  1  -0.020173  0.005956  -0.071841  -0.152742  0.002718  3.873385  0.005
C  C214  1  0.41730340  0.76298514  0.49381375  1  -0.021034  0.005959  -0.071942  -0.15292  0.002719  3.874474  0.005
C  C215  1  0.73706904  0.91727566  0.49385917  1  -0.021234  0.005953  -0.071743  -0.152914  0.002715  3.87436  0.005
C  C216  1  0.08274927  0.26338155  0.50568648  1  -0.014196  0.005868  -0.072608  -0.152323  0.002658  3.873522  0.005
C  C217  1  0.23669901  0.58281729  0.50563945  1  -0.009816  0.005862  -0.072573  -0.151653  0.002656  3.873473  0.005
C  C218  1  0.91728280  0.73660699  0.50572746  1  -0.014215  0.005845  -0.072788  -0.152864  0.002645  3.873896  0.005
C  C219  1  0.76332166  0.41726019  0.50570844  1  -0.011984  0.00585  -0.072528  -0.152628  0.002649  3.873475  0.005
C  C220  1  0.73830847  0.38460206  0.28276191  1  1.455515  -0.002162  0.18977  0.59061  -0.003153  4.201584  -0.004
C  C221  1  0.11555402  0.23836830  0.28274288  1  1.453534  -0.002135  0.189732  0.590934  -0.003138  4.200809  -0.004
C  C222  1  0.26164463  0.61554076  0.28274270  1  1.454404  -0.002138  0.18976  0.59101  -0.003136  4.200506  -0.004
C  C223  1  0.88452677  0.76163199  0.28276124  1  1.455249  -0.002138  0.189493  0.59014  -0.003136  4.201864  -0.004
C  C224  1  0.23834384  0.11893872  0.71678445  1  1.46086  -0.0028  0.188326  0.590278  -0.003611  4.209885  -0.003
C  C225  1  0.38095618  0.73838206  0.71677158  1  1.460985  -0.002755  0.188809  0.590955  -0.003572  4.209123  -0.003
C  C226  1  0.76177272  0.88100825  0.71684277  1  1.457596  -0.002792  0.188713  0.591261  -0.003607  4.209091  -0.003
C  C227  1  0.61893005  0.26165897  0.71679652  1  1.460804  -0.002794  0.18843  0.590346  -0.003605  4.209149  -0.003
C  C228  1  0.74248157  0.45597074  0.24436998  1  -0.047882  0.008259  -0.092168  -0.214267  0.004449  3.883852  0.005
C  C229  1  0.04415968  0.24241216  0.24436574  1  -0.048646  0.008319  -0.092117  -0.214406  0.004481  3.884231  0.005
C  C230  1  0.25760148  0.54416078  0.24435387  1  -0.048774  0.008336  -0.092225  -0.214658  0.00449  3.884432  0.005
C  C231  1  0.95590056  0.75752666  0.24439784  1  -0.048219  0.008329  -0.091977  -0.213948  0.004486  3.883552  0.005
C  C232  1  0.24151530  0.04801041  0.75558909  1  -0.044215  -0.006949  -0.093403  -0.217036  -0.007867  3.891524  -0.004
C  C233  1  0.45189758  0.74140080  0.75559004  1  -0.044121  -0.006873  -0.093313  -0.217326  -0.007784  3.889991  -0.004
C  C234  1  0.75868061  0.95192676  0.75567100  1  -0.040591  -0.007004  -0.093323  -0.217433  -0.007922  3.890725  -0.004
C  C235  1  0.54800073  0.25848847  0.75558859  1  -0.043852  -0.006952  -0.093235  -0.216853  -0.007867  3.891187  -0.004
C  C236  1  0.73485084  0.45833071  0.17764551  1  -0.0774  -0.002203  -0.075543  -0.083066  -0.002811  3.924504  -0.001
C  C237  1  0.04177804  0.23459798  0.17767259  1  -0.08649  -0.002194  -0.075808  -0.083639  -0.002804  3.925911  -0.001
C  C238  1  0.26539674  0.54180011  0.17765549  1  -0.086354  -0.002203  -0.075643  -0.083309  -0.002813  3.926338  -0.001
C  C239  1  0.95828655  0.76541368  0.17770784  1  -0.084365  -0.002213  -0.076035  -0.083955  -0.002817  3.925901  -0.001
C  C240  1  0.23355515  0.04648971  0.82227410  1  -0.049525  0.001868  -0.074797  -0.080492  0.000233  3.940095  0.002
C  C241  1  0.45339335  0.73330296  0.82226892  1  -0.049166  0.001869  -0.074979  -0.08042  0.000247  3.940181  0.002
C  C242  1  0.76665238  0.95340996  0.82237360  1  -0.052936  0.001868  -0.075049  -0.080632  0.000234  3.940337  0.002
C  C243  1  0.54648351  0.26643250  0.82228143  1  -0.050272  0.001872  -0.074958  -0.080836  0.000236  3.939942  0.002
C  C244  1  0.74052474  0.52738250  0.13749341  1  -0.001984  0.004027  0.010688  0.153174  0.00193  3.997795  0.003
C  C245  1  0.97270805  0.24022283  0.13753443  1  0.001948  0.00412  0.010726  0.152955  0.001979  3.999424  0.003
C  C246  1  0.25978117  0.47273936  0.13750718  1  0.000618  0.004137  0.010571  0.152728  0.001989  3.999466  0.003
C  C247  1  0.02733905  0.75979127  0.13758184  1  0.001953  0.004124  0.010654  0.152982  0.001981  3.999286  0.003
C  C248  1  0.23681173  0.97759476  0.86256605  1  -0.06113  -0.012852  0.006705  0.146159  -0.013429  4.009734  -0.008
C  C249  1  0.52228599  0.73654566  0.86256450  1  -0.059597  -0.012731  0.006275  0.145704  -0.013309  4.010859  -0.008
C  C250  1  0.76332780  0.02229790  0.86266460  1  -0.059029  -0.01287  0.007105  0.146911  -0.013451  4.010107  -0.008
C  C251  1  0.47759813  0.26316569  0.86256782  1  -0.061592  -0.012841  0.00671  0.146484  -0.013417  4.00906  -0.008
C  C252  1  0.72720064  0.52406111  0.06850422  1  -0.072008  0.000894  -0.079536  -0.176953  -8.6e-05  3.901465  0.001
C  C253  1  0.97602293  0.22679207  0.06857349  1  -0.072829  0.000884  -0.078725  -0.174879  -9.4e-05  3.900544  0.001
C  C254  1  0.27319180  0.47607723  0.06854335  1  -0.074435  0.000879  -0.078672  -0.175106  -9.9e-05  3.901063  0.001
C  C255  1  0.02399440  0.77322368  0.06861855  1  -0.071791  0.000879  -0.07889  -0.175187  -9.6e-05  3.900657  0.001
C  C256  1  0.22116881  0.98128523  0.93112195  1  0.040218  0.006473  -0.080993  -0.176659  0.002815  3.915683  0.005
C  C257  1  0.51857846  0.72073564  0.93109276  1  0.046838  0.006469  -0.080302  -0.175423  0.002821  3.916253  0.005
C  C258  1  0.77884878  0.01865938  0.93124338  1  0.043346  0.006459  -0.081096  -0.17691  0.00281  3.917124  0.005
C  C259  1  0.48129087  0.27879962  0.93113005  1  0.040151  0.00646  -0.081108  -0.177061  0.002809  3.916083  0.005
C  C260  1  0.73212501  0.59015108  0.03065765  1  0.444873  0.004534  0.046249  0.09293  0.002395  3.960696  0.003
C  C261  1  0.90993909  0.23179389  0.03071169  1  0.444939  0.00458  0.045992  0.091249  0.00242  3.961391  0.003
C  C262  1  0.26820025  0.40999761  0.03068819  1  0.447828  0.004595  0.04621  0.091632  0.002426  3.961791  0.003
C  C263  1  0.09004640  0.76820369  0.03073740  1  0.444078  0.004585  0.046006  0.091389  0.002423  3.961545  0.003
C  C264  1  0.22379817  0.91518011  0.96898103  1  0.385126  -0.008261  0.041379  0.085952  -0.008582  3.977841  -0.005
C  C265  1  0.58465343  0.72344124  0.96899072  1  0.3891  -0.008192  0.041107  0.085422  -0.008508  3.979341  -0.005
C  C266  1  0.77614065  0.08477125  0.96907112  1  0.386021  -0.008272  0.041101  0.08548  -0.008593  3.98039  -0.005
C  C267  1  0.41518731  0.27616064  0.96896461  1  0.384689  -0.008243  0.041339  0.086158  -0.008567  3.978665  -0.005
C  C268  1  0.76223167  0.66235484  0.12341137  1  0.391398  0.004487  0.04428  0.094517  0.002355  3.939883  0.003
C  C269  1  0.83779420  0.26210265  0.12341127  1  0.392579  0.004534  0.043886  0.093357  0.002379  3.941632  0.003
C  C270  1  0.23789515  0.33782049  0.12339676  1  0.390877  0.004546  0.043943  0.093584  0.002385  3.940909  0.003
C  C271  1  0.16224026  0.73791646  0.12344056  1  0.393973  0.004539  0.043972  0.093799  0.002381  3.941172  0.003
C  C272  1  0.25547826  0.84227710  0.87704055  1  0.399377  -0.007452  0.043525  0.092833  -0.008035  3.945326  -0.004
C  C273  1  0.65752559  0.75551365  0.87712863  1  0.398964  -0.00736  0.043185  0.09323  -0.007931  3.94464  -0.004
C  C274  1  0.74452975  0.15761111  0.87707475  1  0.398266  -0.00746  0.043323  0.093046  -0.00804  3.944606  -0.004
C  C275  1  0.34227205  0.24449940  0.87700850  1  0.399779  -0.007443  0.043647  0.092811  -0.008029  3.944104  -0.004
C  C276  1  0.75941933  0.59902483  0.16431245  1  0.032053  0.000995  -0.080567  -0.173683  5.2e-05  3.897206  0.001
C  C277  1  0.90109181  0.25919930  0.16433464  1  0.030516  0.000971  -0.080608  -0.17353  3.4e-05  3.89785  0.001
C  C278  1  0.24081408  0.40110757  0.16432751  1  0.032197  0.000963  -0.080574  -0.173654  2.8e-05  3.897568  0.001
C  C279  1  0.09897171  0.74081565  0.16437781  1  0.028659  0.000973  -0.080668  -0.173857  3.3e-05  3.897757  0.001
C  C280  1  0.25511689  0.90558477  0.83614916  1  0.007255  0.005707  -0.07934  -0.169698  0.002699  3.896183  0.005
C  C281  1  0.59427291  0.75502879  0.83617899  1  0.007171  0.005678  -0.079452  -0.169908  0.002685  3.896449  0.005
C  C282  1  0.74502568  0.09430020  0.83619789  1  0.006514  0.005703  -0.079679  -0.170356  0.002695  3.897169  0.005
C  C283  1  0.40558177  0.24484704  0.83612633  1  0.007629  0.005703  -0.079355  -0.169739  0.002698  3.895424  0.005
C  C284  1  0.84735992  0.75700270  0.91123357  1  1.528233  -0.007318  0.186407  0.580888  -0.008561  4.229506  -0.006
C  C285  1  0.74239594  0.34746314  0.91145486  1  1.523891  -0.007464  0.185948  0.579544  -0.008725  4.230996  -0.006
C  C286  1  0.15250243  0.24240606  0.91145378  1  1.524054  -0.007482  0.185955  0.579619  -0.008744  4.230218  -0.006
C  C287  1  0.25745733  0.65246785  0.91149020  1  1.522068  -0.007455  0.185935  0.579787  -0.008715  4.230518  -0.006
C  C288  1  0.35299232  0.73016506  0.08821636  1  1.536957  -0.007106  0.187333  0.582089  -0.008262  4.219583  -0.006
C  C289  1  0.76997491  0.85318436  0.08820024  1  1.53311  -0.007002  0.187447  0.582033  -0.00815  4.218796  -0.006
C  C290  1  0.64702397  0.26988940  0.08824945  1  1.536682  -0.00709  0.186916  0.581316  -0.008246  4.220547  -0.006
C  C291  1  0.23016681  0.14707307  0.08824075  1  1.538364  -0.007104  0.186963  0.581331  -0.008264  4.220123  -0.006
C  C292  1  0.91203386  0.77100534  0.86602974  1  0.005827  -0.010857  -0.081416  -0.187955  -0.011783  3.893692  -0.006
C  C293  1  0.72844485  0.41202812  0.86612509  1  0.002031  -0.010775  -0.081573  -0.187365  -0.01171  3.894613  -0.006
C  C294  1  0.08791768  0.22845676  0.86613840  1  0.003011  -0.010883  -0.081219  -0.18731  -0.011818  3.894141  -0.006
C  C295  1  0.27141152  0.58787069  0.86620542  1  0.003495  -0.010858  -0.081796  -0.188423  -0.011793  3.894593  -0.006
C  C296  1  0.41712327  0.72212316  0.13482602  1  -0.033404  -0.012632  -0.081687  -0.191265  -0.013692  3.899806  -0.007
C  C297  1  0.77794092  0.91732155  0.13480313  1  -0.02935  -0.012586  -0.081734  -0.190982  -0.013633  3.89928  -0.007
C  C298  1  0.58291016  0.27793321  0.13485237  1  -0.035351  -0.012616  -0.081458  -0.190707  -0.013676  3.899608  -0.007
C  C299  1  0.22212272  0.08293095  0.13483851  1  -0.033754  -0.012606  -0.081603  -0.191076  -0.013664  3.899804  -0.007
C  C300  1  0.95957986  0.71446917  0.84768014  1  -0.076461  -0.003618  -0.079585  -0.101286  -0.0046  3.98177  -0.001
C  C301  1  0.78496920  0.45958948  0.84772078  1  -0.079394  -0.003891  -0.079354  -0.101662  -0.004771  3.981096  -0.001
C  C302  1  0.04034619  0.28498099  0.84776260  1  -0.110367  -0.003868  -0.079604  -0.101793  -0.004764  3.981614  -0.001
C  C303  1  0.21490500  0.54025919  0.84782722  1  -0.112956  -0.00385  -0.0795  -0.101069  -0.004747  3.981073  -0.001
C  C304  1  0.46363901  0.78052101  0.15080341  1  -0.063966  -0.003547  -0.079084  -0.101239  -0.004648  3.980167  -0.001
C  C305  1  0.71956257  0.96384158  0.15073822  1  -0.06989  -0.00346  -0.079063  -0.101738  -0.004568  3.979847  -0.001
C  C306  1  0.53638178  0.21955708  0.15081996  1  -0.063149  -0.003527  -0.079168  -0.101004  -0.004625  3.980032  -0.001
C  C307  1  0.28050781  0.03639900  0.15080372  1  -0.063169  -0.003547  -0.078858  -0.100722  -0.004646  3.979813  -0.001
C  C308  1  0.02478828  0.72243202  0.80389945  1  0.011805  -0.015223  0.009665  0.147395  -0.015871  4.025849  -0.009
C  C309  1  0.77698145  0.52473216  0.80386379  1  0.053953  -0.015079  0.009787  0.148521  -0.015812  4.025219  -0.009
C  C310  1  0.97517995  0.27701270  0.80393395  1  0.054291  -0.015189  0.009841  0.148779  -0.01592  4.024806  -0.009
C  C311  1  0.22289843  0.47512134  0.80396960  1  0.056405  -0.015157  0.009749  0.148234  -0.015889  4.024753  -0.009
C  C312  1  0.52791469  0.77510568  0.19595960  1  -0.042399  -0.018165  0.007585  0.143865  -0.018935  4.031603  -0.011
C  C313  1  0.72501551  0.02806845  0.19593154  1  0.008829  -0.018133  0.007862  0.144702  -0.018878  4.031028  -0.011
C  C314  1  0.47210981  0.22498464  0.19595357  1  -0.046069  -0.018154  0.008021  0.143921  -0.018927  4.031088  -0.011
C  C315  1  0.27508938  0.97212450  0.19595382  1  -0.044431  -0.018133  0.00776  0.143915  -0.018902  4.031063  -0.011
C  C316  1  0.05887823  0.65743274  0.77580779  1  -0.062966  0.003992  -0.081824  -0.171985  0.001421  3.951713  0.004
C  C317  1  0.84205746  0.55873028  0.77583491  1  -0.067719  0.003917  -0.082236  -0.173102  0.001384  3.951589  0.004
C  C318  1  0.94110126  0.34211893  0.77599974  1  -0.077042  0.003938  -0.082794  -0.173844  0.001382  3.95133  0.004
C  C319  1  0.15781829  0.44105001  0.77598652  1  -0.079202  0.003941  -0.082319  -0.173366  0.001388  3.950649  0.004
C  C320  1  0.56111848  0.84099996  0.22334790  1  -0.024214  0.004211  -0.083477  -0.176447  0.001363  3.953997  0.004
C  C321  1  0.65912524  0.06119884  0.22334975  1  -0.050006  0.004219  -0.083371  -0.175973  0.001376  3.953578  0.004
C  C322  1  0.43893568  0.15908891  0.22336859  1  -0.023747  0.004219  -0.083488  -0.176053  0.001367  3.953415  0.004
C  C323  1  0.34096826  0.93895046  0.22339058  1  -0.023354  0.004206  -0.083633  -0.176266  0.001362  3.953295  0.004
C  C324  1  0.11964073  0.66484409  0.73232682  1  0.445125  -0.009681  0.043756  0.090709  -0.010071  3.973956  -0.005
C  C325  1  0.83478279  0.61952069  0.73236088  1  0.440436  -0.009642  0.043361  0.0906  -0.010021  3.973635  -0.005
C  C326  1  0.88029094  0.33486918  0.73254024  1  0.471868  -0.009687  0.044066  0.091462  -0.010087  3.972272  -0.005
C  C327  1  0.16509130  0.38027696  0.73249624  1  0.471934  -0.009675  0.044249  0.09165  -0.010075  3.972761  -0.005
C  C328  1  0.62186683  0.83487930  0.26709060  1  0.453095  -0.011499  0.04383  0.091921  -0.011896  3.973107  -0.006
C  C329  1  0.66521751  0.12192842  0.26710722  1  0.489192  -0.011452  0.043433  0.091048  -0.011871  3.972796  -0.006
C  C330  1  0.37819246  0.16519960  0.26709669  1  0.465617  -0.011483  0.043844  0.091852  -0.011886  3.972983  -0.006
C  C331  1  0.33484007  0.87820579  0.26712526  1  0.467784  -0.01146  0.04375  0.091625  -0.011866  3.972706  -0.006
C  C332  1  0.11829445  0.79624292  0.74333194  1  0.444489  -0.006655  0.046455  0.089794  -0.00708  3.952712  -0.003
C  C333  1  0.70338314  0.61836291  0.74322340  1  0.398532  -0.006602  0.046535  0.089798  -0.007053  3.950416  -0.003
C  C334  1  0.88158931  0.20343694  0.74322107  1  0.397163  -0.006658  0.046487  0.090176  -0.007108  3.951932  -0.003
C  C335  1  0.29650860  0.38160657  0.74323923  1  0.396043  -0.006639  0.046576  0.090382  -0.007088  3.952449  -0.003
C  C336  1  0.62172592  0.70328257  0.25796387  1  0.390708  -0.007952  0.045409  0.088493  -0.008429  3.954808  -0.004
C  C337  1  0.79680601  0.12185587  0.25798916  1  0.388512  -0.007921  0.04589  0.089577  -0.008399  3.954051  -0.004
C  C338  1  0.37833203  0.29679720  0.25796078  1  0.391467  -0.007951  0.045798  0.089181  -0.008435  3.954827  -0.004
C  C339  1  0.20325196  0.87836301  0.25799210  1  0.379037  -0.007962  0.045739  0.088805  -0.008423  3.954882  -0.004
C  C340  1  0.05691292  0.79328246  0.78632867  1  -0.002068  0.003545  -0.077241  -0.165962  0.001272  3.924213  0.004
C  C341  1  0.70620189  0.55694465  0.78621891  1  0.007915  0.003508  -0.077097  -0.167029  0.001249  3.923661  0.003
C  C342  1  0.94302540  0.20623239  0.78620844  1  0.008667  0.00351  -0.077187  -0.167641  0.001246  3.924543  0.003
C  C343  1  0.29368628  0.44298125  0.78627052  1  0.010267  0.003506  -0.077054  -0.167125  0.001247  3.924208  0.003
C  C344  1  0.56046784  0.70490725  0.21485281  1  0.011218  0.00339  -0.078112  -0.168683  0.001088  3.930097  0.004
C  C345  1  0.79519585  0.06062928  0.21484877  1  -0.037282  0.003429  -0.078324  -0.169863  0.0011  3.930479  0.004
C  C346  1  0.43955148  0.29516763  0.21483500  1  0.014433  0.003396  -0.078516  -0.169423  0.001092  3.930509  0.004
C  C347  1  0.20490215  0.93958814  0.21485543  1  0.023998  0.003405  -0.078014  -0.168777  0.001088  3.930928  0.004
N  N348  1  0.64058170  0.25351174  0.38653188  1  -1.218368  0.071663  -0.341245  -0.255321  0.038847  3.636547  0.054
N  N349  1  0.24668193  0.14065098  0.38650598  1  -1.219879  0.071631  -0.341101  -0.255428  0.038837  3.634903  0.054
N  N350  1  0.35938334  0.74668475  0.38652968  1  -1.21973  0.071637  -0.340966  -0.254851  0.038834  3.63514  0.054
N  N351  1  0.75341651  0.85941439  0.38656552  1  -1.22678  0.071638  -0.340863  -0.255248  0.038833  3.635172  0.054
N  N352  1  0.14084620  0.24873196  0.61312438  1  -1.224357  0.07079  -0.340874  -0.253468  0.03822  3.633327  0.054
N  N353  1  0.25122039  0.64088481  0.61308994  1  -1.221414  0.0708  -0.340925  -0.253318  0.038227  3.633032  0.054
N  N354  1  0.85922594  0.75119155  0.61317778  1  -1.223139  0.070701  -0.340614  -0.253275  0.038184  3.633201  0.054
N  N355  1  0.74869725  0.35919376  0.61315808  1  -1.223923  0.07076  -0.34064  -0.253164  0.038208  3.634364  0.054
N  N356  1  0.74870890  0.65887091  0.05733850  1  -1.258661  0.065148  -0.335015  -0.256816  0.034908  3.615874  0.047
N  N357  1  0.84126444  0.24856068  0.05735872  1  -1.256863  0.065152  -0.334521  -0.255257  0.034928  3.615297  0.047
N  N358  1  0.25143664  0.34131226  0.05733932  1  -1.25668  0.065153  -0.334796  -0.255854  0.034932  3.615506  0.047
N  N359  1  0.15874028  0.75144859  0.05737869  1  -1.256486  0.065158  -0.334493  -0.255815  0.034929  3.614984  0.047
N  N360  1  0.24012408  0.84611642  0.94281620  1  -1.213095  0.062971  -0.340714  -0.259067  0.034137  3.639349  0.049
N  N361  1  0.65367185  0.74004858  0.94288953  1  -1.216773  0.063114  -0.340602  -0.259873  0.034191  3.638069  0.049
N  N362  1  0.75981897  0.15380671  0.94287126  1  -1.214007  0.062912  -0.340809  -0.259428  0.034102  3.639773  0.049
N  N363  1  0.34612412  0.25985801  0.94278898  1  -1.212045  0.062925  -0.341011  -0.259703  0.034112  3.639027  0.049
N  N364  1  0.14983564  0.73309186  0.71591689  1  -1.211415  0.057384  -0.339326  -0.257238  0.03127  3.624067  0.045
N  N365  1  0.76661718  0.64984103  0.71589457  1  -1.206947  0.05728  -0.339462  -0.257185  0.031205  3.622895  0.045
N  N366  1  0.85003217  0.26669150  0.71597482  1  -1.210046  0.057224  -0.339663  -0.257705  0.031195  3.623151  0.045
N  N367  1  0.23328426  0.35006832  0.71595195  1  -1.211812  0.057245  -0.340008  -0.258218  0.031199  3.623931  0.045
N  N368  1  0.65284130  0.76721389  0.28435741  1  -1.198018  0.055833  -0.338568  -0.256915  0.030485  3.620528  0.044
N  N369  1  0.73286072  0.15294361  0.28437320  1  -1.196144  0.05585  -0.338327  -0.256352  0.030496  3.6196  0.044
N  N370  1  0.34722444  0.23286560  0.28435253  1  -1.197302  0.055875  -0.338859  -0.257191  0.030501  3.621024  0.044
N  N371  1  0.26717538  0.84723907  0.28438242  1  -1.198652  0.055869  -0.338696  -0.256854  0.030494  3.62035  0.044
O  O372  1  0.82569070  0.69039488  0.92667486  1  -1.148744  0.059839  -0.320395  -0.552802  0.030259  2.120169  0.053
O  O373  1  0.80902195  0.32601607  0.92714332  1  -1.144434  0.060502  -0.320466  -0.551828  0.030637  2.120145  0.053
O  O374  1  0.17394686  0.30903902  0.92713514  1  -1.143739  0.060549  -0.320621  -0.552019  0.030663  2.120229  0.053
O  O375  1  0.19083346  0.67393379  0.92714538  1  -1.142642  0.060403  -0.320282  -0.551853  0.030592  2.11986  0.053
O  O376  1  0.33795660  0.79549423  0.06158761  1  -1.135829  0.096846  -0.332767  -0.547165  0.050792  2.179346  0.079
O  O377  1  0.70464640  0.83811673  0.06156855  1  -1.133127  0.096965  -0.332915  -0.547361  0.050867  2.179006  0.079
O  O378  1  0.66206327  0.20454284  0.06166488  1  -1.134996  0.096802  -0.332985  -0.547305  0.050787  2.179928  0.079
O  O379  1  0.29550117  0.16208226  0.06163528  1  -1.136061  0.096716  -0.332632  -0.54704  0.050732  2.17936  0.079
O  O380  1  0.30742180  0.26661269  0.58669561  1  -1.150327  0.097596  -0.321387  -0.548777  0.050753  2.29692  0.079
O  O381  1  0.23319443  0.80745085  0.58674276  1  -1.151396  0.097643  -0.321525  -0.548959  0.050774  2.295705  0.079
O  O382  1  0.69260094  0.73352204  0.58672244  1  -1.149803  0.097651  -0.321174  -0.548864  0.050801  2.297313  0.079
O  O383  1  0.76652674  0.19260520  0.58675472  1  -1.15006  0.097654  -0.3213  -0.548846  0.050796  2.297028  0.079
O  O384  1  0.80651809  0.23540917  0.41381985  1  -1.144482  0.097297  -0.319195  -0.546459  0.050609  2.292244  0.079
O  O385  1  0.26496791  0.30652748  0.41380201  1  -1.14542  0.097261  -0.319347  -0.546265  0.050594  2.291213  0.079
O  O386  1  0.19350282  0.76495405  0.41383200  1  -1.146506  0.097241  -0.319224  -0.546049  0.050589  2.291391  0.079
O  O387  1  0.73509516  0.69351933  0.41379821  1  -1.146384  0.097268  -0.319388  -0.546235  0.050598  2.291365  0.079
O  O388  1  0.37407623  0.24478129  0.67834651  1  -1.133262  0.052733  -0.304444  -0.542692  0.026927  2.174485  0.046
O  O389  1  0.25493638  0.87409514  0.67839700  1  -1.132451  0.052715  -0.304301  -0.543033  0.0269  2.173909  0.046
O  O390  1  0.62593881  0.75524901  0.67837331  1  -1.13237  0.052715  -0.304467  -0.543063  0.02692  2.174674  0.046
O  O391  1  0.74477994  0.12592717  0.67840373  1  -1.133288  0.052744  -0.304553  -0.542991  0.026933  2.174176  0.046
O  O392  1  0.87260473  0.25828022  0.32225479  1  -1.13487  0.055515  -0.304395  -0.541917  0.028242  2.183401  0.048
O  O393  1  0.24184210  0.37262254  0.32227414  1  -1.133644  0.055604  -0.304239  -0.541836  0.028287  2.183012  0.048
O  O394  1  0.12738511  0.74185107  0.32231181  1  -1.133756  0.055575  -0.303997  -0.541447  0.028267  2.183775  0.048
O  O395  1  0.75817225  0.62743635  0.32227309  1  -1.133494  0.05559  -0.304105  -0.541669  0.02828  2.182997  0.048
O  O396  1  0.74878932  0.38537220  0.34517390  1  -1.124763  0.065377  -0.30638  -0.538407  0.033043  2.146771  0.057
O  O397  1  0.11482374  0.24889393  0.34514941  1  -1.123383  0.065378  -0.306448  -0.538541  0.033057  2.14622  0.057
O  O398  1  0.25113403  0.61476804  0.34514960  1  -1.123623  0.065346  -0.306307  -0.538455  0.033041  2.146361  0.057
O  O399  1  0.88528488  0.75113913  0.34517311  1  -1.124339  0.065381  -0.306286  -0.538354  0.033054  2.146908  0.057
O  O400  1  0.24875232  0.11770747  0.65439097  1  -1.129916  0.062275  -0.307405  -0.539553  0.031479  2.141159  0.055
O  O401  1  0.38218998  0.74891945  0.65439760  1  -1.130336  0.062183  -0.30738  -0.539518  0.03142  2.141562  0.055
O  O402  1  0.75137688  0.88231734  0.65444565  1  -1.127552  0.062162  -0.307739  -0.540393  0.031428  2.141162  0.055
O  O403  1  0.61768553  0.25126383  0.65439977  1  -1.129324  0.062217  -0.30752  -0.539653  0.031459  2.140827  0.055
O  O404  1  0.72515809  0.32000833  0.25324639  1  -1.129774  0.11246  -0.326114  -0.540854  0.058073  2.231257  0.091
O  O405  1  0.18012439  0.22527698  0.25318115  1  -1.130862  0.112426  -0.325983  -0.54087  0.058093  2.230747  0.091
O  O406  1  0.27472842  0.68014741  0.25321523  1  -1.131551  0.112421  -0.326152  -0.541035  0.058088  2.230777  0.091
O  O407  1  0.81993941  0.77477501  0.25322238  1  -1.130577  0.112441  -0.325966  -0.540557  0.058078  2.231052  0.091
O  O408  1  0.22569351  0.18367471  0.74619218  1  -1.132271  0.11009  -0.328068  -0.543158  0.057013  2.236694  0.089
O  O409  1  0.31622021  0.72573427  0.74619060  1  -1.133185  0.110112  -0.328322  -0.543445  0.057029  2.236132  0.089
O  O410  1  0.77432998  0.81624565  0.74625108  1  -1.13243  0.109998  -0.328099  -0.543014  0.056963  2.235689  0.089
O  O411  1  0.68366075  0.27430581  0.74623428  1  -1.132373  0.1101  -0.328159  -0.54315  0.057015  2.236138  0.089
O  O412  1  0.81381446  0.81608366  0.93613442  1  -1.129103  0.095515  -0.317709  -0.535104  0.04982  2.237702  0.079
O  O413  1  0.68337513  0.31374576  0.93625107  1  -1.132655  0.095353  -0.317167  -0.534661  0.049746  2.237898  0.078
O  O414  1  0.18623209  0.18339443  0.93626748  1  -1.132718  0.095307  -0.317189  -0.534715  0.049717  2.237206  0.078
O  O415  1  0.31650669  0.68616504  0.93628587  1  -1.130618  0.095297  -0.31716  -0.534413  0.049711  2.237145  0.078
O  O416  1  0.31308758  0.67192474  0.07409813  1  -1.148185  0.060891  -0.300856  -0.530879  0.030893  2.194476  0.054
O  O417  1  0.82820088  0.81330046  0.07409193  1  -1.148342  0.060643  -0.301253  -0.531316  0.03073  2.193425  0.054
O  O418  1  0.68689042  0.32813473  0.07407891  1  -1.148015  0.060893  -0.300527  -0.530378  0.030886  2.194135  0.054
O  O419  1  0.17192991  0.18697110  0.07410548  1  -1.149397  0.060888  -0.300867  -0.530637  0.030901  2.194261  0.054
