# generated using pymatgen
data_ScH18(C5O2)3
_symmetry_space_group_name_H-M   'P 1'
_cell_length_a   9.00985009
_cell_length_b   17.62387536
_cell_length_c   31.24035609
_cell_angle_alpha   87.89896142
_cell_angle_beta   81.71136698
_cell_angle_gamma   75.19061825
_symmetry_Int_Tables_number   1
_chemical_formula_structural   ScH18(C5O2)3
_chemical_formula_sum   'Sc12 H216 C180 O72'
_cell_volume   4745.72945121
_cell_formula_units_Z   12
loop_
 _symmetry_equiv_pos_site_id
 _symmetry_equiv_pos_as_xyz
  1  'x, y, z'
loop_
 _atom_site_type_symbol
 _atom_site_label
 _atom_site_symmetry_multiplicity
 _atom_site_fract_x
 _atom_site_fract_y
 _atom_site_fract_z
 _atom_site_occupancy
 _atom_site_pbe_bader_charge
 _atom_site_pbe_bader_spin_density
 _atom_site_pbe_cm5_charge
 _atom_site_pbe_ddec_charge
 _atom_site_pbe_ddec_spin_density
 _atom_site_pbe_ddec_sum_bond_order
 _atom_site_pbe_magmom
Sc  Sc0  1  0.75659574  0.14849825  0.83340976  1  2.148396  0  1.259497  1.846905  0  2.194871  0
Sc  Sc1  1  0.09519397  0.14845080  0.16663680  1  2.147712  0  1.260553  1.848706  0  2.192764  0
Sc  Sc2  1  0.83957020  0.64856423  0.66664940  1  2.151603  0  1.259795  1.847524  0  2.194015  0
Sc  Sc3  1  0.51160098  0.64847510  0.33338598  1  2.1468  0  1.260162  1.84826  0  2.193662  0
Sc  Sc4  1  0.23831983  0.19257431  0.83339427  1  2.149425  0  1.257187  1.846227  0  2.193555  0
Sc  Sc5  1  0.56945203  0.19249195  0.16654399  1  2.149787  0  1.257129  1.846568  0  2.192053  0
Sc  Sc6  1  0.32146934  0.69242373  0.66664679  1  2.14944  0  1.256974  1.845372  0  2.193838  0
Sc  Sc7  1  0.98581918  0.69238186  0.33334764  1  2.148126  0  1.256818  1.846084  0  2.192351  0
Sc  Sc8  1  0.42631108  0.14732212  0.49997674  1  2.149235  0  1.263634  1.853537  0  2.197395  0
Sc  Sc9  1  0.17624786  0.64749206  0.00002742  1  2.151293  0  1.263611  1.851852  0  2.198524  0
Sc  Sc10  1  0.90402502  0.19195609  0.50006638  1  2.152262  0  1.263338  1.852316  0  2.181645  0
Sc  Sc11  1  0.65394432  0.69199054  0.99999932  1  2.151143  0  1.264029  1.852639  0  2.181886  0
H  H12  1  0.83480404  0.14550863  0.70990261  1  0.098064  0  0.112316  0.112293  0  1.01444  0
H  H13  1  0.01991498  0.14548329  0.29010877  1  0.104146  0  0.111489  0.111061  0  1.014581  0
H  H14  1  0.79456967  0.64543248  0.79015318  1  0.102758  0  0.112974  0.112601  0  1.014208  0
H  H15  1  0.56012216  0.64539150  0.20991204  1  0.100186  0  0.112563  0.111623  0  1.014113  0
H  H16  1  0.86499759  0.15904848  0.62898805  1  0.117933  0  0.111872  0.112083  0  1.016422  0
H  H17  1  0.97640752  0.15899262  0.37102065  1  0.112825  0  0.112081  0.111963  0  1.015361  0
H  H18  1  0.74374475  0.65889274  0.87108415  1  0.113652  0  0.111441  0.111032  0  1.015972  0
H  H19  1  0.59754902  0.65897774  0.12898930  1  0.116661  0  0.111593  0.110677  0  1.01637  0
H  H20  1  0.34921126  0.14426593  0.62642818  1  0.097856  0  0.111873  0.109184  0  1.011759  0
H  H21  1  0.50697088  0.14416533  0.37365506  1  0.107187  0  0.11194  0.109086  0  1.012348  0
H  H22  1  0.22533502  0.64422142  0.87367195  1  0.109322  0  0.112676  0.110072  0  1.011931  0
H  H23  1  0.13067932  0.64428685  0.12634106  1  0.101436  0  0.111659  0.108945  0  1.01219  0
H  H24  1  0.31665359  0.13656880  0.70765230  1  0.108326  0  0.111524  0.1107  0  1.009744  0
H  H25  1  0.54705125  0.13641914  0.29244656  1  0.090331  0  0.111929  0.110251  0  1.010641  0
H  H26  1  0.27410931  0.63654099  0.79246199  1  0.091811  0  0.111918  0.11027  0  1.009194  0
H  H27  1  0.08951823  0.63646762  0.20754461  1  0.08078  0  0.11201  0.110298  0  1.00892  0
H  H28  1  0.11569256  0.92285971  0.61790192  1  0.098788  0  0.112211  0.114164  0  1.019141  0
H  H29  1  0.96111811  0.92303509  0.38202872  1  0.11967  0  0.112661  0.114831  0  1.02011  0
H  H30  1  0.98353907  0.42285814  0.88225502  1  0.09692  0  0.112887  0.114678  0  1.019814  0
H  H31  1  0.59374408  0.42271785  0.11777749  1  0.074901  0  0.112112  0.114383  0  1.020976  0
H  H32  1  0.99396730  0.03419262  0.57192387  1  0.101084  0  0.110361  0.108465  0  1.02495  0
H  H33  1  0.97163784  0.03438427  0.42798914  1  0.077222  0  0.109967  0.108383  0  1.024807  0
H  H34  1  0.81577025  0.53414378  0.92827965  1  0.074608  0  0.109568  0.107217  0  1.024633  0
H  H35  1  0.64995111  0.53406941  0.07180059  1  0.098075  0  0.109853  0.108462  0  1.023669  0
H  H36  1  0.61025008  0.93273469  0.56853121  1  0.118977  0  0.111487  0.113929  0  1.023644  0
H  H37  1  0.45674937  0.93278575  0.43140758  1  0.137135  0  0.111761  0.114266  0  1.024268  0
H  H38  1  0.42866675  0.43272367  0.93152429  1  0.124732  0  0.111891  0.114895  0  1.023304  0
H  H39  1  0.13855320  0.43296240  0.06858400  1  0.10255  0  0.11102  0.113387  0  1.025798  0
H  H40  1  0.73262333  0.82113354  0.61428928  1  0.103374  0  0.109767  0.107722  0  1.036151  0
H  H41  1  0.44578890  0.82110997  0.38570639  1  0.117122  0  0.109343  0.10677  0  1.035021  0
H  H42  1  0.59693138  0.32111644  0.88575855  1  0.113158  0  0.109125  0.106575  0  1.036126  0
H  H43  1  0.08216299  0.32130150  0.11432056  1  0.109488  0  0.10963  0.107604  0  1.034771  0
H  H44  1  0.78507192  0.91723293  0.78655991  1  0.101243  0  0.111819  0.11427  0  1.026002  0
H  H45  1  0.29768266  0.91727704  0.21343073  1  0.099633  0  0.111467  0.114332  0  1.026465  0
H  H46  1  0.82173695  0.41737315  0.71359595  1  0.115307  0  0.112382  0.115296  0  1.025253  0
H  H47  1  0.76121841  0.41700989  0.28640516  1  0.108896  0  0.111592  0.114111  0  1.026408  0
H  H48  1  0.29146294  0.00286233  0.79227430  1  0.108122  0  0.11007  0.112869  0  1.008349  0
H  H49  1  0.70619458  0.00249012  0.20764749  1  0.080674  0  0.110692  0.113693  0  1.009432  0
H  H50  1  0.33390671  0.50250078  0.70765035  1  0.094617  0  0.110415  0.113035  0  1.00817  0
H  H51  1  0.16337067  0.50265580  0.29230800  1  0.089014  0  0.109964  0.112644  0  1.009521  0
H  H52  1  0.28473502  0.88562608  0.75079131  1  0.127275  0  0.111543  0.112572  0  1.025829  0
H  H53  1  0.82962286  0.88531821  0.24924421  1  0.104446  0  0.11192  0.112782  0  1.025426  0
H  H54  1  0.28592886  0.38525119  0.74915673  1  0.114441  0  0.112017  0.112833  0  1.025447  0
H  H55  1  0.32894684  0.38549481  0.25079546  1  0.136145  0  0.112612  0.113397  0  1.024949  0
H  H56  1  0.77853922  0.79952102  0.74535571  1  0.085907  0  0.111145  0.113431  0  1.004497  0
H  H57  1  0.42143449  0.79962701  0.25473471  1  0.084137  0  0.110364  0.112307  0  1.003735  0
H  H58  1  0.77428101  0.29961407  0.75478726  1  0.090526  0  0.110823  0.112782  0  1.004555  0
H  H59  1  0.92680696  0.29939175  0.24515207  1  0.092457  0  0.110822  0.113281  0  1.005411  0
H  H60  1  0.94767061  0.94289952  0.89630586  1  0.108779  0  0.113129  0.11529  0  1.020017  0
H  H61  1  0.10944173  0.94279238  0.10372242  1  0.115801  0  0.112983  0.114749  0  1.020052  0
H  H62  1  0.09353380  0.44272267  0.60364214  1  0.116472  0  0.114092  0.115605  0  1.019238  0
H  H63  1  0.46318381  0.44285193  0.39631358  1  0.11584  0  0.11373  0.115691  0  1.018541  0
H  H64  1  0.07598511  0.81934517  0.93273964  1  0.087096  0  0.111489  0.110754  0  1.006398  0
H  H65  1  0.10456794  0.81925858  0.06723820  1  0.088976  0  0.111569  0.111265  0  1.007776  0
H  H66  1  0.25837342  0.31911304  0.56723111  1  0.081799  0  0.11083  0.110794  0  1.007016  0
H  H67  1  0.42197011  0.31930511  0.43278197  1  0.103122  0  0.110708  0.110858  0  1.006268  0
H  H68  1  0.43854821  0.92397852  0.95588908  1  0.10307  0  0.11198  0.112039  0  1.026009  0
H  H69  1  0.63759992  0.92411073  0.04398365  1  0.095359  0  0.112306  0.11212  0  1.024873  0
H  H70  1  0.64410536  0.42372948  0.54418771  1  0.107917  0  0.111673  0.111747  0  1.025874  0
H  H71  1  0.93160832  0.42392533  0.45581635  1  0.096201  0  0.112066  0.113233  0  1.025069  0
H  H72  1  0.31021411  0.04745180  0.91945310  1  0.094852  0  0.109801  0.107426  0  1.015804  0
H  H73  1  0.64260188  0.04756732  0.08044552  1  0.09104  0  0.109387  0.106273  0  1.015806  0
H  H74  1  0.47927662  0.54723464  0.58058960  1  0.092181  0  0.109793  0.107807  0  1.016043  0
H  H75  1  0.97294540  0.54736769  0.41938007  1  0.097144  0  0.109425  0.10705  0  1.015227  0
H  H76  1  0.18074756  0.20922919  0.95801662  1  0.107557  0  0.111983  0.110742  0  1.016221  0
H  H77  1  0.60940579  0.20922159  0.04195090  1  0.084635  0  0.111974  0.110172  0  1.016253  0
H  H78  1  0.38882271  0.70907946  0.54187266  1  0.109992  0  0.112355  0.110597  0  1.015349  0
H  H79  1  0.90165140  0.70910359  0.45810514  1  0.089087  0  0.111804  0.110338  0  1.015886  0
H  H80  1  0.13500717  0.20721669  0.03909453  1  0.096897  0  0.113575  0.116887  0  0.994337  0
H  H81  1  0.65723847  0.20705296  0.96087785  1  0.060443  0  0.114589  0.117887  0  0.992413  0
H  H82  1  0.42450168  0.70704685  0.46079845  1  0.076735  0  0.113504  0.117291  0  0.993544  0
H  H83  1  0.86813105  0.70685295  0.53917452  1  0.082404  0  0.113645  0.117454  0  0.993502  0
H  H84  1  0.96951500  0.98222239  0.74967368  1  0.03734  0  0.081459  0.158052  0  1.044012  0
H  H85  1  0.04855480  0.98210522  0.25024689  1  0.043187  0  0.081421  0.157529  0  1.044435  0
H  H86  1  0.96989873  0.48213781  0.75023363  1  0.042114  0  0.081441  0.157826  0  1.043961  0
H  H87  1  0.54836405  0.48212568  0.24970413  1  0.047139  0  0.081515  0.158025  0  1.043775  0
H  H88  1  0.04711158  0.88598147  0.72625535  1  0.033043  0  0.082347  0.157734  0  1.033859  0
H  H89  1  0.06716780  0.88586395  0.27364157  1  0.020247  0  0.082046  0.157184  0  1.034563  0
H  H90  1  0.02404175  0.38591567  0.77366138  1  0.031535  0  0.082243  0.15799  0  1.033774  0
H  H91  1  0.59020451  0.38592138  0.22625018  1  0.025696  0  0.082309  0.157782  0  1.034477  0
H  H92  1  0.89231569  0.95427039  0.70509980  1  0.025825  0  0.078682  0.151933  0  1.058744  0
H  H93  1  0.15369240  0.95414365  0.29481692  1  0.032447  0  0.077763  0.150627  0  1.060058  0
H  H94  1  0.84804686  0.45421730  0.79478664  1  0.002037  0  0.078332  0.151344  0  1.059281  0
H  H95  1  0.69810937  0.45413262  0.20514499  1  0.017649  0  0.078516  0.151704  0  1.058786  0
H  H96  1  0.08181349  0.97021431  0.69721536  1  0.022739  0  0.079071  0.153112  0  1.052613  0
H  H97  1  0.94825623  0.97010699  0.30269742  1  0.045307  0  0.07863  0.153245  0  1.05311  0
H  H98  1  0.02958786  0.47018747  0.80270979  1  0.02747  0  0.078777  0.15327  0  1.052895  0
H  H99  1  0.50057134  0.47023665  0.19722389  1  0.036615  0  0.078937  0.153783  0  1.054059  0
H  H100  1  0.61763997  0.99333115  0.69381281  1  0.01803  0  0.081464  0.154189  0  1.047814  0
H  H101  1  0.38858305  0.99331073  0.30621310  1  0.0241  0  0.081413  0.153663  0  1.0487  0
H  H102  1  0.56177363  0.49292697  0.80629638  1  0.011648  0  0.080834  0.152829  0  1.049376  0
H  H103  1  0.94507451  0.49286139  0.19372825  1  0.04919  0  0.081179  0.153603  0  1.048856  0
H  H104  1  0.60950959  0.09166351  0.70817522  1  0.01439  0  0.08434  0.157415  0  1.015729  0
H  H105  1  0.29837420  0.09161196  0.29182338  1  0.019783  0  0.083336  0.157068  0  1.015896  0
H  H106  1  0.56792962  0.59126106  0.79192152  1  0.02142  0  0.083594  0.156773  0  1.015825  0
H  H107  1  0.84058863  0.59118501  0.20813082  1  0.028091  0  0.083512  0.156983  0  1.015411  0
H  H108  1  0.54965142  0.07198837  0.65827210  1  0.00705  0  0.081988  0.15382  0  1.043957  0
H  H109  1  0.37778978  0.07202587  0.34174891  1  0.012043  0  0.082144  0.154049  0  1.041475  0
H  H110  1  0.45815302  0.57160403  0.84183206  1  0.009658  0  0.081702  0.153631  0  1.041242  0
H  H111  1  0.97011142  0.57155910  0.15823635  1  0.025573  0  0.081625  0.153211  0  1.042705  0
H  H112  1  0.74968703  0.04360360  0.66468518  1  0.063313  0  0.080113  0.150422  0  1.057546  0
H  H113  1  0.20620846  0.04358500  0.33530781  1  0.036368  0  0.080285  0.150438  0  1.057233  0
H  H114  1  0.66459921  0.54325281  0.83541808  1  0.060241  0  0.079971  0.150063  0  1.058892  0
H  H115  1  0.79199093  0.54322202  0.16459468  1  0.040335  0  0.079793  0.149365  0  1.058932  0
H  H116  1  0.33626729  0.97375895  0.68173603  1  0.010703  0  0.076695  0.145248  0  1.061272  0
H  H117  1  0.69054939  0.97367217  0.31821956  1  0.03804  0  0.07651  0.145163  0  1.062016  0
H  H118  1  0.26777102  0.47368353  0.81815918  1  0.008807  0  0.076641  0.145078  0  1.06219  0
H  H119  1  0.25909801  0.47373243  0.18181249  1  0.004067  0  0.077367  0.145079  0  1.061794  0
H  H120  1  0.50403989  0.91081178  0.65263279  1  0.038609  0  0.078067  0.149475  0  1.051204  0
H  H121  1  0.58572097  0.91077036  0.34735218  1  0.037228  0  0.078726  0.149277  0  1.050598  0
H  H122  1  0.40624461  0.41072311  0.84730733  1  0.029142  0  0.078746  0.149971  0  1.051321  0
H  H123  1  0.18363284  0.41086029  0.15258398  1  0.026014  0  0.07834  0.149827  0  1.053084  0
H  H124  1  0.36131335  0.97287316  0.62408158  1  0.018569  0  0.080914  0.153633  0  1.03751  0
H  H125  1  0.66663894  0.97277259  0.37587438  1  0.019127  0  0.080019  0.15361  0  1.037234  0
H  H126  1  0.23483676  0.47277278  0.87581073  1  0.013395  0  0.080296  0.153553  0  1.038001  0
H  H127  1  0.29312870  0.47290476  0.12416130  1  0.034368  0  0.080471  0.153753  0  1.037724  0
H  H128  1  0.31973093  0.88992108  0.65397613  1  0.060068  0  0.086933  0.158385  0  1.053749  0
H  H129  1  0.79095536  0.88979453  0.34593075  1  0.052073  0  0.085848  0.157407  0  1.053735  0
H  H130  1  0.22333103  0.38983603  0.84585700  1  0.027765  0  0.085075  0.156632  0  1.054013  0
H  H131  1  0.38739810  0.38989202  0.15408751  1  0.027034  0  0.08593  0.157475  0  1.053718  0
H  H132  1  0.03601691  0.89804042  0.81123157  1  0.058623  0  0.083589  0.15719  0  1.023629  0
H  H133  1  0.06616438  0.89819163  0.18869451  1  -0.00903  0  0.084117  0.157825  0  1.023056  0
H  H134  1  0.09666989  0.39811851  0.68853190  1  -0.007865  0  0.084213  0.157578  0  1.022395  0
H  H135  1  0.50500817  0.39794375  0.31128417  1  -0.005029  0  0.084451  0.157772  0  1.022376  0
H  H136  1  0.96135592  0.81276501  0.81782616  1  0.046761  0  0.079482  0.151117  0  1.052717  0
H  H137  1  0.22609771  0.81290362  0.18213372  1  0.042937  0  0.079609  0.151824  0  1.053647  0
H  H138  1  0.02867999  0.31278001  0.68203100  1  0.056007  0  0.079641  0.152055  0  1.053118  0
H  H139  1  0.65831634  0.31264983  0.31786301  1  0.059853  0  0.079872  0.151783  0  1.052962  0
H  H140  1  0.12475694  0.81719012  0.84276696  1  0.03265  0  0.078154  0.149393  0  1.057857  0
H  H141  1  0.05835600  0.81730175  0.15715863  1  0.030491  0  0.079246  0.150515  0  1.057287  0
H  H142  1  0.21695898  0.31719552  0.65703433  1  0.030378  0  0.078661  0.149986  0  1.058238  0
H  H143  1  0.46557145  0.31710954  0.34282654  1  0.024318  0  0.079156  0.1502  0  1.057208  0
H  H144  1  0.14398196  0.80741153  0.78547871  1  0.047679  0  0.082202  0.152336  0  1.045585  0
H  H145  1  0.04874877  0.80759087  0.21444635  1  0.022532  0  0.082503  0.1523  0  1.045539  0
H  H146  1  0.17903126  0.30758083  0.71432790  1  0.022193  0  0.082121  0.15189  0  1.046344  0
H  H147  1  0.51330578  0.30732575  0.28553588  1  0.054801  0  0.082498  0.152209  0  1.04623  0
H  H148  1  0.56942270  0.74552394  0.83002654  1  0.025437  0  0.078638  0.146275  0  1.062362  0
H  H149  1  0.68531305  0.74548507  0.17007152  1  0.031923  0  0.078859  0.146473  0  1.062609  0
H  H150  1  0.64926305  0.24569057  0.67003293  1  0.034694  0  0.079034  0.146355  0  1.060286  0
H  H151  1  0.10520264  0.24587552  0.33013109  1  0.029968  0  0.078368  0.145964  0  1.06272  0
H  H152  1  0.37803491  0.73677979  0.82748772  1  0.039689  0  0.081305  0.15123  0  1.050217  0
H  H153  1  0.88545311  0.73670766  0.17263506  1  0.029322  0  0.080656  0.150599  0  1.049168  0
H  H154  1  0.45535649  0.23690388  0.67256450  1  0.037132  0  0.081814  0.151444  0  1.049587  0
H  H155  1  0.30790092  0.23711013  0.32754716  1  0.033177  0  0.080846  0.150315  0  1.050863  0
H  H156  1  0.45555975  0.72042878  0.87766476  1  0.014931  0  0.083273  0.158601  0  1.015066  0
H  H157  1  0.82435653  0.72032210  0.12244948  1  0.008929  0  0.083809  0.158607  0  1.014589  0
H  H158  1  0.58312038  0.22049183  0.62239750  1  0.011347  0  0.083407  0.15855  0  1.014188  0
H  H159  1  0.19665875  0.22083432  0.37775277  1  0.018083  0  0.083252  0.158479  0  1.014914  0
H  H160  1  0.40663572  0.81731109  0.85547667  1  0.037475  0  0.082639  0.159407  0  1.029  0
H  H161  1  0.77643243  0.81722164  0.14462462  1  0.046591  0  0.08204  0.159378  0  1.028461  0
H  H162  1  0.51191360  0.31740364  0.64455649  1  0.041803  0  0.082027  0.158911  0  1.028643  0
H  H163  1  0.17088971  0.31768441  0.35552546  1  0.037348  0  0.082643  0.158837  0  1.028781  0
H  H164  1  0.81894057  0.41444753  0.62135954  1  0.029181  0  0.080546  0.156713  0  1.03263  0
H  H165  1  0.76616857  0.41463515  0.37868029  1  0.025531  0  0.080467  0.155984  0  1.033027  0
H  H166  1  0.69036297  0.91471293  0.87870602  1  0.025069  0  0.081063  0.156754  0  1.032498  0
H  H167  1  0.39519872  0.91434819  0.12132295  1  0.029011  0  0.080924  0.156772  0  1.033657  0
H  H168  1  0.79857168  0.34016619  0.58634689  1  0.059754  0  0.083467  0.156588  0  1.057441  0
H  H169  1  0.86078252  0.34037412  0.41369206  1  0.029937  0  0.083058  0.155796  0  1.059421  0
H  H170  1  0.63500482  0.84045678  0.91371791  1  0.029764  0  0.082973  0.156281  0  1.057951  0
H  H171  1  0.52487761  0.84011361  0.08629386  1  0.045131  0  0.08297  0.156038  0  1.058252  0
H  H172  1  0.98295967  0.33670371  0.60175105  1  0.033785  0  0.080563  0.150287  0  1.037624  0
H  H173  1  0.67981074  0.33693456  0.39830004  1  0.029302  0  0.079566  0.149292  0  1.038348  0
H  H174  1  0.83479130  0.83699535  0.89831460  1  0.032507  0  0.079921  0.149977  0  1.038157  0
H  H175  1  0.32853624  0.83662956  0.10168525  1  0.031658  0  0.080039  0.150147  0  1.038276  0
H  H176  1  0.83275146  0.31661148  0.64064353  1  0.030197  0  0.076834  0.145735  0  1.064453  0
H  H177  1  0.85012727  0.31677779  0.35940199  1  0.018662  0  0.07667  0.144872  0  1.064801  0
H  H178  1  0.72348295  0.81685426  0.85942002  1  0.024597  0  0.077484  0.145482  0  1.064199  0
H  H179  1  0.45994883  0.81650229  0.14058469  1  0.03034  0  0.077394  0.145394  0  1.064418  0
H  H180  1  0.70258888  0.95004709  0.96089868  1  0.062043  0  0.08332  0.160038  0  1.022225  0
H  H181  1  0.34740765  0.94997475  0.03905837  1  0.02533  0  0.083066  0.159605  0  1.023341  0
H  H182  1  0.91352665  0.44975226  0.53911661  1  0.056874  0  0.083717  0.160032  0  1.022081  0
H  H183  1  0.63691836  0.44988677  0.46092087  1  0.024187  0  0.083758  0.160435  0  1.023333  0
H  H184  1  0.60544321  0.04211945  0.98640122  1  0.022541  0  0.077475  0.146833  0  1.060054  0
H  H185  1  0.35259650  0.04202075  0.01355360  1  0.004803  0  0.078188  0.146909  0  1.059808  0
H  H186  1  0.84179386  0.54178958  0.51361005  1  0.01109  0  0.07756  0.146386  0  1.060339  0
H  H187  1  0.61641963  0.54197902  0.48641391  1  0.014091  0  0.07777  0.146765  0  1.060641  0
H  H188  1  0.75091491  0.03834612  0.94055096  1  0.050212  0  0.084844  0.159152  0  1.054162  0
H  H189  1  0.21085973  0.03831393  0.05940423  1  0.093161  0  0.08417  0.158287  0  1.054731  0
H  H190  1  0.94139770  0.53809984  0.55945726  1  0.035401  0  0.084548  0.159048  0  1.054703  0
H  H191  1  0.52052164  0.53814812  0.44057829  1  0.038316  0  0.084232  0.159216  0  1.053691  0
H  H192  1  0.56955852  0.02198258  0.93371074  1  0.002439  0  0.081418  0.150293  0  1.038645  0
H  H193  1  0.40858112  0.02189806  0.06624661  1  0.033236  0  0.08151  0.150881  0  1.039385  0
H  H194  1  0.75324636  0.52167941  0.56630319  1  0.002559  0  0.081287  0.150787  0  1.038033  0
H  H195  1  0.72506615  0.52185251  0.43371272  1  0.02025  0  0.081145  0.150605  0  1.038884  0
H  H196  1  0.06468871  0.06740568  0.00099842  1  0.054861  0  0.08156  0.159167  0  1.044218  0
H  H197  1  0.86773944  0.06741994  0.99910082  1  0.026996  0  0.080248  0.157724  0  1.044447  0
H  H198  1  0.31577184  0.56728678  0.49899355  1  0.050367  0  0.08155  0.159305  0  1.044333  0
H  H199  1  0.11694762  0.56726193  0.50085828  1  0.02602  0  0.080915  0.158744  0  1.043619  0
H  H200  1  0.94682962  0.14175958  0.97119561  1  0.021461  0  0.080531  0.152523  0  1.034555  0
H  H201  1  0.91126889  0.14173436  0.02894142  1  0.016509  0  0.080129  0.152157  0  1.034864  0
H  H202  1  0.16804348  0.64158143  0.52882739  1  0.013336  0  0.080577  0.152623  0  1.034803  0
H  H203  1  0.19028397  0.64163761  0.47108152  1  0.013725  0  0.080485  0.152696  0  1.034618  0
H  H204  1  0.37904276  0.96715001  0.54633531  1  0.015687  0  0.084363  0.154629  0  1.048011  0
H  H205  1  0.65422283  0.96706157  0.45356853  1  0.042741  0  0.084205  0.154315  0  1.047998  0
H  H206  1  0.17529554  0.46715968  0.95364167  1  0.011814  0  0.084119  0.154362  0  1.048767  0
H  H207  1  0.35707177  0.46725745  0.04640893  1  0.034798  0  0.084317  0.154978  0  1.047947  0
H  H208  1  0.43181680  0.88570540  0.51001411  1  0.036555  0  0.078813  0.150533  0  1.051969  0
H  H209  1  0.68285116  0.88565733  0.48988758  1  0.04165  0  0.079091  0.150673  0  1.052324  0
H  H210  1  0.19185889  0.38570081  0.98993504  1  0.053364  0  0.078825  0.150135  0  1.053279  0
H  H211  1  0.42184342  0.38577473  0.01011951  1  0.0413  0  0.079182  0.1505  0  1.053781  0
H  H212  1  0.23336680  0.92575336  0.53085485  1  -0.006663  0  0.079843  0.154542  0  1.047093  0
H  H213  1  0.84126134  0.92571003  0.46907537  1  -0.004701  0  0.080651  0.155896  0  1.045053  0
H  H214  1  0.01421025  0.42571857  0.96912722  1  0.013473  0  0.079753  0.154938  0  1.045861  0
H  H215  1  0.55958340  0.42570503  0.03094019  1  0.029941  0  0.078635  0.153563  0  1.047587  0
H  H216  1  0.36334733  0.87165740  0.56560891  1  0.032064  0  0.082468  0.159955  0  1.030693  0
H  H217  1  0.76548020  0.87156778  0.43429851  1  0.030977  0  0.082615  0.160021  0  1.03009  0
H  H218  1  0.17893181  0.37165678  0.93434117  1  0.030648  0  0.082653  0.160047  0  1.030856  0
H  H219  1  0.44872537  0.37173520  0.06571511  1  0.034157  0  0.082392  0.160087  0  1.030469  0
H  H220  1  0.16717987  0.78053022  0.52121777  1  0.010537  0  0.081125  0.151556  0  1.039848  0
H  H221  1  0.05191550  0.78049428  0.47903200  1  0.011787  0  0.080402  0.151198  0  1.040414  0
H  H222  1  0.93840874  0.28046629  0.97881499  1  0.020987  0  0.080666  0.150816  0  1.04135  0
H  H223  1  0.78113877  0.28039576  0.02104306  1  0.025258  0  0.080676  0.151244  0  1.040316  0
H  H224  1  0.15474507  0.85425692  0.48023241  1  0.030189  0  0.07793  0.147721  0  1.068506  0
H  H225  1  0.99058736  0.85428321  0.51999958  1  0.042298  0  0.077394  0.146557  0  1.070405  0
H  H226  1  0.88522074  0.35413919  0.01984517  1  0.028147  0  0.077655  0.146788  0  1.069037  0
H  H227  1  0.76059881  0.35424052  0.98012477  1  0.041257  0  0.07686  0.14598  0  1.071034  0
C  C228  1  0.05174330  0.13906844  0.76141957  1  1.553066  0  0.256499  0.667299  0  4.113792  0
C  C229  1  0.80944052  0.13908370  0.23861376  1  1.555227  0  0.25713  0.66798  0  4.110995  0
C  C230  1  0.06280165  0.63913386  0.73865723  1  1.556076  0  0.257141  0.667665  0  4.112397  0
C  C231  1  0.29813440  0.63897265  0.26137554  1  1.558288  0  0.256847  0.667361  0  4.114081  0
C  C232  1  0.94630335  0.14620934  0.69126718  1  -0.005478  0  -0.072703  -0.086055  0  3.952486  0
C  C233  1  0.90777085  0.14614749  0.30876337  1  -0.019804  0  -0.070637  -0.08367  0  3.951852  0
C  C234  1  0.88739097  0.64610276  0.80880823  1  0.066772  0  -0.072971  -0.086767  0  3.954015  0
C  C235  1  0.46664049  0.64609224  0.19124647  1  0.058922  0  -0.07232  -0.084958  0  3.950824  0
C  C236  1  0.96337434  0.15298614  0.64650511  1  -0.125569  0  -0.074559  -0.090596  0  3.964765  0
C  C237  1  0.88403190  0.15291477  0.35353067  1  -0.094292  0  -0.074665  -0.089724  0  3.963869  0
C  C238  1  0.85966918  0.65284596  0.85356997  1  -0.097633  0  -0.072917  -0.087445  0  3.964658  0
C  C239  1  0.48766075  0.65290485  0.14648176  1  -0.103008  0  -0.073307  -0.088082  0  3.962837  0
C  C240  1  0.10877172  0.15264989  0.62323572  1  -0.017972  0  -0.006573  -0.039428  0  3.940262  0
C  C241  1  0.73897242  0.15259746  0.37681075  1  -0.043065  0  -0.007259  -0.041681  0  3.945348  0
C  C242  1  0.98177403  0.65254052  0.87684043  1  0.000963  0  -0.007424  -0.0417  0  3.94584  0
C  C243  1  0.36584996  0.65263747  0.12320024  1  0.001539  0  -0.006062  -0.040163  0  3.942847  0
C  C244  1  0.23701049  0.14506361  0.64513388  1  -0.024332  0  -0.070057  -0.080863  0  3.945785  0
C  C245  1  0.61831559  0.14496051  0.35493051  1  -0.029083  0  -0.069491  -0.079236  0  3.947716  0
C  C246  1  0.13191777  0.64498319  0.85495505  1  -0.031535  0  -0.070249  -0.081961  0  3.948421  0
C  C247  1  0.22327738  0.64503344  0.14507260  1  -0.023263  0  -0.069913  -0.081248  0  3.946688  0
C  C248  1  0.21908624  0.14056286  0.69002992  1  -0.015776  0  -0.068976  -0.078794  0  3.948583  0
C  C249  1  0.64064556  0.14043930  0.31003845  1  0.002191  0  -0.068717  -0.077963  0  3.950108  0
C  C250  1  0.15892539  0.64049076  0.81006560  1  -0.004028  0  -0.070176  -0.078148  0  3.948557  0
C  C251  1  0.20074504  0.64047047  0.18996029  1  -0.001228  0  -0.07008  -0.078135  0  3.949509  0
C  C252  1  0.07366177  0.14127790  0.71323043  1  -0.002188  0  -0.005738  -0.041317  0  3.946237  0
C  C253  1  0.78530464  0.14120503  0.28681023  1  0.003388  0  -0.00765  -0.043565  0  3.95022  0
C  C254  1  0.03668861  0.64121703  0.78685364  1  -0.079832  0  -0.005837  -0.040731  0  3.946393  0
C  C255  1  0.32221921  0.64116862  0.21318684  1  -0.056329  0  -0.006407  -0.041341  0  3.946913  0
C  C256  1  0.12619528  0.16182129  0.57519986  1  1.582025  0  0.255208  0.660638  0  4.120567  0
C  C257  1  0.71225807  0.16195005  0.42484471  1  1.595514  0  0.257677  0.665  0  4.119648  0
C  C258  1  0.95103530  0.66181152  0.92486846  1  1.550637  0  0.254335  0.661591  0  4.122398  0
C  C259  1  0.38713658  0.66198907  0.07517917  1  1.54829  0  0.253081  0.659844  0  4.127645  0
C  C260  1  0.72277463  0.05679519  0.54019188  1  1.569224  0  0.257475  0.668083  0  4.101409  0
C  C261  1  0.22032550  0.05691813  0.45972522  1  1.57825  0  0.257601  0.668949  0  4.103916  0
C  C262  1  0.51272448  0.55685665  0.95984745  1  1.571886  0  0.256851  0.668402  0  4.104954  0
C  C263  1  0.93019056  0.55695814  0.04023671  1  1.554624  0  0.255459  0.666996  0  4.10423  0
C  C264  1  0.93114804  0.86535083  0.61877274  1  -0.059905  0  -0.00647  -0.04115  0  3.941985  0
C  C265  1  0.20315030  0.86540607  0.38117650  1  -0.024183  0  -0.00596  -0.040261  0  3.941022  0
C  C266  1  0.79991324  0.36533745  0.88131860  1  -0.036072  0  -0.006493  -0.040909  0  3.939266  0
C  C267  1  0.83495794  0.36535535  0.11874370  1  -0.071049  0  -0.00498  -0.037954  0  3.938103  0
C  C268  1  0.00515214  0.92546513  0.60703043  1  -0.00476  0  -0.067921  -0.073923  0  3.937778  0
C  C269  1  0.06908577  0.92560763  0.39289142  1  -0.055326  0  -0.06911  -0.076181  0  3.938325  0
C  C270  1  0.86211746  0.42546737  0.89311227  1  -2e-06  0  -0.069208  -0.075819  0  3.936763  0
C  C271  1  0.71252596  0.42542131  0.10694763  1  0.004432  0  -0.067938  -0.075135  0  3.937217  0
C  C272  1  0.93742939  0.98733390  0.58150688  1  -0.104524  0  -0.073486  -0.089459  0  3.952949  0
C  C273  1  0.07500446  0.98750171  0.41840011  1  -0.05669  0  -0.072757  -0.088773  0  3.949606  0
C  C274  1  0.76883068  0.48731482  0.91864658  1  -0.051679  0  -0.07313  -0.088507  0  3.950162  0
C  C275  1  0.74380635  0.48731760  0.08143263  1  -0.099837  0  -0.075341  -0.091847  0  3.952283  0
C  C276  1  0.79490545  0.99008307  0.56756063  1  -0.022126  0  -0.006958  -0.041827  0  3.949812  0
C  C277  1  0.21481369  0.99022018  0.43235216  1  -0.008459  0  -0.00718  -0.042539  0  3.946467  0
C  C278  1  0.61234386  0.49006946  0.93254530  1  -0.038304  0  -0.004405  -0.039073  0  3.944632  0
C  C279  1  0.89748177  0.49017205  0.06755563  1  0.00881  0  -0.004711  -0.039597  0  3.944708  0
C  C280  1  0.72067047  0.93013691  0.57947649  1  -0.00991  0  -0.07123  -0.080407  0  3.946514  0
C  C281  1  0.34890994  0.93021932  0.42045763  1  -0.070289  0  -0.072454  -0.081555  0  3.945537  0
C  C282  1  0.55006157  0.43012147  0.92060493  1  -0.041968  0  -0.073541  -0.083656  0  3.94459  0
C  C283  1  0.01980299  0.43029358  0.07950080  1  -0.005684  0  -0.070835  -0.07941  0  3.945455  0
C  C284  1  0.78841245  0.86831190  0.60494482  1  0.000259  0  -0.074668  -0.086848  0  3.95199  0
C  C285  1  0.34290522  0.86834109  0.39501936  1  -0.030237  0  -0.073216  -0.084917  0  3.94681  0
C  C286  1  0.64336431  0.36827578  0.89513580  1  -0.011342  0  -0.073282  -0.084741  0  3.948784  0
C  C287  1  0.98850368  0.36842755  0.10495162  1  0.013834  0  -0.075594  -0.088836  0  3.951613  0
C  C288  1  0.00398398  0.79685598  0.64490526  1  1.587833  0  0.255895  0.666458  0  4.102318  0
C  C289  1  0.19874201  0.79685105  0.35509063  1  1.592547  0  0.256902  0.667662  0  4.100394  0
C  C290  1  0.89896678  0.29691241  0.85514263  1  1.576193  0  0.258341  0.668816  0  4.098878  0
C  C291  1  0.80444719  0.29686524  0.14486044  1  1.58856  0  0.256968  0.667911  0  4.101655  0
C  C292  1  0.52753607  0.76604261  0.71960770  1  1.56666  0  0.255315  0.662985  0  4.105364  0
C  C293  1  0.70609045  0.76593728  0.28042359  1  1.569666  0  0.256782  0.66464  0  4.10456  0
C  C294  1  0.49780354  0.26588291  0.78040260  1  1.589311  0  0.257218  0.666212  0  4.098332  0
C  C295  1  0.23702782  0.26590045  0.21955170  1  1.581707  0  0.256161  0.663273  0  4.104986  0
C  C296  1  0.67605113  0.90955274  0.77882549  1  0.021268  0  -0.071498  -0.082045  0  3.949518  0
C  C297  1  0.41439282  0.90952154  0.22116274  1  0.023253  0  -0.072874  -0.084166  0  3.94937  0
C  C298  1  0.70507595  0.40956126  0.72126565  1  0.003364  0  -0.071939  -0.083894  0  3.949107  0
C  C299  1  0.88564868  0.40937729  0.27870460  1  0.005667  0  -0.071777  -0.082198  0  3.949444  0
C  C300  1  0.53922635  0.96737225  0.79176375  1  -0.092521  0  -0.005893  -0.041795  0  3.941632  0
C  C301  1  0.49370139  0.96719854  0.20818069  1  -0.027954  0  -0.003454  -0.037692  0  3.938341  0
C  C302  1  0.58109726  0.46722949  0.70826999  1  -0.087887  0  -0.00485  -0.039283  0  3.938467  0
C  C303  1  0.95167485  0.46715979  0.29170643  1  -0.028088  0  -0.004261  -0.039356  0  3.940748  0
C  C304  1  0.39755170  0.95791153  0.78209409  1  0.011653  0  -0.072431  -0.081383  0  3.9266  0
C  C305  1  0.64482463  0.95764225  0.21785909  1  -0.006546  0  -0.074392  -0.084489  0  3.929057  0
C  C306  1  0.42985731  0.45763130  0.71788112  1  0.044578  0  -0.07354  -0.082935  0  3.927343  0
C  C307  1  0.11246465  0.45771892  0.28207143  1  0.050005  0  -0.07279  -0.082658  0  3.930093  0
C  C308  1  0.39366250  0.89254808  0.75905324  1  -0.033659  0  -0.069495  -0.072431  0  3.929507  0
C  C309  1  0.71379804  0.89232589  0.24096124  1  -0.054649  0  -0.068898  -0.070403  0  3.930342  0
C  C310  1  0.40307347  0.39227476  0.74093187  1  -0.051461  0  -0.069324  -0.070859  0  3.928111  0
C  C311  1  0.20484044  0.39240561  0.25901096  1  -0.117357  0  -0.071013  -0.072829  0  3.931904  0
C  C312  1  0.53086102  0.83525258  0.74555076  1  -0.069796  0  -0.004044  -0.036309  0  3.928007  0
C  C313  1  0.63363707  0.83516371  0.25449930  1  -0.058605  0  -0.006398  -0.039223  0  3.930669  0
C  C314  1  0.52684628  0.33511783  0.75448702  1  -0.15368  0  -0.005582  -0.040186  0  3.93056  0
C  C315  1  0.13846363  0.33513421  0.24545575  1  -0.103109  0  -0.00399  -0.035984  0  3.92942  0
C  C316  1  0.67214093  0.84403671  0.75590465  1  -0.015666  0  -0.07391  -0.088066  0  3.937261  0
C  C317  1  0.48351860  0.84404493  0.24414412  1  -0.011493  0  -0.071364  -0.085808  0  3.934142  0
C  C318  1  0.67839583  0.34403743  0.74419171  1  0.032129  0  -0.073038  -0.08553  0  3.937863  0
C  C319  1  0.97805055  0.34390671  0.25575638  1  -0.015863  0  -0.074085  -0.089009  0  3.938759  0
C  C320  1  0.54485516  0.04026586  0.81392761  1  1.567415  0  0.254747  0.66379  0  4.111637  0
C  C321  1  0.41542276  0.04013338  0.18600582  1  1.582275  0  0.255736  0.662918  0  4.114804  0
C  C322  1  0.60865640  0.54018960  0.68614125  1  1.585602  0  0.254251  0.661513  0  4.109645  0
C  C323  1  0.85104102  0.54006870  0.31389250  1  1.583771  0  0.254439  0.662235  0  4.110185  0
C  C324  1  0.04554844  0.07521317  0.88356168  1  1.587759  0  0.254575  0.659546  0  4.12522  0
C  C325  1  0.87950030  0.07514907  0.11644735  1  1.580479  0  0.256455  0.662409  0  4.119124  0
C  C326  1  0.17863945  0.57496694  0.61651935  1  1.573419  0  0.257098  0.662143  0  4.116761  0
C  C327  1  0.24582601  0.57512431  0.38352018  1  1.571402  0  0.254805  0.661998  0  4.119415  0
C  C328  1  0.05464672  0.93822299  0.90964616  1  -0.037227  0  -0.072234  -0.08455  0  3.953918  0
C  C329  1  0.00720694  0.93814963  0.09032961  1  -0.023886  0  -0.072291  -0.083569  0  3.953281  0
C  C330  1  0.21388442  0.43802478  0.59031826  1  -0.043457  0  -0.073302  -0.085105  0  3.952254  0
C  C331  1  0.34752459  0.43815753  0.40965310  1  -0.018555  0  -0.073159  -0.085643  0  3.950497  0
C  C332  1  0.12576613  0.86983190  0.92990406  1  -0.077285  0  -0.073874  -0.083847  0  3.947139  0
C  C333  1  0.00440857  0.86978757  0.07005016  1  -0.074571  0  -0.07438  -0.084921  0  3.950886  0
C  C334  1  0.30531177  0.36960428  0.57008071  1  -0.03216  0  -0.073289  -0.08316  0  3.945006  0
C  C335  1  0.32451532  0.36979143  0.42992800  1  -0.082956  0  -0.071944  -0.081475  0  3.944783  0
C  C336  1  0.26515911  0.86439041  0.94627875  1  0.01573  0  -0.005774  -0.038729  0  3.948704  0
C  C337  1  0.87047390  0.86443732  0.05363894  1  0.005402  0  -0.006192  -0.040105  0  3.951396  0
C  C338  1  0.46114624  0.36415471  0.55376706  1  0.006719  0  -0.007385  -0.041516  0  3.94945  0
C  C339  1  0.17416455  0.36436032  0.44628433  1  -0.005205  0  -0.00889  -0.043669  0  3.950217  0
C  C340  1  0.33136804  0.92860720  0.94267440  1  -0.053341  0  -0.07432  -0.088462  0  3.956021  0
C  C341  1  0.74014444  0.92870121  0.05721808  1  -0.027086  0  -0.073604  -0.086991  0  3.955277  0
C  C342  1  0.52367456  0.42838626  0.55737533  1  -0.077895  0  -0.072319  -0.085048  0  3.955805  0
C  C343  1  0.04738174  0.42855134  0.44263212  1  -0.022768  0  -0.074465  -0.089498  0  3.955564  0
C  C344  1  0.26029086  0.99702117  0.92239978  1  -0.058472  0  -0.073339  -0.081567  0  3.945758  0
C  C345  1  0.74289030  0.99709673  0.07750867  1  -0.046114  0  -0.072183  -0.078905  0  3.942934  0
C  C346  1  0.43227010  0.49681850  0.57763016  1  -0.03477  0  -0.073084  -0.082548  0  3.946458  0
C  C347  1  0.07034211  0.49695676  0.42234493  1  -0.05186  0  -0.070938  -0.078643  0  3.940522  0
C  C348  1  0.12171427  0.00210661  0.90565946  1  0.0316  0  -0.006082  -0.037639  0  3.946701  0
C  C349  1  0.87635221  0.00209375  0.09429713  1  -0.006565  0  -0.006298  -0.039622  0  3.944126  0
C  C350  1  0.27693506  0.50190425  0.59434952  1  0.001012  0  -0.00635  -0.037962  0  3.944858  0
C  C351  1  0.22059693  0.50203508  0.40563088  1  -0.010769  0  -0.007244  -0.039696  0  3.942499  0
C  C352  1  0.34399676  0.78934551  0.96629518  1  1.577149  0  0.253993  0.660411  0  4.116537  0
C  C353  1  0.86653761  0.78940742  0.03362382  1  1.571234  0  0.255177  0.662655  0  4.118915  0
C  C354  1  0.56021303  0.28910280  0.53380102  1  1.578373  0  0.253388  0.659947  0  4.117695  0
C  C355  1  0.15020471  0.28934097  0.46634512  1  1.579149  0  0.258173  0.665458  0  4.114196  0
C  C356  1  0.44899135  0.20422854  0.90644353  1  1.529485  0  0.256656  0.663193  0  4.116449  0
C  C357  1  0.34641122  0.20421428  0.09352736  1  1.535024  0  0.252773  0.658567  0  4.116075  0
C  C358  1  0.60520982  0.70409282  0.59355027  1  1.529357  0  0.254779  0.659828  0  4.119691  0
C  C359  1  0.69021568  0.70417736  0.40643446  1  1.535283  0  0.256499  0.663199  0  4.114063  0
C  C360  1  0.42134617  0.20807774  0.95475559  1  0.037346  0  -0.007429  -0.044461  0  3.942924  0
C  C361  1  0.36995805  0.20816216  0.04521578  1  0.047004  0  -0.006618  -0.044415  0  3.943257  0
C  C362  1  0.62612285  0.70788105  0.54522701  1  -0.023923  0  -0.005359  -0.041679  0  3.941257  0
C  C363  1  0.66549489  0.70800133  0.45475406  1  -0.010097  0  -0.007265  -0.044107  0  3.942475  0
C  C364  1  0.27367975  0.20913181  0.97678673  1  -0.014289  0  -0.0708  -0.085969  0  3.951194  0
C  C365  1  0.51658682  0.20912823  0.02318089  1  0.005408  0  -0.071481  -0.086179  0  3.95138  0
C  C366  1  0.50061556  0.70892972  0.52314434  1  -0.00077  0  -0.072591  -0.087693  0  3.951273  0
C  C367  1  0.79002463  0.70895460  0.47683918  1  0.006755  0  -0.070792  -0.085762  0  3.950879  0
C  C368  1  0.24832029  0.20832143  0.02175496  1  -0.069711  0  -0.068768  -0.073339  0  3.936415  0
C  C369  1  0.54280709  0.20823071  0.97821921  1  -0.029686  0  -0.070719  -0.074987  0  3.935312  0
C  C370  1  0.52037690  0.70813068  0.47817585  1  -0.001388  0  -0.068384  -0.07323  0  3.935129  0
C  C371  1  0.77111581  0.70802168  0.52180199  1  -0.002771  0  -0.070342  -0.075637  0  3.937161  0
C  C372  1  0.99797099  0.94805495  0.71970189  1  -0.120554  0  -0.344503  -0.621443  0  3.844451  0
C  C373  1  0.05425616  0.94794128  0.28021092  1  -0.142761  0  -0.342827  -0.619275  0  3.845451  0
C  C374  1  0.96830540  0.44800085  0.78020812  1  -0.104261  0  -0.343632  -0.621  0  3.84408  0
C  C375  1  0.58401207  0.44798760  0.21972233  1  -0.128307  0  -0.344296  -0.62198  0  3.845471  0
C  C376  1  0.63155362  0.05025824  0.68127031  1  -0.104539  0  -0.338327  -0.609143  0  3.843626  0
C  C377  1  0.31770495  0.05025025  0.31873609  1  -0.093738  0  -0.337698  -0.608672  0  3.842037  0
C  C378  1  0.56308869  0.54986700  0.81883783  1  -0.105618  0  -0.336788  -0.607003  0  3.842833  0
C  C379  1  0.88687537  0.54981326  0.18120337  1  -0.144249  0  -0.3368  -0.606873  0  3.843194  0
C  C380  1  0.37983536  0.93674057  0.65302365  1  -0.133586  0  -0.34296  -0.620379  0  3.855486  0
C  C381  1  0.68405043  0.93665089  0.34692803  1  -0.152777  0  -0.341384  -0.619022  0  3.854431  0
C  C382  1  0.28247803  0.43665116  0.84686826  1  -0.08502  0  -0.341032  -0.618769  0  3.85673  0
C  C383  1  0.28148193  0.43674509  0.15307549  1  -0.098496  0  -0.342319  -0.619732  0  3.857682  0
C  C384  1  0.06639808  0.83400280  0.81425144  1  -0.189517  0  -0.339074  -0.618871  0  3.859894  0
C  C385  1  0.09981941  0.83414708  0.18568247  1  -0.08997  0  -0.340939  -0.621164  0  3.861546  0
C  C386  1  0.13013132  0.33407221  0.68555854  1  -0.104233  0  -0.340273  -0.620461  0  3.860913  0
C  C387  1  0.53560146  0.33391259  0.31430066  1  -0.13747  0  -0.341506  -0.620691  0  3.860507  0
C  C388  1  0.45234427  0.75488326  0.84772989  1  -0.118973  0  -0.337362  -0.608944  0  3.84717  0
C  C389  1  0.79308858  0.75480293  0.15237808  1  -0.118063  0  -0.336864  -0.60845  0  3.845596  0
C  C390  1  0.54990532  0.25499966  0.65232174  1  -0.125815  0  -0.337806  -0.608492  0  3.842912  0
C  C391  1  0.19528769  0.25524713  0.34780215  1  -0.120242  0  -0.33674  -0.607031  0  3.846425  0
C  C392  1  0.85785945  0.35227832  0.61249268  1  -0.153715  0  -0.340488  -0.610531  0  3.844361  0
C  C393  1  0.78938196  0.35247137  0.38754857  1  -0.104783  0  -0.338811  -0.606818  0  3.846117  0
C  C394  1  0.72044302  0.85254389  0.88757054  1  -0.112877  0  -0.340363  -0.609394  0  3.845299  0
C  C395  1  0.42732256  0.85219773  0.11244087  1  -0.137499  0  -0.340469  -0.609397  0  3.846316  0
C  C396  1  0.65727323  0.01295180  0.95555426  1  -0.13757  0  -0.339407  -0.617485  0  3.849708  0
C  C397  1  0.32988994  0.01288082  0.04440175  1  -0.157854  0  -0.339174  -0.616662  0  3.851516  0
C  C398  1  0.86279429  0.51266268  0.54445668  1  -0.107572  0  -0.339545  -0.617449  0  3.850263  0
C  C399  1  0.62459500  0.51279599  0.45557000  1  -0.09862  0  -0.339071  -0.618256  0  3.85113  0
C  C400  1  0.94765640  0.10453165  0.00005787  1  -0.121976  0  -0.33831  -0.616107  0  3.848219  0
C  C401  1  0.19778222  0.60439689  0.49994193  1  -0.10515  0  -0.339207  -0.617717  0  3.84876  0
C  C402  1  0.35218522  0.91261646  0.53833969  1  -0.079788  0  -0.340777  -0.618314  0  3.841437  0
C  C403  1  0.73561054  0.91254699  0.46157183  1  -0.112229  0  -0.342058  -0.619699  0  3.84027  0
C  C404  1  0.14050445  0.41260662  0.96162528  1  -0.111141  0  -0.340784  -0.618245  0  3.842427  0
C  C405  1  0.44633595  0.41266434  0.03843141  1  -0.141543  0  -0.339746  -0.617731  0  3.842951  0
C  C406  1  0.09113215  0.81734485  0.50011992  1  -0.100179  0  -0.341643  -0.609825  0  3.853184  0
C  C407  1  0.84136095  0.31726662  0.99995820  1  -0.121276  0  -0.340707  -0.607715  0  3.854672  0
O  O408  1  0.93230045  0.11959055  0.78051503  1  -1.19637  0  -0.366665  -0.64346  0  2.310194  0
O  O409  1  0.94842455  0.11971270  0.21955104  1  -1.200678  0  -0.368464  -0.645547  0  2.310789  0
O  O410  1  0.96224432  0.61980774  0.71957389  1  -1.20183  0  -0.368304  -0.645216  0  2.309876  0
O  O411  1  0.41800975  0.61955963  0.28044897  1  -1.200178  0  -0.368164  -0.644992  0  2.311429  0
O  O412  1  0.15326197  0.15694350  0.78070779  1  -1.209132  0  -0.369584  -0.657686  0  2.324535  0
O  O413  1  0.69012316  0.15692904  0.21930009  1  -1.206626  0  -0.368806  -0.656438  0  2.320569  0
O  O414  1  0.18358420  0.65700978  0.71936967  1  -1.204571  0  -0.36887  -0.656647  0  2.323889  0
O  O415  1  0.15947965  0.65680716  0.28067701  1  -1.208694  0  -0.368566  -0.656625  0  2.322635  0
O  O416  1  0.00327017  0.18485815  0.55769803  1  -1.192971  0  -0.362707  -0.641502  0  2.306915  0
O  O417  1  0.81233834  0.18480766  0.44235247  1  -1.206239  0  -0.364294  -0.643559  0  2.309206  0
O  O418  1  0.81055963  0.68469723  0.94233603  1  -1.200837  0  -0.361816  -0.640974  0  2.309053  0
O  O419  1  0.50457092  0.68496672  0.05769400  1  -1.200559  0  -0.362701  -0.64139  0  2.312274  0
O  O420  1  0.26314701  0.14630192  0.55470826  1  -1.200491  0  -0.370776  -0.654538  0  2.3186  0
O  O421  1  0.59045549  0.14678409  0.44531326  1  -1.205272  0  -0.371619  -0.655971  0  2.317412  0
O  O422  1  0.06743974  0.64652203  0.94537544  1  -1.206647  0  -0.371431  -0.65468  0  2.31896  0
O  O423  1  0.28593131  0.64671732  0.05469696  1  -1.206549  0  -0.369331  -0.652884  0  2.318283  0
O  O424  1  0.58700990  0.06138877  0.53136217  1  -1.181938  0  -0.355621  -0.622134  0  2.250278  0
O  O425  1  0.35161033  0.06160003  0.46842067  1  -1.185116  0  -0.356574  -0.62303  0  2.2511  0
O  O426  1  0.36805535  0.56156891  0.96854181  1  -1.174206  0  -0.355466  -0.622251  0  2.250896  0
O  O427  1  0.07014163  0.56166423  0.03149028  1  -1.18701  0  -0.355788  -0.622467  0  2.251025  0
O  O428  1  0.80087817  0.10601189  0.52718736  1  -1.210748  0  -0.37764  -0.669754  0  2.366324  0
O  O429  1  0.09301919  0.10602738  0.47287798  1  -1.211164  0  -0.377283  -0.669635  0  2.368982  0
O  O430  1  0.57776025  0.60603155  0.97293506  1  -1.210887  0  -0.37758  -0.67035  0  2.369949  0
O  O431  1  0.81590607  0.60613029  0.02719229  1  -1.210178  0  -0.375785  -0.668799  0  2.367656  0
O  O432  1  0.92516512  0.74770646  0.65752349  1  -1.215064  0  -0.372957  -0.667834  0  2.3659  0
O  O433  1  0.32667404  0.74764213  0.34249835  1  -1.213072  0  -0.372825  -0.668438  0  2.364114  0
O  O434  1  0.83284597  0.24775695  0.84248542  1  -1.208605  0  -0.373121  -0.668632  0  2.363424  0
O  O435  1  0.91971546  0.24774174  0.15752499  1  -1.207122  0  -0.372994  -0.669179  0  2.364842  0
O  O436  1  0.14113996  0.79042589  0.65325175  1  -1.1883  0  -0.356915  -0.623287  0  2.253883  0
O  O437  1  0.06801303  0.79043901  0.34674671  1  -1.183983  0  -0.357953  -0.624289  0  2.253556  0
O  O438  1  0.04444479  0.29054830  0.84678059  1  -1.202679  0  -0.358596  -0.62437  0  2.253058  0
O  O439  1  0.66537128  0.29042442  0.15315989  1  -1.192411  0  -0.3579  -0.624125  0  2.254174  0
O  O440  1  0.39810156  0.76095023  0.70960486  1  -1.190437  0  -0.355773  -0.628274  0  2.252034  0
O  O441  1  0.84073769  0.76075229  0.29035294  1  -1.194026  0  -0.357038  -0.630202  0  2.250668  0
O  O442  1  0.35844115  0.26067959  0.79039274  1  -1.184534  0  -0.356683  -0.630451  0  2.248931  0
O  O443  1  0.38158161  0.26079884  0.20960308  1  -1.182916  0  -0.356961  -0.629596  0  2.251342  0
O  O444  1  0.65503715  0.71506856  0.70874472  1  -1.211634  0  -0.374755  -0.670988  0  2.34027  0
O  O445  1  0.62944593  0.71503168  0.29131214  1  -1.210801  0  -0.37526  -0.670909  0  2.3427  0
O  O446  1  0.61455260  0.21496902  0.79124444  1  -1.215589  0  -0.375383  -0.670677  0  2.338749  0
O  O447  1  0.17143772  0.21491004  0.20867850  1  -1.211298  0  -0.374496  -0.670076  0  2.342142  0
O  O448  1  0.41765144  0.09140595  0.82453856  1  -1.216869  0  -0.375485  -0.675417  0  2.370777  0
O  O449  1  0.49171738  0.09118577  0.17543157  1  -1.218019  0  -0.376141  -0.675069  0  2.37314  0
O  O450  1  0.49191925  0.59129723  0.67559062  1  -1.214641  0  -0.376361  -0.674613  0  2.369797  0
O  O451  1  0.91665690  0.59116294  0.32448656  1  -1.212626  0  -0.375142  -0.674837  0  2.370234  0
O  O452  1  0.67596237  0.04860741  0.82086908  1  -1.186689  0  -0.355246  -0.622039  0  2.222758  0
O  O453  1  0.27594707  0.04859794  0.17905507  1  -1.189391  0  -0.355901  -0.622897  0  2.223673  0
O  O454  1  0.74664580  0.54860737  0.67920273  1  -1.188629  0  -0.355028  -0.62217  0  2.22246  0
O  O455  1  0.70463935  0.54847114  0.32084620  1  -1.204072  0  -0.355443  -0.622069  0  2.220243  0
O  O456  1  0.91205556  0.08023521  0.87288570  1  -1.19837  0  -0.359513  -0.630511  0  2.277248  0
O  O457  1  0.00791039  0.08002467  0.12723329  1  -1.18721  0  -0.36152  -0.632315  0  2.274579  0
O  O458  1  0.03448498  0.57996010  0.62722383  1  -1.199294  0  -0.360792  -0.631416  0  2.272873  0
O  O459  1  0.38498090  0.58010095  0.37281394  1  -1.197029  0  -0.359906  -0.630698  0  2.274581  0
O  O460  1  0.11690408  0.12919725  0.87687067  1  -1.21388  0  -0.374775  -0.664247  0  2.341282  0
O  O461  1  0.75427622  0.12922888  0.12307418  1  -1.217611  0  -0.374359  -0.664636  0  2.338815  0
O  O462  1  0.24332338  0.62892638  0.62326574  1  -1.202184  0  -0.37496  -0.665191  0  2.337806  0
O  O463  1  0.12718741  0.62914485  0.37684598  1  -1.205637  0  -0.374219  -0.665746  0  2.339703  0
O  O464  1  0.27250687  0.73542104  0.97152813  1  -1.206618  0  -0.373302  -0.668058  0  2.366102  0
O  O465  1  0.99186381  0.73542646  0.02841234  1  -1.204769  0  -0.374297  -0.669868  0  2.368319  0
O  O466  1  0.49416007  0.23509139  0.52858016  1  -1.211508  0  -0.372868  -0.668005  0  2.367522  0
O  O467  1  0.27028751  0.23541644  0.47165158  1  -1.212814  0  -0.375472  -0.670891  0  2.368308  0
O  O468  1  0.47905577  0.78255536  0.97640825  1  -1.193723  0  -0.356477  -0.626354  0  2.240726  0
O  O469  1  0.73825732  0.78266992  0.02349530  1  -1.187774  0  -0.357675  -0.627531  0  2.243053  0
O  O470  1  0.70536324  0.28238541  0.52372030  1  -1.18787  0  -0.356544  -0.626221  0  2.241931  0
O  O471  1  0.01177121  0.28260936  0.47642076  1  -1.185874  0  -0.357151  -0.627689  0  2.23956  0
O  O472  1  0.33142177  0.22325579  0.88637176  1  -1.204837  0  -0.366277  -0.643732  0  2.291147  0
O  O473  1  0.44516174  0.22304907  0.11360303  1  -1.201061  0  -0.365699  -0.642466  0  2.289342  0
O  O474  1  0.46749691  0.72296218  0.61357564  1  -1.204401  0  -0.365336  -0.642246  0  2.291887  0
O  O475  1  0.80901015  0.72305147  0.38637641  1  -1.199139  0  -0.366054  -0.643299  0  2.289978  0
O  O476  1  0.58856241  0.18208686  0.88801235  1  -1.205524  0  -0.3662  -0.656698  0  2.325223  0
O  O477  1  0.22894171  0.18210659  0.11195079  1  -1.213744  0  -0.363348  -0.653684  0  2.323542  0
O  O478  1  0.72627130  0.68216656  0.61202981  1  -1.206121  0  -0.365565  -0.655564  0  2.326763  0
O  O479  1  0.59110365  0.68215535  0.38798585  1  -1.21567  0  -0.366689  -0.657592  0  2.324033  0
