# generated using pymatgen
data_Ag2H15(C7N2)3
_symmetry_space_group_name_H-M   'P 1'
_cell_length_a   14.12666433
_cell_length_b   17.84115283
_cell_length_c   19.58328518
_cell_angle_alpha   98.25973195
_cell_angle_beta   90.15388600
_cell_angle_gamma   89.80974685
_symmetry_Int_Tables_number   1
_chemical_formula_structural   Ag2H15(C7N2)3
_chemical_formula_sum   'Ag16 H120 C168 N48'
_cell_volume   4884.45538515
_cell_formula_units_Z   8
loop_
 _symmetry_equiv_pos_site_id
 _symmetry_equiv_pos_as_xyz
  1  'x, y, z'
loop_
 _atom_site_type_symbol
 _atom_site_label
 _atom_site_symmetry_multiplicity
 _atom_site_fract_x
 _atom_site_fract_y
 _atom_site_fract_z
 _atom_site_occupancy
 _atom_site_pbe_bader_charge
 _atom_site_pbe_bader_spin_density
 _atom_site_pbe_cm5_charge
 _atom_site_pbe_ddec_charge
 _atom_site_pbe_ddec_spin_density
 _atom_site_pbe_ddec_sum_bond_order
 _atom_site_pbe_magmom
Ag  Ag0  1  0.17131845  0.25308243  0.25624873  1  0.44406  -0.000311  0.425323  0.152301  -0.002986  2.141389  -0.001
Ag  Ag1  1  0.04472370  0.33551795  0.37685930  1  0.523827  0.001298  0.451178  0.207665  0.000491  2.132991  0.0
Ag  Ag2  1  0.04470361  0.75627239  0.75830388  1  0.463756  -0.002165  0.446868  0.183106  -0.005099  2.114695  -0.002
Ag  Ag3  1  0.92223890  0.84108451  0.88013469  1  0.524653  -0.000195  0.447371  0.205043  -0.002271  2.111315  -0.001
Ag  Ag4  1  0.67107225  0.24568997  0.74376224  1  0.444018  0.001071  0.426944  0.151067  0.001703  2.148502  0.001
Ag  Ag5  1  0.54464695  0.16433446  0.62399167  1  0.524834  1.7e-05  0.452323  0.210579  -0.002481  2.132623  -0.001
Ag  Ag6  1  0.54659765  0.74350940  0.24201359  1  0.463379  0.001679  0.446731  0.1803  0.002856  2.116305  0.001
Ag  Ag7  1  0.42260488  0.66147689  0.12115969  1  0.523909  0.010419  0.450532  0.208725  0.023564  2.119483  0.007
Ag  Ag8  1  0.82854450  0.74696819  0.74370593  1  0.443302  -0.000301  0.425331  0.15272  -0.002953  2.140205  -0.001
Ag  Ag9  1  0.95517467  0.66452518  0.62310046  1  0.523594  0.001308  0.451009  0.207325  0.00053  2.13288  0.0
Ag  Ag10  1  0.95514515  0.24378008  0.24164082  1  0.463488  -0.002141  0.447126  0.183251  -0.005062  2.116008  -0.002
Ag  Ag11  1  0.07770475  0.15905292  0.11993354  1  0.524174  -0.000184  0.447865  0.20497  -0.002262  2.113824  -0.001
Ag  Ag12  1  0.32874977  0.75433953  0.25624249  1  0.444035  0.001064  0.42677  0.151001  0.001694  2.147802  0.001
Ag  Ag13  1  0.45524598  0.83557095  0.37591628  1  0.524671  -1.5e-05  0.452267  0.210818  -0.002545  2.132077  -0.001
Ag  Ag14  1  0.45328386  0.25651935  0.75800028  1  0.463102  0.001691  0.447374  0.180626  0.002873  2.117192  0.001
Ag  Ag15  1  0.57727521  0.33862443  0.87893806  1  0.523859  0.010447  0.450657  0.209012  0.023618  2.118735  0.007
H  H16  1  0.26590996  0.10985714  0.31125573  1  0.070738  -0.000159  0.112564  0.090206  -0.000136  0.992173  0.0
H  H17  1  0.23444178  0.03729524  0.40706359  1  0.091197  0.000164  0.104434  0.113213  0.000197  1.022446  0.0
H  H18  1  0.00018896  0.19370731  0.45772301  1  0.077355  0.000116  0.117735  0.086893  7.8e-05  1.001026  0.0
H  H19  1  0.91823267  0.00944747  0.85032965  1  0.068173  -0.00019  0.117233  0.097835  0.000181  0.987102  0.0
H  H20  1  0.95345122  0.07748992  0.75192077  1  0.087801  -0.001669  0.101007  0.106019  -0.001413  1.020122  0.0
H  H21  1  0.09748776  0.87126589  0.66241502  1  0.069133  0.000394  0.117669  0.087947  0.000674  1.009871  0.0
H  H22  1  0.99417690  0.16642243  0.55347710  1  0.027825  0.000297  0.091136  0.084031  0.000368  1.031725  0.0
H  H23  1  0.95881149  0.11162603  0.65539514  1  0.054132  -0.000492  0.090169  0.085187  -0.000234  1.029661  0.0
H  H24  1  0.14288632  0.92146841  0.58418238  1  0.039614  0.001159  0.09248  0.085839  0.001261  1.036861  0.0
H  H25  1  0.17961625  0.97684266  0.48282958  1  0.06494  0.000566  0.094782  0.092908  0.000614  1.026216  0.0
H  H26  1  0.94841747  0.49978182  0.65529777  1  0.109656  0.000163  0.117408  0.098419  0.000522  0.989127  0.0
H  H27  1  0.97560323  0.43083194  0.75457470  1  0.061864  -0.001172  0.100751  0.104145  -0.000862  1.020323  0.0
H  H28  1  0.09588582  0.64152606  0.85695023  1  0.106906  0.000918  0.11658  0.085739  0.001229  1.011629  0.0
H  H29  1  0.24920338  0.40876935  0.21416971  1  0.080032  0.000629  0.112512  0.089186  0.000738  0.997472  0.0
H  H30  1  0.21986365  0.48081518  0.11767394  1  0.093296  2.5e-05  0.105219  0.113011  2.8e-05  1.015229  0.0
H  H31  1  0.03687053  0.29397251  0.03552587  1  0.071439  0.000324  0.117353  0.086513  0.000366  1.00605  0.0
H  H32  1  0.99262502  0.38752733  0.84509344  1  0.042355  -0.000456  0.090988  0.085694  -0.000202  1.02653  0.0
H  H33  1  0.02875083  0.33033616  0.94556345  1  0.023594  0.000568  0.091634  0.085321  0.000651  1.032151  0.0
H  H34  1  0.17693256  0.53411312  0.03461934  1  0.017167  0.000353  0.094543  0.092768  0.000482  1.02196  0.0
H  H35  1  0.13932952  0.59152149  0.93477396  1  0.06245  0.001385  0.090258  0.082458  0.00157  1.048418  0.0
H  H36  1  0.07559505  0.27907589  0.52254030  1  0.093991  0.000425  0.10357  0.071285  0.000128  1.060597  0.0
H  H37  1  0.13614190  0.32549865  0.63827807  1  0.055596  0.002637  0.101007  0.106813  0.001945  1.019758  0.0
H  H38  1  0.16176185  0.54280289  0.56441299  1  0.04352  0.000146  0.11275  0.082951  -0.000104  1.004762  0.0
H  H39  1  0.33216447  0.73028515  0.99109345  1  0.071516  0.000407  0.107181  0.080399  1.8e-05  1.037008  0.0
H  H40  1  0.28993247  0.68740233  0.86915629  1  0.0607  0.0018  0.100833  0.104808  0.001261  1.017183  0.0
H  H41  1  0.36948281  0.46322955  0.91101842  1  0.088031  0.000271  0.112968  0.085321  0.000204  1.000251  0.0
H  H42  1  0.22858513  0.58545783  0.65244436  1  0.063047  0.000701  0.098166  0.096202  0.000253  1.016101  0.0
H  H43  1  0.29770575  0.63804090  0.76190558  1  0.029369  0.000901  0.093139  0.088583  0.0003  1.016417  0.0
H  H44  1  0.26456155  0.42275680  0.83631329  1  0.04747  5.7e-05  0.098185  0.097563  -0.000261  1.009934  0.0
H  H45  1  0.19541331  0.36990464  0.72725697  1  0.034032  0.001307  0.091823  0.086442  0.000593  1.027089  0.0
H  H46  1  0.76603781  0.38849118  0.68914549  1  0.096163  -0.000212  0.113234  0.09059  -0.000349  0.991282  0.0
H  H47  1  0.73438443  0.46114036  0.59324109  1  0.088839  0.000133  0.104969  0.113598  3.5e-05  1.020555  0.0
H  H48  1  0.49988997  0.30596500  0.54208814  1  0.070705  2.8e-05  0.117815  0.086245  -0.00011  1.000989  0.0
H  H49  1  0.41543642  0.49259672  0.15048681  1  0.108414  0.000153  0.118082  0.098279  -0.000467  0.986399  0.0
H  H50  1  0.44865659  0.42449910  0.24954071  1  0.066876  0.00226  0.101475  0.106567  0.001797  1.020961  -0.001
H  H51  1  0.59876028  0.62776011  0.33791601  1  0.095452  -2.8e-05  0.118389  0.088769  -0.000222  1.009016  0.0
H  H52  1  0.49225304  0.33433998  0.44715562  1  0.011569  0.000206  0.091889  0.08545  1.4e-05  1.029777  0.0
H  H53  1  0.45582762  0.38981751  0.34558040  1  0.018726  0.000792  0.091219  0.086205  0.000333  1.028818  0.0
H  H54  1  0.64518978  0.57628345  0.41501498  1  0.030639  0.001216  0.09288  0.086313  0.001136  1.037921  0.0
H  H55  1  0.68201912  0.52080590  0.51644402  1  0.057287  0.000307  0.095368  0.093413  8.8e-05  1.028015  0.0
H  H56  1  0.44819243  0.00031476  0.34318410  1  0.114614  7.9e-05  0.117945  0.098699  0.00049  0.987571  0.0
H  H57  1  0.47546512  0.06859894  0.24364121  1  0.02103  -0.001545  0.101139  0.104643  -0.000981  1.021103  0.001
H  H58  1  0.59855824  0.85763108  0.14338702  1  0.076669  0.000967  0.116262  0.085576  0.001303  1.011707  0.0
H  H59  1  0.75067203  0.09014595  0.78601374  1  0.084988  -0.000326  0.113022  0.089754  -0.000322  0.998068  0.0
H  H60  1  0.72203405  0.01807128  0.88246778  1  0.078747  5.8e-05  0.10534  0.112158  0.000114  1.016319  0.0
H  H61  1  0.53690276  0.20452238  0.96371065  1  0.081068  0.000369  0.117849  0.086946  0.000387  1.004805  0.0
H  H62  1  0.49448372  0.11181281  0.15411721  1  0.017281  -0.000499  0.091401  0.086554  -0.000173  1.027252  0.0
H  H63  1  0.53061715  0.16877294  0.05373393  1  0.032117  0.000697  0.092015  0.085503  0.000778  1.032229  0.0
H  H64  1  0.67738334  0.96384163  0.96467806  1  0.065303  0.000323  0.094835  0.093099  0.00047  1.02125  0.0
H  H65  1  0.63991559  0.90668889  0.06453742  1  0.042287  0.001275  0.090763  0.083393  0.001498  1.04684  0.0
H  H66  1  0.57353895  0.21839024  0.47817844  1  0.078404  0.000426  0.103896  0.07072  6.9e-05  1.058143  0.0
H  H67  1  0.63493023  0.17181461  0.36285123  1  0.067136  0.002561  0.101686  0.107246  0.002025  1.021142  0.0
H  H68  1  0.66324442  0.95497852  0.43741749  1  0.066508  -7.2e-05  0.113454  0.084147  -0.000275  1.002156  0.0
H  H69  1  0.83140607  0.77053625  0.00872482  1  0.084325  0.000368  0.107362  0.080402  5.5e-05  1.037537  0.0
H  H70  1  0.79083763  0.81204398  0.13112856  1  0.060742  0.001555  0.101758  0.106002  0.00112  1.015841  0.0
H  H71  1  0.86932594  0.03679753  0.09149026  1  0.088335  -0.000222  0.112977  0.084957  -0.000364  1.000427  0.0
H  H72  1  0.73146857  0.91249380  0.34909091  1  0.057416  0.000277  0.099035  0.096981  -3.5e-05  1.012673  0.0
H  H73  1  0.80105275  0.86069675  0.23958358  1  0.054976  0.000396  0.09366  0.090007  -1.7e-05  1.013429  0.0
H  H74  1  0.76410452  0.07619749  0.16598915  1  0.041377  2.5e-05  0.098596  0.098149  -0.000284  1.008257  0.0
H  H75  1  0.69468237  0.12820461  0.27496431  1  0.056988  0.001115  0.092992  0.087436  0.000491  1.026655  0.0
H  H76  1  0.73398337  0.89022950  0.68871738  1  0.070136  -0.000158  0.112475  0.090583  -0.000135  0.992401  0.0
H  H77  1  0.76549825  0.96282328  0.59293862  1  0.08965  0.000166  0.104204  0.11281  0.000199  1.022324  0.0
H  H78  1  0.99959403  0.80625884  0.54215162  1  0.079226  0.000117  0.117785  0.086759  7.8e-05  1.000971  0.0
H  H79  1  0.08200462  0.99076313  0.14975951  1  0.068532  -0.000188  0.117401  0.097958  0.000181  0.986871  0.0
H  H80  1  0.04671811  0.92269067  0.24812881  1  0.085436  -0.001652  0.101087  0.106207  -0.001406  1.020303  0.0
H  H81  1  0.90233547  0.12878860  0.33750952  1  0.069534  0.000396  0.117501  0.087494  0.000675  1.009725  0.0
H  H82  1  0.00571072  0.83367347  0.44648354  1  0.029268  0.000295  0.091125  0.084271  0.000365  1.031719  0.0
H  H83  1  0.04120848  0.88851850  0.34460830  1  0.055682  -0.00048  0.090353  0.085479  -0.00023  1.029823  0.0
H  H84  1  0.85702468  0.07862846  0.41578812  1  0.03806  0.001156  0.092236  0.085362  0.001258  1.036857  0.0
H  H85  1  0.82019847  0.02320192  0.51707464  1  0.074069  0.000562  0.095016  0.093001  0.000613  1.026467  0.0
H  H86  1  0.05185679  0.50016328  0.34454625  1  0.112153  0.000166  0.117371  0.098186  0.000526  0.989081  0.0
H  H87  1  0.02449621  0.56915495  0.24533536  1  0.061326  -0.001166  0.100743  0.103985  -0.000852  1.02052  0.0
H  H88  1  0.90403381  0.35851737  0.14302645  1  0.105949  0.000926  0.116535  0.08551  0.001237  1.011951  0.0
H  H89  1  0.75077139  0.59126791  0.78575814  1  0.079326  0.000627  0.112619  0.089255  0.000736  0.997787  0.0
H  H90  1  0.78020388  0.51916596  0.88220361  1  0.092723  2.5e-05  0.105074  0.11274  2.8e-05  1.015116  0.0
H  H91  1  0.96310220  0.70606081  0.96443972  1  0.071906  0.000322  0.117277  0.086547  0.000363  1.005988  0.0
H  H92  1  0.00738662  0.61246704  0.15481506  1  0.057286  -0.000431  0.09099  0.085797  -0.000201  1.026467  0.0
H  H93  1  0.97125732  0.66964118  0.05434618  1  0.023997  0.000566  0.091746  0.085672  0.000649  1.031838  0.0
H  H94  1  0.82290007  0.46591427  0.96537437  1  0.063937  0.000349  0.094674  0.093237  0.000481  1.021677  0.0
H  H95  1  0.86052998  0.40852454  0.06522397  1  0.062885  0.001393  0.090368  0.082575  0.001576  1.048484  0.0
H  H96  1  0.92492580  0.72047437  0.47731612  1  0.095168  0.000421  0.103606  0.071379  0.00013  1.060676  0.0
H  H97  1  0.86433241  0.67398728  0.36159568  1  0.057967  0.002654  0.101001  0.106642  0.001959  1.020766  0.0
H  H98  1  0.83806198  0.45687948  0.43573785  1  0.038333  0.000149  0.112618  0.082646  -0.000103  1.004596  0.0
H  H99  1  0.66803984  0.26964505  0.00880506  1  0.069902  0.000413  0.107268  0.080537  2.1e-05  1.037563  0.0
H  H100  1  0.71018524  0.31236670  0.13078811  1  0.068264  0.001752  0.100689  0.104828  0.001262  1.017544  0.0
H  H101  1  0.63046109  0.53661134  0.08918987  1  0.091755  0.000269  0.113264  0.085573  0.000203  0.999734  0.0
H  H102  1  0.77163167  0.41406946  0.34757088  1  0.050961  0.000729  0.097756  0.09564  0.000258  1.015243  0.0
H  H103  1  0.70233459  0.36158067  0.23811731  1  0.027  0.000909  0.093265  0.088978  0.0003  1.016566  0.0
H  H104  1  0.73529266  0.57697669  0.16387193  1  0.052823  5.4e-05  0.098712  0.098176  -0.000262  1.010003  0.0
H  H105  1  0.80460746  0.62971067  0.27288707  1  0.040545  0.001296  0.092212  0.086837  0.000598  1.027258  0.0
H  H106  1  0.23392247  0.61138328  0.31077855  1  0.094555  -0.00021  0.113411  0.090817  -0.000347  0.991346  0.0
H  H107  1  0.26569624  0.53864719  0.40660122  1  0.095933  0.000115  0.105165  0.114464  3.2e-05  1.020163  0.0
H  H108  1  0.49992360  0.69404578  0.45791698  1  0.067761  2.8e-05  0.117782  0.086271  -0.00011  1.001189  0.0
H  H109  1  0.58454562  0.50737721  0.84946470  1  0.108836  0.00015  0.118107  0.098337  -0.00047  0.986411  0.0
H  H110  1  0.55138780  0.57541584  0.75036466  1  0.066873  0.00227  0.101327  0.106158  0.001803  1.021243  -0.001
H  H111  1  0.40119292  0.37216842  0.66207650  1  0.09485  -3.2e-05  0.118375  0.0885  -0.000226  1.009341  0.0
H  H112  1  0.50784529  0.66549404  0.55272959  1  0.01213  0.000204  0.091729  0.085179  1.1e-05  1.030049  0.0
H  H113  1  0.54419919  0.61005473  0.65433572  1  0.021046  0.000791  0.091329  0.086617  0.000332  1.02919  0.0
H  H114  1  0.35484842  0.42357044  0.58491335  1  0.030659  0.001219  0.093134  0.086759  0.001138  1.037622  0.0
H  H115  1  0.31802050  0.47904012  0.48347910  1  0.056702  0.000307  0.095267  0.093314  8.8e-05  1.027835  0.0
H  H116  1  0.55190080  0.99976015  0.65691979  1  0.115789  8.1e-05  0.117847  0.098692  0.00049  0.987714  0.0
H  H117  1  0.52467123  0.93153990  0.75651320  1  0.021754  -0.001528  0.100712  0.104166  -0.000985  1.021146  0.001
H  H118  1  0.40138391  0.14250927  0.85663617  1  0.073991  0.000972  0.116312  0.085612  0.001304  1.011973  0.0
H  H119  1  0.24927577  0.90999884  0.21401572  1  0.084252  -0.000322  0.113221  0.089859  -0.000317  0.997828  0.0
H  H120  1  0.27811058  0.98211824  0.11763360  1  0.078547  6.1e-05  0.105548  0.112469  0.000115  1.015917  0.0
H  H121  1  0.46296459  0.79551749  0.03632062  1  0.082631  0.000367  0.117945  0.087141  0.000384  1.004846  0.0
H  H122  1  0.50553922  0.88832338  0.84595246  1  0.019804  -0.000495  0.091174  0.086333  -0.000173  1.026341  0.0
H  H123  1  0.46941073  0.83136393  0.94632818  1  0.032559  0.00069  0.091986  0.085604  0.000772  1.032213  0.0
H  H124  1  0.32270123  0.03630473  0.03542988  1  0.062271  0.000324  0.094804  0.09315  0.000469  1.021161  0.0
H  H125  1  0.36021215  0.09347593  0.93558648  1  0.040975  0.001277  0.09066  0.083278  0.001501  1.046361  0.0
H  H126  1  0.42668761  0.78182897  0.52186546  1  0.079692  0.000425  0.104018  0.070944  6.7e-05  1.057367  0.0
H  H127  1  0.36524898  0.82836620  0.63718256  1  0.068763  0.002548  0.101565  0.107312  0.002022  1.021078  0.0
H  H128  1  0.33645274  0.04510897  0.56251009  1  0.064726  -7.2e-05  0.113412  0.084415  -0.000275  1.002259  0.0
H  H129  1  0.16878405  0.22961174  0.99142022  1  0.080462  0.000371  0.107457  0.081027  5.3e-05  1.036859  0.0
H  H130  1  0.20935516  0.18816535  0.86901297  1  0.095237  0.001413  0.1016  0.105949  0.001121  1.015436  0.0
H  H131  1  0.13058274  0.96341958  0.90852495  1  0.093122  -0.000224  0.112906  0.0846  -0.000366  1.000413  0.0
H  H132  1  0.26837941  0.08763057  0.65090540  1  0.05564  0.00028  0.099098  0.097433  -3.6e-05  1.012648  0.0
H  H133  1  0.19891342  0.13946115  0.76044061  1  0.053158  0.000392  0.093353  0.090091  -2e-05  1.013601  0.0
H  H134  1  0.23597137  0.92400435  0.83408941  1  0.043577  2.1e-05  0.098542  0.09844  -0.000283  1.008538  0.0
H  H135  1  0.30529234  0.87195184  0.72508113  1  0.008751  0.001225  0.092961  0.087468  0.000488  1.026986  0.0
C  C136  1  0.20930851  0.12654102  0.34810975  1  0.375533  -0.003256  0.015103  0.024111  -0.003186  4.045382  -0.001
C  C137  1  0.19058933  0.08625670  0.40118846  1  -0.013308  -0.007757  -0.099018  -0.17658  -0.007917  3.978778  -0.004
C  C138  1  0.11540237  0.11063125  0.44829199  1  0.015524  -0.01381  -0.014205  0.034153  -0.014354  4.013966  -0.008
C  C139  1  0.06413954  0.17343226  0.42984355  1  0.504447  -0.000792  0.04397  0.009525  -0.001409  3.967951  -0.001
C  C140  1  0.95564155  0.98167521  0.80491222  1  0.417628  -0.005714  0.020375  0.032816  -0.005374  4.053407  0.003
C  C141  1  0.97547396  0.01871662  0.74973598  1  -0.065491  -0.064466  -0.101238  -0.18563  -0.065988  3.991338  -0.036
C  C142  1  0.02720790  0.98036600  0.69213084  1  0.054788  -0.055192  -0.01442  0.034024  -0.05463  4.003764  -0.032
C  C143  1  0.05536924  0.90620989  0.70112463  1  0.470757  0.010093  0.051423  0.032743  0.009927  3.927404  0.01
C  C144  1  0.09220449  0.07777704  0.50837174  1  -0.062295  -0.018224  -0.033015  0.030731  -0.0182  4.053198  -0.01
C  C145  1  0.02827248  0.11285534  0.55955590  1  0.005492  -0.001483  -0.100817  -0.132515  -0.001892  4.037389  0.0
C  C146  1  0.00805086  0.08171626  0.61818649  1  -0.131524  -0.015109  -0.104782  -0.135696  -0.014597  4.020985  -0.008
C  C147  1  0.04816185  0.01153664  0.63055608  1  0.087096  -0.014506  -0.027052  0.039206  -0.015799  4.047043  -0.007
C  C148  1  0.10996051  0.97547141  0.57844242  1  -0.037099  -0.010231  -0.098745  -0.133429  -0.009777  4.032273  -0.006
C  C149  1  0.13173410  0.00728542  0.52061664  1  -0.06821  -0.003381  -0.097867  -0.12295  -0.003346  4.000505  -0.001
C  C150  1  0.97957037  0.52772986  0.70327223  1  0.386921  -0.006133  0.020908  0.031692  -0.006033  4.04931  0.003
C  C151  1  0.99517463  0.49022125  0.75884746  1  -0.005465  -0.067209  -0.097093  -0.176449  -0.068628  3.995974  -0.038
C  C152  1  0.04059672  0.52862974  0.81924837  1  0.01821  -0.057631  -0.013104  0.03351  -0.057532  4.008196  -0.035
C  C153  1  0.06234615  0.60519261  0.81441721  1  0.499094  0.016886  0.051479  0.032155  0.016826  3.919425  0.014
C  C154  1  0.20481641  0.38567402  0.17060617  1  0.408428  -0.002736  0.015923  0.025832  -0.002785  4.038527  0.0
C  C155  1  0.18760902  0.42540307  0.11677577  1  -0.063292  -0.015273  -0.098123  -0.177144  -0.015625  3.98481  -0.009
C  C156  1  0.12746676  0.39343919  0.06111472  1  0.051137  -0.021085  -0.014566  0.032447  -0.021835  4.017842  -0.012
C  C157  1  0.08839746  0.32269647  0.07160504  1  0.50905  0.001412  0.043177  0.008455  0.0008  3.975795  0.001
C  C158  1  0.06216967  0.49536534  0.87962136  1  -0.008321  -0.017033  -0.026333  0.037327  -0.017779  4.050799  -0.008
C  C159  1  0.03314087  0.42041380  0.88633691  1  -0.066978  -0.016631  -0.105156  -0.134495  -0.016347  4.025407  -0.009
C  C160  1  0.05382193  0.38779911  0.94416906  1  -0.035648  -0.001201  -0.10233  -0.136132  -0.001541  4.039429  0.001
C  C161  1  0.10654089  0.42658312  0.00062816  1  -0.068029  -0.020085  -0.030596  0.031454  -0.020225  4.057998  -0.011
C  C162  1  0.13636324  0.50124372  0.99349025  1  0.086134  -0.004436  -0.097213  -0.114727  -0.004865  3.991346  -0.002
C  C163  1  0.11459312  0.53406690  0.93611574  1  -0.13025  -0.011465  -0.098885  -0.129596  -0.011099  4.019721  -0.007
C  C164  1  0.09681383  0.33798079  0.53565447  1  0.434449  0.013085  0.01445  0.026907  0.013067  4.058494  -0.001
C  C165  1  0.13134385  0.36448573  0.60046646  1  -0.044368  0.070392  -0.100795  -0.17971  0.071559  4.002914  0.037
C  C166  1  0.16054769  0.44099208  0.61525282  1  -0.046236  0.089044  -0.011237  0.033848  0.089038  4.008817  0.051
C  C167  1  0.14518412  0.48262591  0.55917649  1  0.573422  0.003748  0.045433  0.017989  0.00759  3.966209  0.001
C  C168  1  0.33971608  0.67090842  0.96911369  1  0.460943  0.013574  0.017727  0.027089  0.013846  4.050842  0.0
C  C169  1  0.31626949  0.64657747  0.90106790  1  -0.060846  0.061432  -0.098948  -0.18226  0.062291  4.007135  0.031
C  C170  1  0.32089022  0.56817934  0.87635183  1  -0.049305  0.080007  -0.005678  0.044841  0.080119  4.011381  0.045
C  C171  1  0.35773381  0.52390580  0.92543024  1  0.538265  0.003568  0.04606  0.018774  0.007116  3.964351  0.001
C  C172  1  0.20374842  0.47294846  0.67963729  1  0.013283  0.064001  -0.025229  0.037908  0.064681  4.035295  0.035
C  C173  1  0.23484119  0.54930534  0.69252639  1  -0.130204  0.026112  -0.096227  -0.120936  0.025649  4.006358  0.011
C  C174  1  0.27440938  0.57920819  0.75490031  1  0.05491  0.031762  -0.099311  -0.13004  0.03292  4.01278  0.016
C  C175  1  0.28708867  0.53528182  0.80926131  1  -0.039466  0.063394  -0.028263  0.033639  0.063715  4.039844  0.034
C  C176  1  0.25862068  0.45852790  0.79585599  1  0.010509  0.015293  -0.094328  -0.121681  0.015638  4.020217  0.006
C  C177  1  0.21832487  0.42875117  0.73368217  1  -0.089949  0.034819  -0.102247  -0.139284  0.033938  4.01882  0.017
C  C178  1  0.70940697  0.37204728  0.65215247  1  0.321923  0.003819  0.016519  0.026998  0.003635  4.03897  0.001
C  C179  1  0.69058693  0.41236524  0.59899990  1  0.03251  0.010618  -0.09835  -0.17628  0.01097  3.975301  0.006
C  C180  1  0.61521386  0.38844721  0.55181347  1  0.003573  0.017744  -0.014551  0.032161  0.018289  4.013801  0.01
C  C181  1  0.56389861  0.32592958  0.57009852  1  0.504956  0.001296  0.04467  0.011192  0.001716  3.968459  0.001
C  C182  1  0.45365664  0.51971375  0.19583864  1  0.398101  0.008383  0.023273  0.035653  0.008425  4.045158  -0.004
C  C183  1  0.47235942  0.48268782  0.25133040  1  -0.002835  0.080238  -0.099931  -0.183193  0.082575  3.986511  0.045
C  C184  1  0.52586246  0.52006874  0.30846644  1  0.06003  0.068625  -0.013878  0.033372  0.068895  4.003666  0.04
C  C185  1  0.55577859  0.59350460  0.29930915  1  0.458574  -0.013362  0.053182  0.034656  -0.012606  3.925739  -0.013
C  C186  1  0.59197692  0.42154401  0.49173059  1  -0.029119  0.02319  -0.030456  0.036252  0.023165  4.048999  0.013
C  C187  1  0.52693189  0.38742344  0.44090051  1  -0.018811  0.003622  -0.100338  -0.133097  0.003962  4.035408  0.001
C  C188  1  0.50613326  0.41894311  0.38242856  1  -0.015525  0.019242  -0.104422  -0.135937  0.018812  4.019475  0.01
C  C189  1  0.54714405  0.48845870  0.36991858  1  -0.025813  0.019642  -0.025821  0.041364  0.020523  4.044973  0.009
C  C190  1  0.61082532  0.52319508  0.42131311  1  -0.102565  0.017664  -0.097508  -0.13153  0.017669  4.03081  0.009
C  C191  1  0.63280810  0.49121359  0.47913974  1  0.019294  0.005857  -0.098542  -0.124737  0.006001  3.999156  0.002
C  C192  1  0.48000371  0.97215163  0.29558520  1  0.407029  -0.006841  0.021633  0.033281  -0.006931  4.046157  0.003
C  C193  1  0.49568811  0.00930119  0.23988977  1  -0.015478  -0.072338  -0.098204  -0.178618  -0.073841  3.992749  -0.041
C  C194  1  0.54179191  0.97045688  0.18000183  1  0.052785  -0.064089  -0.013072  0.033859  -0.06378  4.009324  -0.039
C  C195  1  0.56424112  0.89413535  0.18543967  1  0.5129  0.019225  0.051349  0.030189  0.019256  3.920485  0.016
C  C196  1  0.70582611  0.11304897  0.82930537  1  0.376259  -0.003447  0.016772  0.025875  -0.003409  4.034826  -0.001
C  C197  1  0.68893475  0.07330204  0.88308599  1  0.005435  -0.013083  -0.095788  -0.171917  -0.013476  3.979439  -0.007
C  C198  1  0.62840608  0.10513116  0.93839833  1  -0.025967  -0.020179  -0.014034  0.030813  -0.020789  4.017343  -0.012
C  C199  1  0.58865332  0.17583450  0.92782727  1  0.515038  0.000923  0.044502  0.009956  0.000243  3.972036  0.001
C  C200  1  0.56338934  0.00343798  0.11955543  1  0.003503  -0.016844  -0.026226  0.039354  -0.017739  4.049569  -0.008
C  C201  1  0.53471260  0.07862917  0.11293167  1  -0.029886  -0.018492  -0.103945  -0.134791  -0.018156  4.024235  -0.01
C  C202  1  0.55537723  0.11110684  0.05514750  1  -0.050413  -0.000413  -0.101054  -0.13485  -0.000773  4.03688  0.001
C  C203  1  0.60769143  0.07193342  0.99879001  1  -0.002297  -0.021804  -0.030155  0.035009  -0.022116  4.052469  -0.013
C  C204  1  0.63716422  0.99699925  0.00581463  1  -0.061978  -0.004329  -0.096197  -0.11425  -0.004495  3.989057  -0.002
C  C205  1  0.61543029  0.96433319  0.06315981  1  -0.039021  -0.013221  -0.099496  -0.131875  -0.013081  4.020869  -0.008
C  C206  1  0.59558497  0.15954521  0.46537249  1  0.424783  0.010237  0.016311  0.031542  0.009874  4.058279  -0.003
C  C207  1  0.63059856  0.13297218  0.40076197  1  -0.043724  0.066269  -0.100483  -0.180622  0.067651  4.001654  0.035
C  C208  1  0.66096992  0.05664490  0.38646824  1  0.033882  0.079635  -0.009434  0.036373  0.079927  4.006169  0.046
C  C209  1  0.64580998  0.01508643  0.44246659  1  0.495318  0.002538  0.047158  0.020225  0.005898  3.963827  0.0
C  C210  1  0.83938662  0.82962716  0.03136725  1  0.483975  0.012992  0.018487  0.029383  0.013289  4.045209  0.0
C  C211  1  0.81682446  0.85320723  0.09964204  1  -0.073932  0.055199  -0.097626  -0.180377  0.055856  4.007495  0.028
C  C212  1  0.82192036  0.93130759  0.12523765  1  -0.076144  0.072976  -0.006966  0.041029  0.07275  4.01009  0.041
C  C213  1  0.85775079  0.97622022  0.07656718  1  0.560566  0.003049  0.047383  0.021881  0.006158  3.957646  0.001
C  C214  1  0.70461333  0.02490082  0.32219996  1  0.000756  0.05992  -0.024512  0.038215  0.060127  4.033995  0.033
C  C215  1  0.73686829  0.94883524  0.30913235  1  -0.054716  0.018801  -0.09348  -0.116414  0.018806  4.004087  0.008
C  C216  1  0.77665971  0.91936178  0.24671244  1  -0.055875  0.030655  -0.098746  -0.132053  0.030547  4.009629  0.016
C  C217  1  0.78822299  0.96357654  0.19255946  1  0.068859  0.055533  -0.026228  0.036661  0.055868  4.039565  0.03
C  C218  1  0.75875703  0.04015156  0.20623143  1  -0.099722  0.014558  -0.094619  -0.122436  0.014658  4.019228  0.006
C  C219  1  0.71832635  0.06944256  0.26840104  1  -0.071011  0.031429  -0.101877  -0.137596  0.030792  4.014544  0.016
C  C220  1  0.79054732  0.87351763  0.65183942  1  0.381821  -0.003208  0.014678  0.022556  -0.003148  4.046815  -0.001
C  C221  1  0.80930259  0.91382042  0.59877614  1  -0.010006  -0.007671  -0.098724  -0.175792  -0.00782  3.977675  -0.004
C  C222  1  0.88444847  0.88942097  0.55163072  1  0.010225  -0.013679  -0.014625  0.03411  -0.014221  4.01327  -0.008
C  C223  1  0.93564200  0.82655261  0.57003221  1  0.5011  -0.000761  0.044185  0.010257  -0.00137  3.967144  -0.001
C  C224  1  0.04450305  0.01849616  0.19514981  1  0.415934  -0.005646  0.020528  0.03254  -0.005266  4.054163  0.003
C  C225  1  0.02463947  0.98144708  0.25030910  1  -0.062151  -0.064167  -0.101529  -0.185861  -0.065703  3.992514  -0.036
C  C226  1  0.97280997  0.01976827  0.30787573  1  0.056941  -0.054775  -0.014534  0.033305  -0.054221  4.003659  -0.032
C  C227  1  0.94452902  0.09387580  0.29883456  1  0.471377  0.01004  0.051963  0.03472  0.009881  3.926388  0.01
C  C228  1  0.90767606  0.92229984  0.49157035  1  -0.061249  -0.018039  -0.032685  0.030533  -0.018009  4.054052  -0.01
C  C229  1  0.97164414  0.88724913  0.44039934  1  0.001281  -0.001521  -0.10083  -0.132738  -0.001921  4.038576  0.0
C  C230  1  0.99194008  0.91841720  0.38179951  1  -0.1299  -0.014983  -0.105166  -0.136444  -0.014476  4.021623  -0.008
C  C231  1  0.95183971  0.98860177  0.36944034  1  0.082754  -0.014438  -0.026985  0.039748  -0.015724  4.046949  -0.007
C  C232  1  0.88997523  0.02463402  0.42152319  1  -0.070109  -0.010226  -0.098284  -0.133029  -0.009679  4.031148  -0.005
C  C233  1  0.86814857  0.99279151  0.47932239  1  -0.042149  -0.003234  -0.09845  -0.123114  -0.003294  4.000184  -0.001
C  C234  1  0.02062249  0.47223536  0.29659908  1  0.385394  -0.006053  0.021335  0.03211  -0.005967  4.049098  0.003
C  C235  1  0.00493754  0.50976465  0.24105124  1  -0.005775  -0.067002  -0.097276  -0.176413  -0.068407  3.995209  -0.038
C  C236  1  0.95943830  0.47137233  0.18067605  1  0.019845  -0.057438  -0.013122  0.033378  -0.057346  4.008543  -0.035
C  C237  1  0.93765418  0.39482843  0.18553235  1  0.501908  0.016976  0.051384  0.032152  0.016925  3.919574  0.014
C  C238  1  0.79514916  0.61436538  0.82933117  1  0.43135  -0.002631  0.016181  0.026266  -0.002753  4.039028  0.0
C  C239  1  0.81239268  0.57461384  0.88314461  1  -0.080649  -0.015276  -0.097955  -0.177197  -0.015554  3.984401  -0.009
C  C240  1  0.87250312  0.60657913  0.93882881  1  0.043931  -0.020987  -0.014884  0.032784  -0.021726  4.017397  -0.012
C  C241  1  0.91154906  0.67734532  0.92836581  1  0.50955  0.001414  0.043137  0.008084  0.000806  3.975304  0.001
C  C242  1  0.93780590  0.50464166  0.12031954  1  -0.007304  -0.016972  -0.025858  0.038273  -0.017706  4.051  -0.008
C  C243  1  0.96684815  0.57958204  0.11358965  1  -0.081226  -0.016614  -0.105082  -0.134379  -0.016311  4.025013  -0.009
C  C244  1  0.94616286  0.61218883  0.05575534  1  -0.036518  -0.0012  -0.102681  -0.136998  -0.001539  4.039239  0.001
C  C245  1  0.89341558  0.57341716  0.99930819  1  -0.065275  -0.019977  -0.03064  0.031466  -0.020125  4.057649  -0.011
C  C246  1  0.86353944  0.49877154  0.00647371  1  0.035702  -0.004418  -0.097238  -0.115079  -0.004842  3.991161  -0.002
C  C247  1  0.88532229  0.46595513  0.06385022  1  -0.130708  -0.011388  -0.099459  -0.130647  -0.011028  4.020351  -0.007
C  C248  1  0.90353008  0.66160390  0.46426694  1  0.423277  0.013079  0.013779  0.025573  0.013037  4.058458  -0.001
C  C249  1  0.86898530  0.63506814  0.39946841  1  -0.035283  0.070599  -0.100899  -0.179535  0.071812  4.003852  0.037
C  C250  1  0.83962160  0.55859341  0.38478292  1  -0.056651  0.089297  -0.01071  0.033906  0.08921  4.008766  0.051
C  C251  1  0.85485345  0.51701806  0.44090679  1  0.574658  0.003763  0.045009  0.018553  0.0076  3.966283  0.001
C  C252  1  0.66036814  0.32898499  0.03086576  1  0.456339  0.013806  0.017692  0.027568  0.013944  4.05159  0.0
C  C253  1  0.68377889  0.35321864  0.09893187  1  -0.064205  0.061422  -0.098696  -0.182262  0.062366  4.008008  0.032
C  C254  1  0.67907134  0.43158205  0.12373994  1  -0.04648  0.080204  -0.005643  0.044537  0.080374  4.010897  0.045
C  C255  1  0.64221847  0.47594208  0.07472543  1  0.535437  0.003579  0.045945  0.018756  0.007142  3.9637  0.001
C  C256  1  0.79637142  0.52661560  0.32043264  1  0.016166  0.06417  -0.025676  0.036902  0.064949  4.036052  0.035
C  C257  1  0.76527932  0.45026012  0.30752535  1  -0.112124  0.025951  -0.095631  -0.119266  0.025649  4.003543  0.011
C  C258  1  0.72566288  0.42040556  0.24515112  1  0.060275  0.032084  -0.099842  -0.131282  0.033099  4.012037  0.017
C  C259  1  0.71291276  0.46439089  0.19083828  1  -0.058507  0.063484  -0.027494  0.034508  0.063792  4.039804  0.034
C  C260  1  0.74136169  0.54114834  0.20427626  1  0.004007  0.015404  -0.09543  -0.123385  0.015737  4.020782  0.006
C  C261  1  0.78172063  0.57086050  0.26643634  1  -0.084705  0.034851  -0.102314  -0.138609  0.03395  4.019787  0.017
C  C262  1  0.29053842  0.62784181  0.34778181  1  0.32355  0.003778  0.016009  0.026155  0.003595  4.039894  0.001
C  C263  1  0.30942292  0.58747391  0.40089004  1  0.022783  0.010567  -0.098705  -0.177245  0.010901  3.976441  0.006
C  C264  1  0.38477189  0.61141776  0.44809801  1  0.006443  0.017614  -0.014588  0.032115  0.018163  4.014385  0.01
C  C265  1  0.43596104  0.67402937  0.42987729  1  0.509803  0.001305  0.044856  0.011485  0.001721  3.968062  0.001
C  C266  1  0.54630562  0.48025149  0.80412592  1  0.397931  0.008307  0.023092  0.035351  0.008367  4.045015  -0.004
C  C267  1  0.52763968  0.51724091  0.74860600  1  -0.002531  0.080251  -0.099633  -0.182671  0.082573  3.985914  0.045
C  C268  1  0.47409844  0.47986209  0.69148452  1  0.060524  0.068559  -0.013981  0.033346  0.068847  4.002896  0.04
C  C269  1  0.44416252  0.40644335  0.70067590  1  0.458295  -0.013366  0.052824  0.034539  -0.012617  3.925192  -0.013
C  C270  1  0.40806194  0.57830804  0.50816837  1  -0.040343  0.023191  -0.030298  0.035903  0.023161  4.04924  0.013
C  C271  1  0.47311332  0.61243600  0.55899645  1  -0.019205  0.003591  -0.10007  -0.13224  0.003925  4.035275  0.001
C  C272  1  0.49389210  0.58093604  0.61748038  1  -0.014378  0.019227  -0.10451  -0.136752  0.018802  4.020894  0.01
C  C273  1  0.45286220  0.51143165  0.63000317  1  -0.025794  0.019604  -0.025514  0.042116  0.02047  4.045394  0.009
C  C274  1  0.38921215  0.47665785  0.57860333  1  -0.14326  0.017831  -0.098092  -0.132494  0.017683  4.031447  0.009
C  C275  1  0.36723645  0.50863655  0.52077274  1  0.063134  0.005646  -0.098588  -0.124756  0.00595  3.9991  0.002
C  C276  1  0.52007745  0.02793700  0.70451297  1  0.402745  -0.006848  0.021672  0.033564  -0.006893  4.046873  0.003
C  C277  1  0.50443051  0.99083290  0.76024046  1  -0.01359  -0.072196  -0.097864  -0.178398  -0.073717  3.99277  -0.041
C  C278  1  0.45827706  0.02969693  0.82010256  1  0.034359  -0.064252  -0.013039  0.033663  -0.06362  4.008844  -0.039
C  C279  1  0.43574289  0.10598689  0.81461623  1  0.511759  0.019227  0.051247  0.030184  0.019264  3.921316  0.016
C  C280  1  0.29411187  0.88706847  0.17073243  1  0.381743  -0.003408  0.016067  0.024704  -0.003382  4.035373  -0.001
C  C281  1  0.31110303  0.92684431  0.11698667  1  0.012813  -0.013046  -0.095618  -0.171537  -0.013424  3.97884  -0.007
C  C282  1  0.37160628  0.89498465  0.06166842  1  -0.037978  -0.020085  -0.014375  0.030685  -0.020688  4.017363  -0.011
C  C283  1  0.41124442  0.82423362  0.07221010  1  0.514806  0.000926  0.044548  0.010117  0.00025  3.971845  0.001
C  C284  1  0.43669945  0.99672088  0.88055124  1  0.027511  -0.016471  -0.026164  0.039131  -0.017691  4.050656  -0.008
C  C285  1  0.46536062  0.92151914  0.88716020  1  -0.037105  -0.018466  -0.103814  -0.134462  -0.018105  4.023703  -0.01
C  C286  1  0.44469526  0.88904547  0.94494238  1  -0.08089  -0.000366  -0.100799  -0.13478  -0.000763  4.037141  0.001
C  C287  1  0.39238321  0.92821140  0.00130698  1  0.03543  -0.021733  -0.029587  0.03555  -0.022041  4.052446  -0.013
C  C288  1  0.36293380  0.00315555  0.99429760  1  -0.043597  -0.004195  -0.096526  -0.115053  -0.004456  3.989946  -0.002
C  C289  1  0.38467693  0.03582325  0.93695623  1  -0.059327  -0.013288  -0.099694  -0.131762  -0.013053  4.02168  -0.008
C  C290  1  0.40450498  0.84064510  0.53463908  1  0.425488  0.010177  0.016132  0.031574  0.009778  4.056537  -0.003
C  C291  1  0.36946243  0.86719426  0.59925382  1  -0.040553  0.066289  -0.101059  -0.18216  0.067664  4.002376  0.035
C  C292  1  0.33895377  0.94349251  0.61352388  1  0.033329  0.079489  -0.0083  0.03856  0.079766  4.005644  0.045
C  C293  1  0.35399123  0.98502329  0.55748673  1  0.495498  0.002541  0.04688  0.019326  0.005911  3.964325  0.0
C  C294  1  0.16076449  0.17053310  0.96875653  1  0.480315  0.013101  0.01827  0.028006  0.013297  4.04475  0.0
C  C295  1  0.18334498  0.14698372  0.90047744  1  -0.102758  0.055239  -0.096942  -0.179693  0.055866  4.006682  0.028
C  C296  1  0.17817607  0.06889249  0.87484374  1  -0.083558  0.073195  -0.007267  0.041093  0.072834  4.010484  0.041
C  C297  1  0.14225002  0.02397818  0.92347966  1  0.559599  0.003026  0.047815  0.023295  0.006122  3.9558  0.001
C  C298  1  0.29532807  0.97524311  0.67781098  1  -0.003612  0.059952  -0.024801  0.037734  0.060178  4.034596  0.033
C  C299  1  0.26305827  0.05130186  0.69088117  1  -0.050314  0.018705  -0.093792  -0.117554  0.018741  4.006169  0.008
C  C300  1  0.22333692  0.08080266  0.75332854  1  -0.056902  0.030711  -0.098505  -0.131662  0.03058  4.010246  0.016
C  C301  1  0.21183452  0.03660736  0.80750478  1  0.072257  0.055344  -0.026135  0.035917  0.055829  4.039876  0.03
C  C302  1  0.24127074  0.96002572  0.79382214  1  -0.098307  0.014598  -0.094632  -0.122821  0.014698  4.019994  0.006
C  C303  1  0.28166107  0.93071855  0.73163487  1  -0.019439  0.031291  -0.101515  -0.137097  0.03076  4.015233  0.016
N  N304  1  0.16108446  0.19004186  0.33718574  1  -0.712348  -0.012906  -0.30337  -0.129016  -0.012892  3.591408  -0.01
N  N305  1  0.08534260  0.21170177  0.37909426  1  -0.742792  -0.002795  -0.259546  -0.127751  -0.002641  3.56353  -0.001
N  N306  1  0.98085135  0.90904674  0.80886085  1  -0.711645  -0.088819  -0.293161  -0.16288  -0.08922  3.546722  -0.07
N  N307  1  0.03297783  0.87218847  0.75461645  1  -0.747096  -0.042535  -0.282653  -0.087743  -0.042011  3.636905  -0.031
N  N308  1  0.00235590  0.60126179  0.70203511  1  -0.70594  -0.090463  -0.292268  -0.159242  -0.090771  3.553426  -0.071
N  N309  1  0.04326233  0.63968507  0.76054799  1  -0.750497  -0.042674  -0.279789  -0.08396  -0.042585  3.650782  -0.032
N  N310  1  0.16919759  0.31550438  0.17445275  1  -0.719479  -0.020491  -0.302837  -0.129206  -0.020602  3.58536  -0.016
N  N311  1  0.10808138  0.28541145  0.12341149  1  -0.76056  -0.00853  -0.260194  -0.126879  -0.00839  3.57373  -0.006
N  N312  1  0.08854778  0.38058878  0.48430822  1  -0.712812  0.115423  -0.260707  -0.124987  0.115507  3.563482  0.089
N  N313  1  0.11228692  0.45495615  0.49727641  1  -0.70419  0.038273  -0.226957  -0.180329  0.034915  3.291184  0.022
N  N314  1  0.37064912  0.62457046  0.01322470  1  -0.710333  0.103886  -0.260587  -0.133541  0.103803  3.555568  0.08
N  N315  1  0.38177562  0.54956991  0.98982730  1  -0.680957  0.036078  -0.225314  -0.173631  0.03285  3.284659  0.021
N  N316  1  0.66110755  0.30882365  0.66295177  1  -0.719893  0.016885  -0.303166  -0.129156  0.017007  3.590986  0.013
N  N317  1  0.58527502  0.28752680  0.62086228  1  -0.746251  0.00507  -0.260528  -0.127468  0.004559  3.564991  0.003
N  N318  1  0.48124963  0.59156217  0.19152393  1  -0.712512  0.111282  -0.290692  -0.159024  0.111546  3.539915  0.086
N  N319  1  0.53407522  0.62769033  0.24560665  1  -0.751027  0.057667  -0.281514  -0.086727  0.057425  3.640283  0.042
N  N320  1  0.50341679  0.89878946  0.29744251  1  -0.721702  -0.09907  -0.291392  -0.157984  -0.099494  3.552121  -0.077
N  N321  1  0.54519226  0.86000408  0.23950686  1  -0.745001  -0.048944  -0.279584  -0.083283  -0.049049  3.649379  -0.037
N  N322  1  0.66935704  0.18306763  0.82528134  1  -0.717671  -0.018922  -0.302501  -0.128211  -0.019016  3.586943  -0.015
N  N323  1  0.60798667  0.21306163  0.87605792  1  -0.745706  -0.007027  -0.260787  -0.123454  -0.007153  3.579459  -0.005
N  N324  1  0.58786797  0.11719104  0.51677572  1  -0.724926  0.106736  -0.259371  -0.124926  0.107194  3.563362  0.083
N  N325  1  0.61241836  0.04282856  0.50415006  1  -0.676014  0.036004  -0.227643  -0.182416  0.033107  3.287669  0.021
N  N326  1  0.87006044  0.87647101  0.98780610  1  -0.746428  0.09513  -0.25892  -0.131158  0.095169  3.55758  0.073
N  N327  1  0.88123071  0.95122010  0.01195726  1  -0.671721  0.032384  -0.224915  -0.173322  0.029631  3.282734  0.018
N  N328  1  0.83868719  0.80995568  0.66271684  1  -0.713243  -0.012758  -0.302853  -0.12821  -0.012747  3.591106  -0.01
N  N329  1  0.91438303  0.78825799  0.62075489  1  -0.741651  -0.002756  -0.260007  -0.128537  -0.002608  3.564737  -0.001
N  N330  1  0.01917718  0.09108835  0.19116729  1  -0.712917  -0.088365  -0.29332  -0.161963  -0.088776  3.548047  -0.069
N  N331  1  0.96691549  0.12789716  0.24534834  1  -0.747513  -0.042311  -0.283166  -0.08916  -0.0418  3.63946  -0.031
N  N332  1  0.99778316  0.39872184  0.29786176  1  -0.706861  -0.090233  -0.292789  -0.159533  -0.090534  3.554727  -0.07
N  N333  1  0.95675216  0.36033264  0.23939498  1  -0.75214  -0.042619  -0.279815  -0.083703  -0.042546  3.651627  -0.032
N  N334  1  0.83070639  0.68456860  0.82552200  1  -0.718808  -0.020366  -0.303292  -0.129782  -0.020475  3.585886  -0.016
N  N335  1  0.89182264  0.71465734  0.87657900  1  -0.760922  -0.008518  -0.259563  -0.126642  -0.008379  3.57225  -0.006
N  N336  1  0.91163752  0.61906953  0.51567510  1  -0.704953  0.115734  -0.259114  -0.121971  0.115888  3.560526  0.089
N  N337  1  0.88775265  0.54472830  0.50279375  1  -0.704752  0.038366  -0.227794  -0.182489  0.035024  3.291258  0.022
N  N338  1  0.62938059  0.37538042  0.98682622  1  -0.713088  0.104115  -0.260824  -0.134267  0.104049  3.555952  0.08
N  N339  1  0.61819556  0.45035709  0.01031055  1  -0.67868  0.036147  -0.225671  -0.173761  0.032905  3.285533  0.021
N  N340  1  0.33871672  0.69114925  0.33704285  1  -0.719934  0.016766  -0.303164  -0.129443  0.01689  3.590886  0.013
N  N341  1  0.41451878  0.71247866  0.37915942  1  -0.745685  0.005016  -0.260435  -0.126825  0.004509  3.565684  0.003
N  N342  1  0.51865531  0.40842810  0.80848039  1  -0.712157  0.111221  -0.290328  -0.158798  0.111484  3.539932  0.086
N  N343  1  0.46583187  0.37229359  0.75440495  1  -0.749637  0.057656  -0.281888  -0.08682  0.05742  3.640974  0.042
N  N344  1  0.49659212  0.10127661  0.70261051  1  -0.721319  -0.098996  -0.291503  -0.158435  -0.099406  3.552816  -0.077
N  N345  1  0.45477198  0.14007210  0.76051742  1  -0.743032  -0.048885  -0.279817  -0.082991  -0.048988  3.649802  -0.037
N  N346  1  0.33046631  0.81700769  0.17473350  1  -0.721687  -0.01883  -0.302419  -0.127396  -0.018928  3.586433  -0.015
N  N347  1  0.39182611  0.78698935  0.12395395  1  -0.74326  -0.007011  -0.260724  -0.123798  -0.00714  3.579528  -0.005
N  N348  1  0.41207619  0.88295794  0.48319917  1  -0.725842  0.106628  -0.259339  -0.125175  0.107082  3.561105  0.082
N  N349  1  0.38738141  0.95728803  0.49579914  1  -0.678746  0.035957  -0.22727  -0.182323  0.033043  3.287352  0.021
N  N350  1  0.12999434  0.12368648  0.01227991  1  -0.747613  0.095128  -0.259144  -0.130528  0.095167  3.556495  0.073
N  N351  1  0.11874254  0.04895902  0.98809090  1  -0.671411  0.032435  -0.225122  -0.174402  0.029694  3.281242  0.018
