# generated using pymatgen
data_ZnH21C24N5O4
_symmetry_space_group_name_H-M   'P 1'
_cell_length_a   14.12912420
_cell_length_b   15.93966756
_cell_length_c   23.46067144
_cell_angle_alpha   89.99990264
_cell_angle_beta   89.99979678
_cell_angle_gamma   90.00033903
_symmetry_Int_Tables_number   1
_chemical_formula_structural   ZnH21C24N5O4
_chemical_formula_sum   'Zn8 H168 C192 N40 O32'
_cell_volume   5283.66093003
_cell_formula_units_Z   8
loop_
 _symmetry_equiv_pos_site_id
 _symmetry_equiv_pos_as_xyz
  1  'x, y, z'
loop_
 _atom_site_type_symbol
 _atom_site_label
 _atom_site_symmetry_multiplicity
 _atom_site_fract_x
 _atom_site_fract_y
 _atom_site_fract_z
 _atom_site_occupancy
 _atom_site_pbe_bader_charge
 _atom_site_pbe_bader_spin_density
 _atom_site_pbe_cm5_charge
 _atom_site_pbe_ddec_charge
 _atom_site_pbe_ddec_spin_density
 _atom_site_pbe_ddec_sum_bond_order
 _atom_site_pbe_magmom
Zn  Zn0  1  0.95428251  0.94600256  0.68919012  1  1.259291  0  0.693405  0.7827  0  2.403969  0
Zn  Zn1  1  0.45428220  0.05399691  0.31081113  1  1.259321  0  0.693409  0.782722  0  2.403829  0
Zn  Zn2  1  0.95428337  0.55399751  0.18918932  1  1.259341  0  0.693403  0.782707  0  2.403859  0
Zn  Zn3  1  0.45427992  0.44600447  0.81081151  1  1.259205  0  0.693393  0.782676  0  2.403884  0
Zn  Zn4  1  0.55488737  0.84635016  0.65965906  1  1.261406  0  0.70199  0.800533  0  2.385576  0
Zn  Zn5  1  0.05488473  0.15365161  0.34034135  1  1.26159  0  0.701992  0.80049  0  2.385674  0
Zn  Zn6  1  0.55488819  0.65364977  0.15966027  1  1.261472  0  0.701954  0.800474  0  2.385613  0
Zn  Zn7  1  0.05488461  0.34634949  0.84034099  1  1.261429  0  0.702007  0.800557  0  2.385521  0
H  H8  1  0.94698230  0.95180864  0.82786689  1  0.135931  0  0.133976  0.099947  0  1.024492  0
H  H9  1  0.44698277  0.04819142  0.17213182  1  0.13591  0  0.134003  0.099993  0  1.024496  0
H  H10  1  0.94698242  0.54819293  0.32786865  1  0.135866  0  0.133998  0.099983  0  1.02443  0
H  H11  1  0.44698266  0.45180838  0.67213219  1  0.135904  0  0.133964  0.099908  0  1.024504  0
H  H12  1  0.83137185  0.11206575  0.70318523  1  0.200863  0  0.122126  0.133545  0  1.020619  0
H  H13  1  0.33137366  0.88793307  0.29681459  1  0.20088  0  0.122119  0.13356  0  1.02061  0
H  H14  1  0.83136716  0.38793850  0.20318701  1  0.200972  0  0.122131  0.133587  0  1.020562  0
H  H15  1  0.33136915  0.61206534  0.79681323  1  0.20093  0  0.122118  0.133548  0  1.020645  0
H  H16  1  0.80227372  0.18285121  0.81144768  1  0.143632  0  0.124922  0.124963  0  1.039628  0
H  H17  1  0.30227286  0.81714621  0.18855263  1  0.143618  0  0.124942  0.12492  0  1.039762  0
H  H18  1  0.80227068  0.31714635  0.31144955  1  0.143614  0  0.124962  0.124962  0  1.039498  0
H  H19  1  0.30226953  0.68285295  0.68855118  1  0.143598  0  0.12494  0.124918  0  1.039608  0
H  H20  1  0.86269726  0.94940486  0.91789808  1  0.049309  0  0.103073  0.110003  0  1.006422  0
H  H21  1  0.36269544  0.05059224  0.08209996  1  0.049775  0  0.103122  0.110097  0  1.00632  0
H  H22  1  0.86269527  0.55059541  0.41790197  1  0.049413  0  0.103108  0.110085  0  1.006358  0
H  H23  1  0.36269602  0.44940295  0.58209948  1  0.049376  0  0.103106  0.110056  0  1.006324  0
H  H24  1  0.88881166  0.24406203  0.99264611  1  0.103068  0  0.108006  0.116782  0  1.023413  0
H  H25  1  0.38880650  0.75593271  0.00735315  1  0.102949  0  0.107972  0.116754  0  1.02343  0
H  H26  1  0.88880751  0.25593617  0.49264720  1  0.10303  0  0.107995  0.116791  0  1.023334  0
H  H27  1  0.38880075  0.74406108  0.50735292  1  0.102637  0  0.108023  0.116825  0  1.02337  0
H  H28  1  0.88768371  0.21717953  0.88968488  1  0.162078  0  0.10416  0.120699  0  1.053096  0
H  H29  1  0.38768166  0.78281645  0.11031396  1  0.161961  0  0.104162  0.120735  0  1.053093  0
H  H30  1  0.88768186  0.28281891  0.38968551  1  0.162105  0  0.104128  0.120679  0  1.053166  0
H  H31  1  0.38767573  0.71718021  0.61031333  1  0.162171  0  0.104123  0.120666  0  1.053268  0
H  H32  1  0.86175647  0.03830396  0.18430665  1  0.141673  0  0.105645  0.131482  0  1.056807  0
H  H33  1  0.36175360  0.96169377  0.81569224  1  0.141537  0  0.105624  0.13138  0  1.056949  0
H  H34  1  0.86174863  0.46169736  0.68430872  1  0.141843  0  0.105649  0.13146  0  1.056747  0
H  H35  1  0.36175507  0.53830476  0.31568975  1  0.141536  0  0.105635  0.13141  0  1.056912  0
H  H36  1  0.84511704  0.88402982  0.19631692  1  0.079561  0  0.10702  0.114365  0  0.9925  0
H  H37  1  0.34512487  0.11596782  0.80368287  1  0.079703  0  0.107077  0.114434  0  0.992404  0
H  H38  1  0.84511963  0.61596903  0.69631470  1  0.079577  0  0.107057  0.114426  0  0.992523  0
H  H39  1  0.34511732  0.38402799  0.30368210  1  0.079536  0  0.107065  0.11437  0  0.99239  0
H  H40  1  0.85372236  0.84425383  0.01446109  1  0.056483  0  0.106914  0.118083  0  0.996483  0
H  H41  1  0.35372161  0.15573696  0.98553825  1  0.056384  0  0.106941  0.118166  0  0.996542  0
H  H42  1  0.85372026  0.65574489  0.51446053  1  0.056499  0  0.106922  0.118055  0  0.996489  0
H  H43  1  0.35371733  0.34425217  0.48553710  1  0.056466  0  0.106945  0.118116  0  0.996452  0
H  H44  1  0.82916265  0.17234247  0.14698202  1  0.07329  0  0.109608  0.084305  0  0.997769  0
H  H45  1  0.32915937  0.82765320  0.85301482  1  0.073291  0  0.109593  0.084311  0  0.997666  0
H  H46  1  0.82916028  0.32765626  0.64698765  1  0.07362  0  0.109606  0.084306  0  0.997757  0
H  H47  1  0.32916103  0.67234067  0.35301473  1  0.073667  0  0.109572  0.084221  0  0.997827  0
H  H48  1  0.84994918  0.23773857  0.08734385  1  0.060945  0  0.110372  0.082096  0  0.986021  0
H  H49  1  0.34994654  0.76225659  0.91265337  1  0.060947  0  0.1104  0.082067  0  0.986073  0
H  H50  1  0.84994568  0.26225917  0.58735126  1  0.060644  0  0.110388  0.082078  0  0.986055  0
H  H51  1  0.34994368  0.73773788  0.41265149  1  0.060987  0  0.110378  0.082046  0  0.986035  0
H  H52  1  0.00110342  0.14774693  0.15972893  1  0.06673  0  0.087631  0.125302  0  1.034696  0
H  H53  1  0.50110079  0.85225519  0.84026946  1  0.066662  0  0.087623  0.125302  0  1.03466  0
H  H54  1  0.00110193  0.35225936  0.65973155  1  0.066555  0  0.087604  0.1253  0  1.034665  0
H  H55  1  0.50110299  0.64774527  0.34026940  1  0.066653  0  0.087656  0.125321  0  1.034667  0
H  H56  1  0.97731787  0.25684461  0.15878965  1  0.042953  0  0.093387  0.130616  0  0.997774  0
H  H57  1  0.47731905  0.74315624  0.84120899  1  0.042912  0  0.093398  0.130628  0  0.997857  0
H  H58  1  0.97732131  0.24315989  0.65879325  1  0.042985  0  0.093404  0.130617  0  0.997905  0
H  H59  1  0.47731773  0.75684221  0.34120838  1  0.042979  0  0.093405  0.130628  0  0.997905  0
H  H60  1  0.02660149  0.20816427  0.09701711  1  0.03502  0  0.087166  0.117075  0  1.02011  0
H  H61  1  0.52659810  0.79183673  0.90298208  1  0.035108  0  0.087172  0.117028  0  1.020125  0
H  H62  1  0.02659818  0.29184105  0.59701895  1  0.035127  0  0.087214  0.117048  0  1.020113  0
H  H63  1  0.52659575  0.70815994  0.40298280  1  0.035084  0  0.087198  0.117061  0  1.020056  0
H  H64  1  0.73690499  0.72816009  0.05501725  1  0.168041  0  0.121501  0.128403  0  1.039892  0
H  H65  1  0.23691232  0.27183260  0.94498362  1  0.168174  0  0.121529  0.128411  0  1.03996  0
H  H66  1  0.73691145  0.77183478  0.55501783  1  0.167657  0  0.121511  0.128411  0  1.0399  0
H  H67  1  0.23690232  0.22816104  0.44498304  1  0.167983  0  0.121488  0.128413  0  1.039955  0
H  H68  1  0.94798714  0.75488438  0.18392082  1  0.238031  0  0.130706  0.114562  0  1.068385  0
H  H69  1  0.44799010  0.24511820  0.81607790  1  0.23794  0  0.130698  0.114519  0  1.068407  0
H  H70  1  0.94798776  0.74511505  0.68392100  1  0.238027  0  0.130722  0.114536  0  1.068505  0
H  H71  1  0.44798098  0.25488251  0.31607558  1  0.238263  0  0.130727  0.114573  0  1.068427  0
H  H72  1  0.78310890  0.57207534  0.09970186  1  0.15664  0  0.124238  0.135666  0  1.003848  0
H  H73  1  0.28310692  0.42791821  0.90030105  1  0.156712  0  0.124217  0.135736  0  1.003865  0
H  H74  1  0.78310649  0.92792091  0.59970013  1  0.156632  0  0.124193  0.135646  0  1.003921  0
H  H75  1  0.28310720  0.07207640  0.40029723  1  0.156658  0  0.12425  0.135666  0  1.003904  0
H  H76  1  0.73416141  0.81148594  0.73722061  1  0.107889  0  0.120826  0.115076  0  1.00994  0
H  H77  1  0.23415945  0.18851300  0.26278197  1  0.107716  0  0.120823  0.115136  0  1.009922  0
H  H78  1  0.73416388  0.68851474  0.23722263  1  0.107885  0  0.120808  0.115069  0  1.009937  0
H  H79  1  0.23415981  0.31148923  0.76277740  1  0.107982  0  0.120834  0.115101  0  1.009976  0
H  H80  1  0.75740841  0.89597383  0.84007607  1  0.128239  0  0.122854  0.11809  0  1.018619  0
H  H81  1  0.25740508  0.10402649  0.15992475  1  0.128306  0  0.122856  0.118027  0  1.018639  0
H  H82  1  0.75740961  0.60402608  0.34007819  1  0.128156  0  0.122845  0.118047  0  1.018614  0
H  H83  1  0.25740529  0.39598177  0.65992349  1  0.128321  0  0.122862  0.118035  0  1.018667  0
H  H84  1  0.52891665  0.00321884  0.74921541  1  0.181952  0  0.150064  0.124064  0  0.965613  0
H  H85  1  0.02891026  0.99678279  0.25078505  1  0.182013  0  0.150055  0.124063  0  0.965544  0
H  H86  1  0.52891623  0.49678246  0.24921750  1  0.182  0  0.150097  0.124125  0  0.965562  0
H  H87  1  0.02890997  0.50322043  0.75078509  1  0.181998  0  0.150046  0.124067  0  0.965458  0
H  H88  1  0.61670300  0.13531273  0.79901177  1  0.138304  0  0.105852  0.118496  0  1.027848  0
H  H89  1  0.11670521  0.86468246  0.20098680  1  0.137972  0  0.105874  0.118562  0  1.027807  0
H  H90  1  0.61670311  0.36468451  0.29901529  1  0.138065  0  0.105872  0.118559  0  1.027791  0
H  H91  1  0.11670086  0.63531633  0.70098626  1  0.138362  0  0.105862  0.118546  0  1.027878  0
H  H92  1  0.60775279  0.23549914  0.87874814  1  0.058763  0  0.107377  0.114909  0  1.015215  0
H  H93  1  0.10776330  0.76449977  0.12125215  1  0.05875  0  0.107397  0.114897  0  1.01517  0
H  H94  1  0.60775506  0.26450099  0.37875050  1  0.058737  0  0.107403  0.114948  0  1.015157  0
H  H95  1  0.10775607  0.73550042  0.62124851  1  0.058242  0  0.107395  0.114899  0  1.015259  0
H  H96  1  0.63086824  0.92555182  0.91579696  1  0.028978  0  0.110062  0.120305  0  0.997348  0
H  H97  1  0.13086091  0.07445098  0.08420158  1  0.028926  0  0.110048  0.120308  0  0.99734  0
H  H98  1  0.63086783  0.57445101  0.41579911  1  0.028906  0  0.110065  0.120311  0  0.997349  0
H  H99  1  0.13086132  0.42555429  0.58420327  1  0.029034  0  0.110072  0.120311  0  0.997348  0
H  H100  1  0.61360309  0.19389447  0.11766594  1  0.041237  0  0.109482  0.122316  0  0.993273  0
H  H101  1  0.11360162  0.80610824  0.88233136  1  0.041238  0  0.109458  0.122285  0  0.993378  0
H  H102  1  0.61360271  0.30611011  0.61766947  1  0.041262  0  0.109454  0.122307  0  0.993437  0
H  H103  1  0.11360413  0.69389573  0.38233124  1  0.041171  0  0.10947  0.122319  0  0.993256  0
H  H104  1  0.61135041  0.06757556  0.17799037  1  0.107583  0  0.104174  0.108633  0  1.075052  0
H  H105  1  0.11134731  0.93242775  0.82200693  1  0.107494  0  0.104165  0.108638  0  1.074967  0
H  H106  1  0.61134945  0.43242823  0.67799461  1  0.107462  0  0.104179  0.108641  0  1.074867  0
H  H107  1  0.11134968  0.56757509  0.32200909  1  0.107549  0  0.104174  0.108633  0  1.075016  0
H  H108  1  0.62112494  0.90573064  0.03031763  1  0.082802  0  0.113304  0.128573  0  0.990678  0
H  H109  1  0.12112600  0.09427273  0.96968519  1  0.082711  0  0.113277  0.128537  0  0.990641  0
H  H110  1  0.62112668  0.59427560  0.53031586  1  0.082684  0  0.113262  0.12851  0  0.990687  0
H  H111  1  0.12112284  0.40572840  0.46968355  1  0.082754  0  0.113271  0.128546  0  0.990673  0
H  H112  1  0.65023434  0.28557223  0.04243782  1  0.036998  0  0.115623  0.089637  0  0.962202  0
H  H113  1  0.15024597  0.71442377  0.95756153  1  0.037086  0  0.115622  0.089719  0  0.962187  0
H  H114  1  0.65023971  0.21442458  0.54243890  1  0.03714  0  0.115629  0.089702  0  0.962181  0
H  H115  1  0.15023848  0.78557455  0.45755918  1  0.037138  0  0.115648  0.08973  0  0.962198  0
H  H116  1  0.66242774  0.29701489  0.96808266  1  0.049547  0  0.113948  0.088903  0  0.959095  0
H  H117  1  0.16243270  0.70298305  0.03191709  1  0.049552  0  0.11396  0.08893  0  0.959034  0
H  H118  1  0.66243385  0.20298343  0.46808381  1  0.049557  0  0.113938  0.08889  0  0.959088  0
H  H119  1  0.16243367  0.79701764  0.53191381  1  0.049604  0  0.113914  0.088849  0  0.959119  0
H  H120  1  0.48414849  0.29217933  0.95676221  1  0.025215  0  0.087067  0.119678  0  1.037906  0
H  H121  1  0.98415878  0.70782030  0.04323600  1  0.025352  0  0.08699  0.119625  0  1.037964  0
H  H122  1  0.48415675  0.20782122  0.45676293  1  0.025275  0  0.08704  0.119639  0  1.037985  0
H  H123  1  0.98415405  0.79217840  0.54323656  1  0.025283  0  0.08705  0.119665  0  1.037996  0
H  H124  1  0.51988060  0.37535047  0.00214750  1  0.067378  0  0.097259  0.135643  0  1.01108  0
H  H125  1  0.01988716  0.62464672  0.99785256  1  0.067326  0  0.097269  0.135575  0  1.011167  0
H  H126  1  0.51988538  0.12464826  0.50214783  1  0.067378  0  0.097246  0.135582  0  1.011026  0
H  H127  1  0.01988380  0.87535082  0.49785180  1  0.067381  0  0.097237  0.135592  0  1.01105  0
H  H128  1  0.47201312  0.28180005  0.03200566  1  0.030054  0  0.088247  0.117483  0  1.001432  0
H  H129  1  0.97202230  0.71819763  0.96799300  1  0.030141  0  0.088241  0.117434  0  1.00144  0
H  H130  1  0.47201993  0.21819773  0.53200673  1  0.030128  0  0.088239  0.117435  0  1.001472  0
H  H131  1  0.97201902  0.78179933  0.46799363  1  0.030115  0  0.088255  0.11747  0  1.001429  0
H  H132  1  0.61989093  0.96304966  0.22951224  1  0.168032  0  0.128084  0.14001  0  1.018306  0
H  H133  1  0.11988994  0.03695245  0.77048888  1  0.168112  0  0.128085  0.140051  0  1.018191  0
H  H134  1  0.61988592  0.53695295  0.72951310  1  0.16807  0  0.128078  0.140034  0  1.018223  0
H  H135  1  0.11988929  0.46304853  0.27048760  1  0.168061  0  0.12809  0.14003  0  1.018283  0
H  H136  1  0.59556606  0.79788676  0.26178382  1  0.133488  0  0.120998  0.115015  0  1.009511  0
H  H137  1  0.09556636  0.20211647  0.73821949  1  0.133756  0  0.121035  0.115059  0  1.009546  0
H  H138  1  0.59555861  0.70211689  0.76178235  1  0.133898  0  0.120996  0.114988  0  1.009643  0
H  H139  1  0.09556107  0.29788509  0.23821754  1  0.133705  0  0.120998  0.114995  0  1.009497  0
H  H140  1  0.59292950  0.80620459  0.08259414  1  0.226439  0  0.133409  0.107979  0  1.066912  0
H  H141  1  0.09293153  0.19379424  0.91740831  1  0.226555  0  0.13335  0.107921  0  1.066991  0
H  H142  1  0.59293262  0.69379447  0.58259269  1  0.226563  0  0.13336  0.107897  0  1.067008  0
H  H143  1  0.09293054  0.30620749  0.41740849  1  0.226562  0  0.13339  0.107949  0  1.066979  0
H  H144  1  0.22987048  0.86813631  0.77975357  1  0.048325  0  0.095651  0.105672  0  1.02452  0
H  H145  1  0.72987164  0.13186512  0.22024603  1  0.048344  0  0.095682  0.105733  0  1.024488  0
H  H146  1  0.22987187  0.63186663  0.27975481  1  0.048317  0  0.095671  0.105701  0  1.024489  0
H  H147  1  0.72987026  0.36814295  0.72024523  1  0.048219  0  0.095639  0.105634  0  1.024546  0
H  H148  1  0.22723308  0.76082732  0.75946692  1  0.017071  0  0.092021  0.105259  0  0.991772  0
H  H149  1  0.72723130  0.23917285  0.24053141  1  0.017081  0  0.092001  0.105243  0  0.99177  0
H  H150  1  0.22723164  0.73917629  0.25946803  1  0.017207  0  0.092004  0.105224  0  0.991819  0
H  H151  1  0.72723061  0.26083203  0.74053116  1  0.017231  0  0.092042  0.105306  0  0.991728  0
H  H152  1  0.23035221  0.91118251  0.67688820  1  0.086143  0  0.107335  0.13307  0  0.956922  0
H  H153  1  0.73034893  0.08881955  0.32311183  1  0.086213  0  0.107343  0.13305  0  0.956976  0
H  H154  1  0.23034976  0.58882258  0.17688906  1  0.086188  0  0.10733  0.133047  0  0.956986  0
H  H155  1  0.73034996  0.41118576  0.82311182  1  0.086079  0  0.107315  0.133014  0  0.957072  0
H  H156  1  0.24455095  0.80565339  0.65623965  1  0.000423  0  0.089004  0.093796  0  1.017588  0
H  H157  1  0.74454968  0.19435000  0.34375992  1  0.000371  0  0.089028  0.093855  0  1.01756  0
H  H158  1  0.24454993  0.69435119  0.15623953  1  0.000335  0  0.089061  0.093901  0  1.017551  0
H  H159  1  0.74454292  0.30565785  0.84376047  1  0.000411  0  0.08905  0.093858  0  1.017563  0
H  H160  1  0.50860728  0.98951757  0.51126046  1  0.043133  0  0.093345  0.104425  0  0.997242  0
H  H161  1  0.00860635  0.01048270  0.48873877  1  0.043132  0  0.093357  0.104426  0  0.997236  0
H  H162  1  0.50860927  0.51048123  0.01126098  1  0.043158  0  0.093337  0.10437  0  0.997297  0
H  H163  1  0.00860012  0.48951716  0.98873697  1  0.043108  0  0.093361  0.104431  0  0.997231  0
H  H164  1  0.60594878  0.95537601  0.46990606  1  0.08338  0  0.101481  0.120481  0  0.96783  0
H  H165  1  0.10595067  0.04462414  0.53009296  1  0.083379  0  0.101448  0.120399  0  0.967815  0
H  H166  1  0.60595160  0.54462530  0.96990734  1  0.083385  0  0.101474  0.120441  0  0.96781  0
H  H167  1  0.10594572  0.45537674  0.03009126  1  0.083477  0  0.101488  0.12044  0  0.967913  0
H  H168  1  0.40967023  0.87153686  0.47092377  1  0.020403  0  0.092238  0.099328  0  0.994042  0
H  H169  1  0.90967097  0.12846551  0.52907801  1  0.020472  0  0.092166  0.0992  0  0.994076  0
H  H170  1  0.40967291  0.62846404  0.97092196  1  0.020509  0  0.09219  0.09925  0  0.99405  0
H  H171  1  0.90966688  0.37153582  0.02907683  1  0.020389  0  0.092217  0.099304  0  0.994047  0
H  H172  1  0.51022493  0.83506150  0.43344990  1  0.06022  0  0.097626  0.108518  0  1.019542  0
H  H173  1  0.01023095  0.16493815  0.56655145  1  0.060342  0  0.097627  0.108461  0  1.019475  0
H  H174  1  0.51023280  0.66494128  0.93344933  1  0.060283  0  0.097611  0.108459  0  1.019416  0
H  H175  1  0.01022519  0.33506339  0.06654947  1  0.060261  0  0.097638  0.108542  0  1.019546  0
C  C176  1  0.90998044  0.00376307  0.80813020  1  0.945559  0  0.137344  0.080652  0  3.93427  0
C  C177  1  0.40998076  0.99623554  0.19186860  1  0.945826  0  0.137327  0.080683  0  3.934304  0
C  C178  1  0.90998284  0.49623632  0.30813229  1  0.94585  0  0.137334  0.080677  0  3.934151  0
C  C179  1  0.40997906  0.50376292  0.69186864  1  0.945582  0  0.137342  0.080747  0  3.934076  0
C  C180  1  0.85039619  0.09043481  0.74550327  1  0.433401  0  1.5e-05  -0.033001  0  3.973228  0
C  C181  1  0.35039556  0.90956537  0.25449565  1  0.433439  0  1.5e-05  -0.033033  0  3.973218  0
C  C182  1  0.85039730  0.40956567  0.24550802  1  0.433887  0  -7e-06  -0.03311  0  3.973543  0
C  C183  1  0.35039303  0.59043388  0.75449388  1  0.433543  0  -3.1e-05  -0.033116  0  3.973475  0
C  C184  1  0.83611076  0.12539842  0.79815948  1  0.210367  0  0.003344  -0.092683  0  3.911557  0
C  C185  1  0.33611233  0.87459917  0.20184033  1  0.21031  0  0.003264  -0.092688  0  3.911691  0
C  C186  1  0.83611377  0.37460311  0.29816000  1  0.209962  0  0.003331  -0.092603  0  3.911747  0
C  C187  1  0.33611145  0.62539762  0.70184023  1  0.210336  0  0.003366  -0.092499  0  3.911644  0
C  C188  1  0.87386072  0.08177202  0.89799548  1  0.225428  0  0.077281  0.136035  0  4.035773  0
C  C189  1  0.37385963  0.91822515  0.10200339  1  0.22525  0  0.077348  0.136249  0  4.035732  0
C  C190  1  0.87386048  0.41822758  0.39799766  1  0.22549  0  0.077416  0.136158  0  4.03583  0
C  C191  1  0.37385845  0.58177084  0.60200249  1  0.225547  0  0.077346  0.1361  0  4.035757  0
C  C192  1  0.86817355  0.01305409  0.93462491  1  0.079309  0  -0.09233  -0.19778  0  3.99531  0
C  C193  1  0.36816959  0.98694054  0.06537269  1  0.079081  0  -0.092363  -0.197945  0  3.995235  0
C  C194  1  0.86817306  0.48694602  0.43462914  1  0.079255  0  -0.092325  -0.197748  0  3.995236  0
C  C195  1  0.36817079  0.51305237  0.56537059  1  0.079252  0  -0.092332  -0.197706  0  3.995128  0
C  C196  1  0.86845936  0.02770049  0.99337429  1  -0.083518  0  -0.019532  -0.009197  0  4.047282  0
C  C197  1  0.36844998  0.97229037  0.00662502  1  -0.082981  0  -0.019437  -0.008964  0  4.046965  0
C  C198  1  0.86845240  0.47229571  0.49337555  1  -0.083263  0  -0.019542  -0.009299  0  4.047341  0
C  C199  1  0.36844633  0.52770206  0.50662376  1  -0.083568  0  -0.0195  -0.009225  0  4.047262  0
C  C200  1  0.87426188  0.11172481  0.01432212  1  0.443999  0  0.098255  0.12478  0  4.017564  0
C  C201  1  0.37424903  0.88826672  0.98567718  1  0.443992  0  0.09831  0.124779  0  4.017482  0
C  C202  1  0.87425213  0.38827073  0.51432256  1  0.444024  0  0.098343  0.124946  0  4.017653  0
C  C203  1  0.37424745  0.61172706  0.48567673  1  0.443962  0  0.09831  0.124908  0  4.017708  0
C  C204  1  0.88076429  0.18006257  0.97724038  1  -0.006159  0  -0.093596  -0.147382  0  3.99306  0
C  C205  1  0.38075805  0.81993087  0.02275891  1  -0.006288  0  -0.093605  -0.14742  0  3.99314  0
C  C206  1  0.88076056  0.31993625  0.47724182  1  -0.006254  0  -0.093703  -0.14758  0  3.993242  0
C  C207  1  0.38075540  0.68006096  0.52275746  1  -0.005727  0  -0.093655  -0.147483  0  3.993358  0
C  C208  1  0.88033550  0.16438979  0.91897948  1  -0.039642  0  -0.095672  -0.162398  0  3.985082  0
C  C209  1  0.38033327  0.83560615  0.08102066  1  -0.039469  0  -0.095714  -0.162498  0  3.985075  0
C  C210  1  0.88033400  0.33560854  0.41897920  1  -0.039635  0  -0.095667  -0.162383  0  3.985151  0
C  C211  1  0.38032840  0.66438929  0.58101966  1  -0.039638  0  -0.095668  -0.162422  0  3.985277  0
C  C212  1  0.86189731  0.97413858  0.04279907  1  0.050863  0  -0.018906  -0.011462  0  4.052776  0
C  C213  1  0.36189586  0.02585538  0.95720068  1  0.050333  0  -0.019159  -0.011799  0  4.053145  0
C  C214  1  0.86189860  0.52586074  0.54280080  1  0.050526  0  -0.018943  -0.011542  0  4.052965  0
C  C215  1  0.36188962  0.47413762  0.45719810  1  0.050874  0  -0.019041  -0.011651  0  4.052908  0
C  C216  1  0.86450635  0.02801340  0.09140096  1  0.246921  0  0.09858  0.131402  0  4.010768  0
C  C217  1  0.36450796  0.97198183  0.90859836  1  0.246947  0  0.098643  0.131383  0  4.01057  0
C  C218  1  0.86450424  0.47198566  0.59140174  1  0.246988  0  0.09859  0.13122  0  4.010732  0
C  C219  1  0.36450228  0.52801397  0.40859716  1  0.246771  0  0.098585  0.131272  0  4.010751  0
C  C220  1  0.85931518  0.99707556  0.14707698  1  0.008981  0  -0.098033  -0.165827  0  3.98448  0
C  C221  1  0.35931631  0.00291902  0.85292277  1  0.009101  0  -0.098117  -0.165759  0  3.984518  0
C  C222  1  0.85930711  0.50292348  0.64707703  1  0.008742  0  -0.098061  -0.165623  0  3.984333  0
C  C223  1  0.35930740  0.49707925  0.35292102  1  0.008937  0  -0.097996  -0.165594  0  3.984365  0
C  C224  1  0.85087557  0.91074437  0.15369365  1  0.016206  0  -0.095777  -0.157452  0  4.009711  0
C  C225  1  0.35087731  0.08925079  0.84630740  1  0.016157  0  -0.095816  -0.157467  0  4.00964  0
C  C226  1  0.85086666  0.58925461  0.65369274  1  0.016206  0  -0.095853  -0.157681  0  4.009841  0
C  C227  1  0.35086711  0.41074745  0.34630576  1  0.016249  0  -0.095909  -0.157545  0  4.009521  0
C  C228  1  0.84836865  0.85693590  0.10612599  1  0.268243  0  0.077003  0.137021  0  4.049779  0
C  C229  1  0.34836552  0.14305988  0.89387422  1  0.268903  0  0.076965  0.136927  0  4.049835  0
C  C230  1  0.84836505  0.64306445  0.60612630  1  0.268193  0  0.077011  0.137069  0  4.049797  0
C  C231  1  0.34836558  0.35693635  0.39387263  1  0.268398  0  0.077103  0.137075  0  4.049813  0
C  C232  1  0.85372310  0.88749183  0.05051375  1  0.011066  0  -0.090489  -0.192184  0  3.969202  0
C  C233  1  0.35371803  0.11250022  0.94948559  1  0.011437  0  -0.09045  -0.19222  0  3.969475  0
C  C234  1  0.85372638  0.61250680  0.55051451  1  0.011191  0  -0.090508  -0.192087  0  3.969181  0
C  C235  1  0.35372041  0.38749089  0.44948440  1  0.011172  0  -0.090544  -0.192184  0  3.969137  0
C  C236  1  0.87708367  0.18318980  0.11083551  1  0.306118  0  -0.050617  0.003071  0  3.901044  0
C  C237  1  0.37707940  0.81680676  0.88916122  1  0.306205  0  -0.050551  0.003208  0  3.901049  0
C  C238  1  0.87707981  0.31680991  0.61084115  1  0.306139  0  -0.050622  0.003119  0  3.901122  0
C  C239  1  0.37707971  0.68318916  0.38916069  1  0.30581  0  -0.050548  0.003304  0  3.901027  0
C  C240  1  0.97712029  0.19963517  0.13268984  1  -0.09703  0  -0.244993  -0.388391  0  3.929259  0
C  C241  1  0.47711746  0.80036693  0.86730881  1  -0.097225  0  -0.245044  -0.388451  0  3.929259  0
C  C242  1  0.97711703  0.30036940  0.63269337  1  -0.097218  0  -0.245065  -0.388431  0  3.929352  0
C  C243  1  0.47711717  0.69963333  0.36730784  1  -0.09726  0  -0.245112  -0.388504  0  3.929293  0
C  C244  1  0.78909844  0.71047914  0.08668680  1  0.247586  0  -0.000885  -0.109822  0  3.921211  0
C  C245  1  0.28910821  0.28951696  0.91331865  1  0.246998  0  -0.000977  -0.109807  0  3.92137  0
C  C246  1  0.78910715  0.78952032  0.58668352  1  0.247871  0  -0.001017  -0.109968  0  3.921571  0
C  C247  1  0.28909526  0.21048080  0.41331297  1  0.247707  0  -0.000814  -0.109871  0  3.921343  0
C  C248  1  0.89679429  0.72682974  0.15491788  1  0.893771  0  0.133561  0.0728  0  3.905376  0
C  C249  1  0.39679231  0.27316755  0.84508051  1  0.893899  0  0.133496  0.07285  0  3.905377  0
C  C250  1  0.89678944  0.77317011  0.65492187  1  0.893728  0  0.133496  0.072871  0  3.90545  0
C  C251  1  0.39679292  0.22683031  0.34508164  1  0.893494  0  0.133563  0.072793  0  3.905505  0
C  C252  1  0.81080435  0.63375360  0.10971003  1  0.422467  0  0.001944  -0.023578  0  3.965178  0
C  C253  1  0.31081193  0.36624449  0.89029665  1  0.422728  0  0.002106  -0.023588  0  3.965035  0
C  C254  1  0.81081144  0.86624842  0.60970539  1  0.422591  0  0.002108  -0.023446  0  3.965031  0
C  C255  1  0.31079917  0.13375594  0.39028808  1  0.422332  0  0.001901  -0.023576  0  3.965316  0
C  C256  1  0.69476277  0.86355089  0.75503724  1  0.448869  0  0.001172  -0.027822  0  4.005029  0
C  C257  1  0.19476199  0.13644722  0.24496627  1  0.448913  0  0.001049  -0.028102  0  4.004996  0
C  C258  1  0.69476348  0.63645079  0.25503975  1  0.44815  0  0.001207  -0.027854  0  4.004837  0
C  C259  1  0.19476198  0.36355359  0.74496334  1  0.448801  0  0.001062  -0.028042  0  4.004999  0
C  C260  1  0.70712162  0.90428571  0.80583243  1  0.272672  0  -0.00056  -0.103507  0  3.941243  0
C  C261  1  0.20711945  0.09571246  0.19416893  1  0.272656  0  -0.000578  -0.103389  0  3.941249  0
C  C262  1  0.70712277  0.59571277  0.30583498  1  0.273251  0  -0.000534  -0.103452  0  3.941196  0
C  C263  1  0.20711972  0.40429356  0.69416723  1  0.272629  0  -0.00054  -0.103349  0  3.941118  0
C  C264  1  0.58933901  0.96365496  0.75821922  1  0.994565  0  0.161049  0.127168  0  3.872697  0
C  C265  1  0.08933333  0.03634385  0.24178111  1  0.994278  0  0.161017  0.127064  0  3.872618  0
C  C266  1  0.58933905  0.53634616  0.25822142  1  0.994179  0  0.161022  0.126995  0  3.872724  0
C  C267  1  0.08933400  0.46365641  0.74177977  1  0.99397  0  0.161055  0.127097  0  3.872558  0
C  C268  1  0.62782064  0.02529911  0.85338239  1  0.181778  0  0.077899  0.135101  0  4.043662  0
C  C269  1  0.12781400  0.97470179  0.14661871  1  0.181874  0  0.078004  0.135062  0  4.04362  0
C  C270  1  0.62781936  0.47470245  0.35338365  1  0.181719  0  0.077966  0.134971  0  4.043657  0
C  C271  1  0.12781599  0.52530409  0.64661703  1  0.181755  0  0.07787  0.134838  0  4.043525  0
C  C272  1  0.61899451  0.11174946  0.84262818  1  0.020217  0  -0.091696  -0.158999  0  4.001947  0
C  C273  1  0.11898723  0.88825014  0.15737038  1  0.019936  0  -0.091742  -0.159066  0  4.002102  0
C  C274  1  0.61898841  0.38825208  0.34263082  1  0.020114  0  -0.091715  -0.158978  0  4.001983  0
C  C275  1  0.11899404  0.61175379  0.65736987  1  0.019793  0  -0.091662  -0.158984  0  4.001861  0
C  C276  1  0.61431558  0.16868032  0.88760768  1  0.024033  0  -0.096335  -0.1652  0  4.008256  0
C  C277  1  0.11431597  0.83131988  0.11239132  1  0.024608  0  -0.096302  -0.165083  0  4.008311  0
C  C278  1  0.61431264  0.33132046  0.38761039  1  0.024561  0  -0.096347  -0.165227  0  4.008357  0
C  C279  1  0.11431962  0.66868350  0.61238946  1  0.02486  0  -0.096382  -0.16513  0  4.00829  0
C  C280  1  0.61854700  0.13726743  0.94321097  1  0.300711  0  0.099857  0.129411  0  4.017609  0
C  C281  1  0.11854792  0.86273091  0.05678803  1  0.300446  0  0.099782  0.12942  0  4.017647  0
C  C282  1  0.61854356  0.36273260  0.44321406  1  0.300283  0  0.099828  0.129331  0  4.017751  0
C  C283  1  0.11855278  0.63727075  0.55678578  1  0.304258  0  0.099902  0.129439  0  4.017662  0
C  C284  1  0.62232115  0.04933523  0.95383859  1  0.057623  0  -0.016329  -0.003004  0  4.055476  0
C  C285  1  0.12232414  0.95066124  0.04616210  1  0.057785  0  -0.016386  -0.003166  0  4.055707  0
C  C286  1  0.62232537  0.45066354  0.45383902  1  0.057826  0  -0.016355  -0.002989  0  4.055461  0
C  C287  1  0.12232204  0.54933983  0.54615996  1  0.054106  0  -0.016364  -0.003059  0  4.055656  0
C  C288  1  0.62762554  0.99307957  0.90857292  1  0.090169  0  -0.086105  -0.188264  0  3.975559  0
C  C289  1  0.12762338  0.00692195  0.09142606  1  0.090126  0  -0.086122  -0.188192  0  3.97545  0
C  C290  1  0.62762963  0.50692263  0.40857472  1  0.090125  0  -0.086119  -0.188218  0  3.975471  0
C  C291  1  0.12762282  0.49308266  0.59142596  1  0.090136  0  -0.086105  -0.188177  0  3.975655  0
C  C292  1  0.62078449  0.03882551  0.01468389  1  0.033598  0  -0.016034  -0.004715  0  4.059853  0
C  C293  1  0.12078629  0.96117284  0.98531638  1  0.033469  0  -0.01603  -0.004692  0  4.059811  0
C  C294  1  0.62078939  0.46117372  0.51468553  1  0.034034  0  -0.016072  -0.004822  0  4.059848  0
C  C295  1  0.12078564  0.53882651  0.48531388  1  0.033605  0  -0.016023  -0.004676  0  4.059741  0
C  C296  1  0.61836487  0.12094324  0.03875008  1  0.403369  0  0.096637  0.124003  0  4.029937  0
C  C297  1  0.11837122  0.87905760  0.96124849  1  0.403475  0  0.096713  0.124247  0  4.02988  0
C  C298  1  0.61837347  0.37905905  0.53875309  1  0.402774  0  0.096713  0.124147  0  4.030023  0
C  C299  1  0.11836474  0.62094243  0.46124803  1  0.403304  0  0.096661  0.124183  0  4.029941  0
C  C300  1  0.61588688  0.13201617  0.09784812  1  -0.052998  0  -0.099582  -0.169095  0  4.013789  0
C  C301  1  0.11588641  0.86798404  0.90215002  1  -0.053102  0  -0.099554  -0.169101  0  4.013801  0
C  C302  1  0.61588903  0.36798596  0.59785158  1  -0.053126  0  -0.099573  -0.169225  0  4.014093  0
C  C303  1  0.11588568  0.63201738  0.40214998  1  -0.052885  0  -0.099608  -0.169262  0  4.01377  0
C  C304  1  0.61506341  0.06039104  0.13196100  1  0.002915  0  -0.100589  -0.176965  0  4.018505  0
C  C305  1  0.11505797  0.93960979  0.86803885  1  0.003133  0  -0.100566  -0.176937  0  4.018367  0
C  C306  1  0.61505897  0.43961226  0.63196267  1  0.003268  0  -0.100649  -0.176878  0  4.018289  0
C  C307  1  0.11506171  0.56039171  0.36803846  1  0.00286  0  -0.100571  -0.176865  0  4.018364  0
C  C308  1  0.61643040  0.97933872  0.10819516  1  0.320235  0  0.082769  0.143681  0  4.039246  0
C  C309  1  0.11642859  0.02066086  0.89180639  1  0.319843  0  0.082761  0.143665  0  4.039296  0
C  C310  1  0.61642811  0.52066229  0.60819561  1  0.319818  0  0.082777  0.143655  0  4.039143  0
C  C311  1  0.11642734  0.47933792  0.39180339  1  0.319841  0  0.082747  0.143605  0  4.039177  0
C  C312  1  0.62000684  0.96800921  0.04934433  1  -0.027346  0  -0.084785  -0.187727  0  3.970128  0
C  C313  1  0.11999980  0.03199228  0.95065721  1  -0.026943  0  -0.084822  -0.187728  0  3.970137  0
C  C314  1  0.62000250  0.53199385  0.54934477  1  -0.026898  0  -0.084747  -0.187637  0  3.970117  0
C  C315  1  0.11999989  0.46800701  0.45065465  1  -0.026926  0  -0.084786  -0.187748  0  3.970043  0
C  C316  1  0.61678506  0.27022871  0.00144117  1  0.330653  0  -0.046846  0.003941  0  3.922594  0
C  C317  1  0.11679514  0.72977276  0.99855655  1  0.3305  0  -0.046875  0.003858  0  3.922355  0
C  C318  1  0.61679336  0.22977304  0.50144265  1  0.330504  0  -0.046854  0.003853  0  3.922372  0
C  C319  1  0.11679179  0.77022780  0.49855634  1  0.330447  0  -0.046807  0.003984  0  3.922531  0
C  C320  1  0.51717453  0.30685721  0.99790677  1  -0.054232  0  -0.241576  -0.383146  0  3.932299  0
C  C321  1  0.01718313  0.69314185  0.00209244  1  -0.054375  0  -0.241514  -0.382936  0  3.932011  0
C  C322  1  0.51718128  0.19314404  0.49790580  1  -0.054379  0  -0.241544  -0.382977  0  3.93207  0
C  C323  1  0.01718063  0.80685628  0.50209341  1  -0.054404  0  -0.241584  -0.383105  0  3.932119  0
C  C324  1  0.61215785  0.90682265  0.20390048  1  0.255621  0  0.003399  -0.09558  0  3.89131  0
C  C325  1  0.11216699  0.09318130  0.79610193  1  0.255879  0  0.003528  -0.09544  0  3.890966  0
C  C326  1  0.61216029  0.59318249  0.70389999  1  0.255932  0  0.003471  -0.095472  0  3.891011  0
C  C327  1  0.11215818  0.40682021  0.29610072  1  0.255914  0  0.003459  -0.095522  0  3.891233  0
C  C328  1  0.60002161  0.82456680  0.21938816  1  0.374581  0  -0.002643  -0.037077  0  4.002669  0
C  C329  1  0.10002856  0.17543771  0.78061385  1  0.374156  0  -0.002793  -0.037347  0  4.002945  0
C  C330  1  0.60002176  0.67543886  0.71938843  1  0.373897  0  -0.002698  -0.037199  0  4.002973  0
C  C331  1  0.10001991  0.32456377  0.28061358  1  0.374184  0  -0.002714  -0.037183  0  4.002913  0
C  C332  1  0.59897582  0.82760713  0.12642620  1  0.936241  0  0.141333  0.092027  0  3.901458  0
C  C333  1  0.09896876  0.17239612  0.87357581  1  0.935966  0  0.141582  0.092239  0  3.90147  0
C  C334  1  0.59897384  0.67239688  0.62642605  1  0.936047  0  0.141519  0.092215  0  3.901362  0
C  C335  1  0.09897641  0.32760575  0.37357554  1  0.936033  0  0.141345  0.092025  0  3.901468  0
C  C336  1  0.10049091  0.82933785  0.73900852  1  1.547566  0  0.19734  0.625693  0  4.1774  0
C  C337  1  0.60048925  0.17065600  0.26099008  1  1.548005  0  0.197358  0.625824  0  4.177553  0
C  C338  1  0.10048972  0.67065448  0.23901142  1  1.547869  0  0.197329  0.625762  0  4.17755  0
C  C339  1  0.60048690  0.32934690  0.76098975  1  1.548048  0  0.197193  0.625544  0  4.177613  0
C  C340  1  0.20746211  0.82448733  0.74606916  1  -0.024328  0  -0.172792  -0.285056  0  3.947964  0
C  C341  1  0.70745841  0.17551336  0.25393049  1  -0.024455  0  -0.172796  -0.285117  0  3.947976  0
C  C342  1  0.20746096  0.67551495  0.24606907  1  -0.024563  0  -0.17278  -0.285035  0  3.947976  0
C  C343  1  0.70745815  0.32449326  0.75393016  1  -0.024418  0  -0.172841  -0.285074  0  3.948131  0
C  C344  1  0.25822276  0.85009973  0.69113588  1  -0.040233  0  -0.166985  -0.274344  0  3.93233  0
C  C345  1  0.75822140  0.14990247  0.30886494  1  -0.04021  0  -0.16702  -0.274348  0  3.932299  0
C  C346  1  0.25822214  0.64990421  0.19113497  1  -0.040187  0  -0.167033  -0.274362  0  3.932325  0
C  C347  1  0.75821847  0.35010365  0.80886458  1  -0.040127  0  -0.166933  -0.274241  0  3.932541  0
C  C348  1  0.36474459  0.85972693  0.69905583  1  1.577467  0  0.19791  0.620947  0  4.189594  0
C  C349  1  0.86474391  0.14027584  0.30094434  1  1.577448  0  0.197892  0.620831  0  4.189742  0
C  C350  1  0.36474391  0.64027630  0.19905620  1  1.577357  0  0.197861  0.620814  0  4.189825  0
C  C351  1  0.86473964  0.35972710  0.80094653  1  1.577353  0  0.197847  0.620766  0  4.18984  0
C  C352  1  0.56935580  0.87370286  0.53974601  1  1.57071  0  0.203979  0.639158  0  4.136268  0
C  C353  1  0.06935794  0.12629710  0.46025352  1  1.570573  0  0.204048  0.639236  0  4.136133  0
C  C354  1  0.56935927  0.62629430  0.03974725  1  1.570922  0  0.204083  0.639317  0  4.136271  0
C  C355  1  0.06935163  0.37370189  0.96025355  1  1.570947  0  0.204015  0.639214  0  4.135986  0
C  C356  1  0.54154479  0.93396132  0.49197201  1  -0.05889  0  -0.165972  -0.267547  0  3.929541  0
C  C357  1  0.04154412  0.06603913  0.50802843  1  -0.058875  0  -0.165908  -0.267393  0  3.929369  0
C  C358  1  0.54154705  0.56603897  0.99197326  1  -0.058929  0  -0.165923  -0.267423  0  3.929441  0
C  C359  1  0.04153903  0.43396210  0.00802803  1  -0.05929  0  -0.165976  -0.267458  0  3.92962  0
C  C360  1  0.47498156  0.89181665  0.44954194  1  -0.026831  0  -0.169206  -0.270603  0  3.956503  0
C  C361  1  0.97498558  0.10818418  0.55046012  1  -0.026964  0  -0.169146  -0.27039  0  3.956312  0
C  C362  1  0.47498835  0.60818590  0.94953973  1  -0.027107  0  -0.169172  -0.270426  0  3.956235  0
C  C363  1  0.97498233  0.39181681  0.05045764  1  -0.026841  0  -0.169211  -0.270644  0  3.956642  0
C  C364  1  0.44615278  0.94436918  0.39845602  1  1.558998  0  0.190943  0.615603  0  4.178961  0
C  C365  1  0.94615402  0.05562648  0.60154482  1  1.558622  0  0.190952  0.61553  0  4.179068  0
C  C366  1  0.44615992  0.55563084  0.89845601  1  1.559006  0  0.190934  0.615494  0  4.179072  0
C  C367  1  0.94615396  0.44437047  0.10154356  1  1.559222  0  0.191  0.615649  0  4.178928  0
N  N368  1  0.89687438  0.01476584  0.75238329  1  -1.216418  0  -0.356822  -0.286118  0  3.631826  0
N  N369  1  0.39687359  0.98523458  0.24761553  1  -1.216608  0  -0.356771  -0.286062  0  3.63188  0
N  N370  1  0.89687529  0.48523424  0.25238454  1  -1.216774  0  -0.356814  -0.286071  0  3.631922  0
N  N371  1  0.39687126  0.51476556  0.74761684  1  -1.216489  0  -0.356766  -0.286016  0  3.631651  0
N  N372  1  0.87356077  0.06984901  0.83766942  1  -1.26401  0  -0.223282  0.016419  0  3.797721  0
N  N373  1  0.37356294  0.93014816  0.16232945  1  -1.263992  0  -0.223345  0.016195  0  3.797817  0
N  N374  1  0.87356414  0.43014949  0.33767201  1  -1.264003  0  -0.223417  0.016148  0  3.797858  0
N  N375  1  0.37356027  0.56984893  0.66232814  1  -1.264077  0  -0.223373  0.016115  0  3.797784  0
N  N376  1  0.87127284  0.11048129  0.07331915  1  -1.231725  0  -0.251839  -0.067977  0  3.690201  0
N  N377  1  0.37126388  0.88951022  0.92667887  1  -1.231891  0  -0.251745  -0.067763  0  3.690125  0
N  N378  1  0.87126523  0.38951409  0.57332045  1  -1.231665  0  -0.251745  -0.067776  0  3.689981  0
N  N379  1  0.37126513  0.61048369  0.42667970  1  -1.231713  0  -0.251782  -0.067901  0  3.690189  0
N  N380  1  0.84387831  0.76874520  0.11573745  1  -1.270736  0  -0.228995  0.006379  0  3.833596  0
N  N381  1  0.34388290  0.23125181  0.88426362  1  -1.271439  0  -0.228965  0.006337  0  3.833577  0
N  N382  1  0.84387884  0.73125572  0.61573808  1  -1.270772  0  -0.228919  0.006419  0  3.833752  0
N  N383  1  0.34387813  0.26874442  0.38426256  1  -1.27073  0  -0.229021  0.006389  0  3.83376  0
N  N384  1  0.87815309  0.64488696  0.15195043  1  -1.246368  0  -0.360462  -0.292802  0  3.633233  0
N  N385  1  0.37815519  0.35511149  0.84805014  1  -1.246341  0  -0.360463  -0.292824  0  3.633003  0
N  N386  1  0.87815445  0.85511406  0.65195177  1  -1.24633  0  -0.360476  -0.292877  0  3.633125  0
N  N387  1  0.37814958  0.14488752  0.34804752  1  -1.246325  0  -0.360476  -0.292785  0  3.633248  0
N  N388  1  0.62073079  0.90077861  0.72598144  1  -1.263321  0  -0.354184  -0.282102  0  3.593874  0
N  N389  1  0.12072605  0.09921911  0.27402053  1  -1.263241  0  -0.353993  -0.281833  0  3.593723  0
N  N390  1  0.62072983  0.59922213  0.22598357  1  -1.263065  0  -0.354171  -0.281997  0  3.593752  0
N  N391  1  0.12072630  0.40078061  0.77401798  1  -1.26312  0  -0.354063  -0.28195  0  3.593954  0
N  N392  1  0.64035549  0.96809552  0.80717599  1  -1.266  0  -0.222032  0.011939  0  3.811912  0
N  N393  1  0.14035290  0.03190418  0.19282424  1  -1.266005  0  -0.222071  0.011948  0  3.812206  0
N  N394  1  0.64035691  0.53190511  0.30717734  1  -1.265692  0  -0.222088  0.012057  0  3.811955  0
N  N395  1  0.14035430  0.46810212  0.69282246  1  -1.265554  0  -0.222062  0.012037  0  3.811709  0
N  N396  1  0.61844436  0.17940375  0.99491534  1  -1.231029  0  -0.251922  -0.073846  0  3.697472  0
N  N397  1  0.11844743  0.82059646  0.00508237  1  -1.230809  0  -0.251873  -0.074103  0  3.697698  0
N  N398  1  0.61844701  0.32059803  0.49491849  1  -1.230619  0  -0.251863  -0.073797  0  3.697612  0
N  N399  1  0.11844691  0.67940407  0.50508136  1  -1.230968  0  -0.251888  -0.07398  0  3.697684  0
N  N400  1  0.61099731  0.90799966  0.14459400  1  -1.237413  0  -0.223065  0.015024  0  3.792642  0
N  N401  1  0.11099902  0.09200303  0.85540885  1  -1.237268  0  -0.223173  0.014909  0  3.792633  0
N  N402  1  0.61099762  0.59200437  0.64459351  1  -1.23734  0  -0.223184  0.014836  0  3.792563  0
N  N403  1  0.11099729  0.40799895  0.35540678  1  -1.237452  0  -0.223065  0.015055  0  3.792641  0
N  N404  1  0.59257951  0.77585190  0.17067561  1  -1.255543  0  -0.358439  -0.294152  0  3.600382  0
N  N405  1  0.09257801  0.22414881  0.82932599  1  -1.255654  0  -0.358521  -0.294165  0  3.60073  0
N  N406  1  0.59257929  0.72414945  0.67067583  1  -1.255708  0  -0.358457  -0.294083  0  3.600501  0
N  N407  1  0.09257965  0.27585126  0.32932535  1  -1.255607  0  -0.358433  -0.294073  0  3.600504  0
O  O408  1  0.06979714  0.90498114  0.72919762  1  -1.198348  0  -0.348485  -0.586994  0  2.332745  0
O  O409  1  0.56980271  0.09501067  0.27080744  1  -1.198613  0  -0.348527  -0.58702  0  2.332694  0
O  O410  1  0.06980323  0.59501105  0.22919165  1  -1.198644  0  -0.348481  -0.586943  0  2.332823  0
O  O411  1  0.56979874  0.40499142  0.77080787  1  -1.198753  0  -0.348385  -0.586856  0  2.332722  0
O  O412  1  0.05078272  0.76468392  0.74242497  1  -1.185989  0  -0.345848  -0.574061  0  2.101301  0
O  O413  1  0.55077585  0.23530653  0.25756095  1  -1.1861  0  -0.345841  -0.574157  0  2.101281  0
O  O414  1  0.05077488  0.73530500  0.24243844  1  -1.185975  0  -0.345875  -0.574213  0  2.101222  0
O  O415  1  0.55077590  0.26469360  0.75756155  1  -1.186067  0  -0.345793  -0.574055  0  2.101277  0
O  O416  1  0.41513559  0.83753656  0.65533325  1  -1.180959  0  -0.343666  -0.571609  0  2.317096  0
O  O417  1  0.91513410  0.16246521  0.34466724  1  -1.181038  0  -0.343678  -0.571538  0  2.317178  0
O  O418  1  0.41513647  0.66246452  0.15533360  1  -1.180923  0  -0.343617  -0.571482  0  2.317226  0
O  O419  1  0.91513110  0.33753537  0.84466817  1  -1.181045  0  -0.343645  -0.571489  0  2.317175  0
O  O420  1  0.57845895  0.90838799  0.58946237  1  -1.178914  0  -0.354073  -0.584736  0  2.304754  0
O  O421  1  0.07845902  0.09161202  0.41053671  1  -1.178759  0  -0.354127  -0.584837  0  2.30473  0
O  O422  1  0.57845936  0.59160973  0.08946451  1  -1.178837  0  -0.35408  -0.584822  0  2.304763  0
O  O423  1  0.07845225  0.40838714  0.91053670  1  -1.178928  0  -0.354112  -0.584796  0  2.304635  0
O  O424  1  0.39722285  0.88821689  0.74464825  1  -1.194152  0  -0.330385  -0.573018  0  2.16157  0
O  O425  1  0.89721872  0.11178668  0.25535100  1  -1.194047  0  -0.330373  -0.573001  0  2.161568  0
O  O426  1  0.39721844  0.61178577  0.24464950  1  -1.194089  0  -0.330382  -0.573036  0  2.161586  0
O  O427  1  0.89721959  0.38821842  0.75535187  1  -1.19402  0  -0.330407  -0.573053  0  2.161497  0
O  O428  1  0.51228661  0.98796502  0.37391528  1  -1.179046  0  -0.35506  -0.569012  0  2.224865  0
O  O429  1  0.01229054  0.01203464  0.62608649  1  -1.178774  0  -0.355108  -0.569056  0  2.225  0
O  O430  1  0.51229275  0.51203666  0.87391446  1  -1.178961  0  -0.355096  -0.569004  0  2.224928  0
O  O431  1  0.01228794  0.48796426  0.12608518  1  -1.179325  0  -0.355083  -0.569053  0  2.224887  0
O  O432  1  0.58108950  0.79721323  0.52915981  1  -1.207876  0  -0.340154  -0.581862  0  2.115868  0
O  O433  1  0.08109349  0.20278679  0.47084011  1  -1.207883  0  -0.340167  -0.581877  0  2.115906  0
O  O434  1  0.58109560  0.70278340  0.02916011  1  -1.208187  0  -0.340265  -0.581975  0  2.115983  0
O  O435  1  0.08108810  0.29721223  0.97084024  1  -1.207787  0  -0.340178  -0.581901  0  2.115863  0
O  O436  1  0.36190415  0.94227734  0.38135516  1  -1.200737  0  -0.347204  -0.590614  0  2.100917  0
O  O437  1  0.86190530  0.05771474  0.61864331  1  -1.200671  0  -0.347151  -0.590523  0  2.100962  0
O  O438  1  0.36191060  0.55772102  0.88135641  1  -1.200496  0  -0.347158  -0.590568  0  2.100865  0
O  O439  1  0.86190451  0.44228047  0.11864248  1  -1.200684  0  -0.347207  -0.590599  0  2.100958  0
