# generated using pymatgen
data_ZnH17C26O5
_symmetry_space_group_name_H-M   'P 1'
_cell_length_a   12.95179348
_cell_length_b   26.67962166
_cell_length_c   26.67968843
_cell_angle_alpha   65.74946100
_cell_angle_beta   75.95356244
_cell_angle_gamma   75.95354082
_symmetry_Int_Tables_number   1
_chemical_formula_structural   ZnH17C26O5
_chemical_formula_sum   'Zn8 H136 C208 O40'
_cell_volume   8046.98222037
_cell_formula_units_Z   8
loop_
 _symmetry_equiv_pos_site_id
 _symmetry_equiv_pos_as_xyz
  1  'x, y, z'
loop_
 _atom_site_type_symbol
 _atom_site_label
 _atom_site_symmetry_multiplicity
 _atom_site_fract_x
 _atom_site_fract_y
 _atom_site_fract_z
 _atom_site_occupancy
 _atom_site_pbe_bader_charge
 _atom_site_pbe_bader_spin_density
 _atom_site_pbe_cm5_charge
 _atom_site_pbe_ddec_charge
 _atom_site_pbe_ddec_spin_density
 _atom_site_pbe_ddec_sum_bond_order
 _atom_site_pbe_magmom
Zn  Zn0  1  0.16368600  0.48356229  0.36621349  1  1.332289  0  0.703347  0.956742  0  2.224395  0
Zn  Zn1  1  0.01258035  0.55919552  0.29081483  1  1.268142  0  0.716779  0.899286  0  2.18474  0
Zn  Zn2  1  0.98672013  0.86632146  0.98351737  1  1.331925  0  0.703275  0.956801  0  2.222729  0
Zn  Zn3  1  0.13735549  0.79100247  0.05922648  1  1.27305  0  0.716757  0.899282  0  2.186796  0
Zn  Zn4  1  0.33630873  0.63378590  0.51643761  1  1.332298  0  0.703375  0.956851  0  2.224362  0
Zn  Zn5  1  0.48741958  0.70918468  0.44080438  1  1.268058  0  0.716806  0.899315  0  2.184702  0
Zn  Zn6  1  0.51328222  0.01648182  0.13368095  1  1.331965  0  0.703268  0.956794  0  2.222712  0
Zn  Zn7  1  0.36264865  0.94077467  0.20899913  1  1.273004  0  0.716763  0.899235  0  2.186733  0
H  H8  1  0.02894695  0.26067865  0.37776638  1  0.055016  0  0.101387  0.101387  0  1.002462  0
H  H9  1  0.08376319  0.34614313  0.37262817  1  0.090576  0  0.10976  0.119001  0  0.990601  0
H  H10  1  0.84614860  0.44784554  0.26773859  1  0.103686  0  0.100112  0.102079  0  1.039829  0
H  H11  1  0.78922194  0.36292260  0.27431916  1  0.073268  0  0.096278  0.096671  0  1.048161  0
H  H12  1  0.02315098  0.20647420  0.32309931  1  0.046654  0  0.100069  0.09877  0  1.001693  0
H  H13  1  0.69900421  0.29232281  0.34625645  1  0.0596  0  0.100127  0.103582  0  1.035742  0
H  H14  1  0.95389334  0.12203640  0.33896347  1  0.082229  0  0.099042  0.101446  0  1.012339  0
H  H15  1  0.55820884  0.31177907  0.28720770  1  0.030561  0  0.100082  0.10109  0  1.009885  0
H  H16  1  0.42691664  0.39193485  0.30298030  1  0.100686  0  0.101829  0.100327  0  1.03696  0
H  H17  1  0.33038757  0.28787484  0.47260649  1  0.103824  0  0.110486  0.115612  0  0.985588  0
H  H18  1  0.46396789  0.20759357  0.45798766  1  0.062987  0  0.10032  0.1016  0  0.998316  0
H  H19  1  0.47458132  0.15948782  0.38064734  1  0.023241  0  0.103018  0.115496  0  1.024609  0
H  H20  1  0.83420254  0.95550540  0.09311423  1  0.10787  0  0.109875  0.115282  0  0.986104  0
H  H21  1  0.77984116  0.99758099  0.16467399  1  0.096165  0  0.101341  0.113586  0  1.032611  0
H  H22  1  0.09672062  0.93430204  0.21167422  1  0.051995  0  0.098179  0.099373  0  1.021258  0
H  H23  1  0.14846654  0.89021978  0.14158704  1  0.10635  0  0.104088  0.10864  0  1.009061  0
H  H24  1  0.79478782  0.06237685  0.19526815  1  0.042139  0  0.103237  0.104296  0  1.026798  0
H  H25  1  0.74624750  0.10013503  0.26967532  1  0.066537  0  0.097445  0.093212  0  1.03774  0
H  H26  1  0.99977814  0.92218198  0.29460639  1  0.073695  0  0.100999  0.102109  0  1.031638  0
H  H27  1  0.96401254  0.95181884  0.46350903  1  0.030317  0  0.105145  0.115736  0  1.057086  0
H  H28  1  0.15734087  0.94463873  0.31627141  1  0.095776  0  0.098795  0.107189  0  1.026926  0
H  H29  1  0.96252143  0.85309001  0.46757809  1  0.113533  0  0.098755  0.10298  0  1.057774  0
H  H30  1  0.30611543  0.86323067  0.33387601  1  0.141428  0  0.100378  0.11348  0  1.069342  0
H  H31  1  0.10909099  0.77089363  0.48304791  1  0.099323  0  0.105491  0.111015  0  1.012971  0
H  H32  1  0.48290667  0.01952662  0.38998228  1  0.037787  0  0.107628  0.074783  0  0.968199  0
H  H33  1  0.43259909  0.08340738  0.40011673  1  0.01815  0  0.096812  0.05203  0  0.98961  0
H  H34  1  0.39258616  0.09012802  0.30973220  1  0.03322  0  0.097331  0.135422  0  0.983183  0
H  H35  1  0.48620253  0.13523498  0.29500757  1  0.045128  0  0.089514  0.124699  0  1.01371  0
H  H36  1  0.53160142  0.06937786  0.28806039  1  0.057837  0  0.092597  0.130713  0  1.016259  0
H  H37  1  0.87712636  0.97854794  0.52556380  1  0.049506  0  0.09894  0.060352  0  1.040339  0
H  H38  1  0.81780294  0.04130549  0.53619351  1  0.069752  0  0.11031  0.077625  0  0.949337  0
H  H39  1  0.01547590  0.02452348  0.53658958  1  0.018994  0  0.091833  0.124314  0  0.997395  0
H  H40  1  0.04404647  0.02190911  0.46891403  1  0.049263  0  0.086965  0.119588  0  1.014234  0
H  H41  1  0.98029635  0.08534897  0.47818376  1  0.03062  0  0.093573  0.131142  0  0.993325  0
H  H42  1  0.33293741  0.87777267  0.76080927  1  0.047473  0  0.101293  0.101233  0  1.001556  0
H  H43  1  0.19779569  0.87262360  0.84627342  1  0.105547  0  0.109909  0.120311  0  0.990139  0
H  H44  1  0.43856313  0.76774992  0.94798494  1  0.095124  0  0.099997  0.102437  0  1.040024  0
H  H45  1  0.57383802  0.77429889  0.86307499  1  0.070047  0  0.096022  0.096167  0  1.047973  0
H  H46  1  0.44761429  0.82306844  0.70667525  1  0.050556  0  0.099995  0.098229  0  1.003555  0
H  H47  1  0.66286356  0.84637216  0.79234621  1  0.101357  0  0.100108  0.104198  0  1.035051  0
H  H48  1  0.58525437  0.83899580  0.62215523  1  0.063355  0  0.099327  0.101766  0  1.011842  0
H  H49  1  0.84350010  0.78714861  0.81182615  1  0.065316  0  0.099989  0.100827  0  1.011143  0
H  H50  1  0.87864097  0.80309588  0.89193313  1  0.101108  0  0.10195  0.100526  0  1.037528  0
H  H51  1  0.90952608  0.97269051  0.78773107  1  0.102796  0  0.110083  0.115165  0  0.984823  0
H  H52  1  0.87100364  0.95792302  0.70750269  1  0.061386  0  0.100429  0.10187  0  0.998641  0
H  H53  1  0.98577917  0.88041336  0.65946844  1  0.044673  0  0.103142  0.116431  0  1.02378  0
H  H54  1  0.11717194  0.59304280  0.45526695  1  0.131841  0  0.109623  0.11538  0  0.987455  0
H  H55  1  0.05814922  0.66446513  0.49753878  1  0.100731  0  0.100598  0.113044  0  1.032373  0
H  H56  1  0.75717761  0.71152469  0.43458960  1  0.071844  0  0.097917  0.099178  0  1.021117  0
H  H57  1  0.81943599  0.64164017  0.39025147  1  0.083591  0  0.103431  0.107615  0  1.007882  0
H  H58  1  0.94739258  0.69508903  0.56255686  1  0.094876  0  0.102903  0.104314  0  1.025954  0
H  H59  1  0.88372381  0.76954188  0.60028105  1  0.061403  0  0.097371  0.093283  0  1.03792  0
H  H60  1  0.78405025  0.79458153  0.42208571  1  0.067275  0  0.100549  0.101722  0  1.03246  0
H  H61  1  0.62076429  0.96340268  0.45184141  1  0.084329  0  0.105025  0.115779  0  1.057569  0
H  H62  1  0.58157969  0.81635630  0.44461723  1  0.096345  0  0.098561  0.106655  0  1.026457  0
H  H63  1  0.71694337  0.96756637  0.35304697  1  0.09426  0  0.09878  0.102812  0  1.058843  0
H  H64  1  0.49615937  0.83412959  0.36330528  1  0.128605  0  0.100062  0.113082  0  1.069745  0
H  H65  1  0.63647896  0.98325930  0.27097468  1  0.101993  0  0.105715  0.110713  0  1.013414  0
H  H66  1  0.10770287  0.89006014  0.51948348  1  0.04694  0  0.107694  0.075046  0  0.96838  0
H  H67  1  0.08391401  0.90014984  0.58338843  1  0.017176  0  0.096393  0.051026  0  0.990906  0
H  H68  1  0.20790399  0.80981986  0.59003116  1  0.015863  0  0.096997  0.135022  0  0.983488  0
H  H69  1  0.08393787  0.79500702  0.63515921  1  0.03404  0  0.089297  0.12445  0  1.013399  0
H  H70  1  0.11135220  0.78810473  0.56927520  1  0.059257  0  0.092848  0.130902  0  1.016209  0
H  H71  1  0.61878503  0.02548375  0.47853905  1  0.086889  0  0.098674  0.06008  0  1.040466  0
H  H72  1  0.60478289  0.03614197  0.54127161  1  0.05258  0  0.110125  0.077355  0  0.948564  0
H  H73  1  0.42346054  0.03658666  0.52452261  1  0.021618  0  0.091585  0.123341  0  0.99903  0
H  H74  1  0.46504936  0.96889558  0.52192994  1  0.013368  0  0.08658  0.118548  0  1.013542  0
H  H75  1  0.45619329  0.97818482  0.58535003  1  0.009646  0  0.093515  0.130831  0  0.992461  0
H  H76  1  0.47105228  0.62223193  0.73932178  1  0.05497  0  0.101406  0.101384  0  1.002391  0
H  H77  1  0.41623776  0.62737037  0.65385698  1  0.090552  0  0.109735  0.118985  0  0.990664  0
H  H78  1  0.65385171  0.73226065  0.55215420  1  0.103713  0  0.100123  0.102082  0  1.039804  0
H  H79  1  0.71077818  0.72567981  0.63707758  1  0.073572  0  0.096269  0.096622  0  1.048143  0
H  H80  1  0.47684795  0.67690178  0.79352574  1  0.046629  0  0.100101  0.098784  0  1.001684  0
H  H81  1  0.80099324  0.65374260  0.70767703  1  0.059604  0  0.100125  0.103561  0  1.035733  0
H  H82  1  0.54610666  0.66103692  0.87796320  1  0.082203  0  0.099022  0.101371  0  1.012416  0
H  H83  1  0.94179024  0.71279247  0.68821888  1  0.030575  0  0.100043  0.101026  0  1.009869  0
H  H84  1  0.07308129  0.69701671  0.60806425  1  0.100708  0  0.101829  0.100299  0  1.037056  0
H  H85  1  0.16960944  0.52739188  0.71212689  1  0.103939  0  0.110523  0.115638  0  0.985575  0
H  H86  1  0.03602798  0.54201217  0.79240662  1  0.062961  0  0.100309  0.101566  0  0.998306  0
H  H87  1  0.02541713  0.61935431  0.84051073  1  0.023465  0  0.103027  0.115542  0  1.024629  0
H  H88  1  0.66580038  0.90688635  0.04449444  1  0.107756  0  0.109864  0.115274  0  0.986194  0
H  H89  1  0.72015718  0.83532836  0.00241814  1  0.09605  0  0.101325  0.113536  0  1.032651  0
H  H90  1  0.40327883  0.78832812  0.06569749  1  0.052083  0  0.09818  0.099358  0  1.021349  0
H  H91  1  0.35153618  0.85841398  0.10978114  1  0.106498  0  0.104115  0.108626  0  1.009101  0
H  H92  1  0.70521276  0.80473325  0.93762022  1  0.042089  0  0.103275  0.104257  0  1.026739  0
H  H93  1  0.75375325  0.73032486  0.89986447  1  0.06651  0  0.097441  0.093211  0  1.037764  0
H  H94  1  0.50022118  0.70539652  0.07781563  1  0.073758  0  0.101011  0.102123  0  1.03166  0
H  H95  1  0.53598704  0.53649202  0.04818234  1  0.03036  0  0.105147  0.115699  0  1.057138  0
H  H96  1  0.34265894  0.68372981  0.05536273  1  0.095751  0  0.098761  0.107142  0  1.027042  0
H  H97  1  0.53747898  0.53242183  0.14691058  1  0.113526  0  0.098768  0.10298  0  1.057772  0
H  H98  1  0.19388496  0.66612554  0.13677078  1  0.141406  0  0.100401  0.113476  0  1.069436  0
H  H99  1  0.39090773  0.51695230  0.22910615  1  0.099074  0  0.105501  0.111047  0  1.012942  0
H  H100  1  0.01709174  0.61001874  0.98047134  1  0.037821  0  0.107644  0.074814  0  0.968192  0
H  H101  1  0.06740106  0.59988417  0.91659087  1  0.018107  0  0.096834  0.052043  0  0.989714  0
H  H102  1  0.10741316  0.69026860  0.90987102  1  0.033243  0  0.097349  0.135461  0  0.983179  0
H  H103  1  0.01379594  0.70499362  0.86476371  1  0.045079  0  0.089504  0.124677  0  1.013648  0
H  H104  1  0.96839732  0.71194028  0.93062130  1  0.05786  0  0.092615  0.130739  0  1.016231  0
H  H105  1  0.62287042  0.47443450  0.02145449  1  0.049411  0  0.098882  0.060251  0  1.040393  0
H  H106  1  0.68219565  0.46380389  0.95869756  1  0.069761  0  0.110287  0.077576  0  0.949385  0
H  H107  1  0.48452199  0.46340942  0.97547720  1  0.018917  0  0.091882  0.124406  0  0.997424  0
H  H108  1  0.45595248  0.53108434  0.97809155  1  0.049267  0  0.086962  0.1196  0  1.01422  0
H  H109  1  0.51970315  0.52181439  0.91465302  1  0.030697  0  0.09352  0.131136  0  0.993411  0
H  H110  1  0.16705848  0.23919075  0.12222720  1  0.047495  0  0.101295  0.101266  0  1.00155  0
H  H111  1  0.30220362  0.15372818  0.12737617  1  0.105566  0  0.109918  0.1203  0  0.990144  0
H  H112  1  0.06143932  0.05201487  0.23225069  1  0.095036  0  0.099978  0.102428  0  1.040059  0
H  H113  1  0.92616265  0.13692385  0.22570149  1  0.070032  0  0.096036  0.096166  0  1.04796  0
H  H114  1  0.05238508  0.29332362  0.17693232  1  0.050548  0  0.099986  0.098202  0  1.003629  0
H  H115  1  0.83713377  0.20765393  0.15362718  1  0.101175  0  0.100112  0.104213  0  1.035019  0
H  H116  1  0.91474465  0.37784496  0.16100408  1  0.063356  0  0.099308  0.101706  0  1.011868  0
H  H117  1  0.65650187  0.18817482  0.21285068  1  0.065142  0  0.100015  0.100848  0  1.011051  0
H  H118  1  0.62136253  0.10806744  0.19690475  1  0.101106  0  0.101966  0.10056  0  1.037507  0
H  H119  1  0.59047110  0.21226903  0.02731122  1  0.102788  0  0.110071  0.115111  0  0.984856  0
H  H120  1  0.62899084  0.29249763  0.04207819  1  0.061388  0  0.100429  0.101857  0  0.998727  0
H  H121  1  0.51421844  0.34053321  0.11958554  1  0.044676  0  0.103104  0.116392  0  1.023709  0
H  H122  1  0.38282812  0.54473472  0.40695623  1  0.131779  0  0.109638  0.11541  0  0.987429  0
H  H123  1  0.44185268  0.50246278  0.33553415  1  0.100816  0  0.100626  0.113094  0  1.03235  0
H  H124  1  0.74282292  0.56541066  0.28847572  1  0.071823  0  0.097923  0.099165  0  1.021124  0
H  H125  1  0.68056479  0.60974990  0.35835937  1  0.083444  0  0.103396  0.107589  0  1.007878  0
H  H126  1  0.55260851  0.43744402  0.30490979  1  0.094931  0  0.102914  0.104316  0  1.025932  0
H  H127  1  0.61627795  0.39971950  0.23045784  1  0.061357  0  0.097355  0.093282  0  1.037987  0
H  H128  1  0.71594822  0.57791562  0.20541835  1  0.067221  0  0.100552  0.101729  0  1.032548  0
H  H129  1  0.87923381  0.54816059  0.03659641  1  0.084288  0  0.105037  0.115785  0  1.057518  0
H  H130  1  0.91842218  0.55538292  0.18364135  1  0.096306  0  0.098565  0.106661  0  1.026432  0
H  H131  1  0.78305439  0.64695590  0.03243423  1  0.094067  0  0.098764  0.102816  0  1.058785  0
H  H132  1  0.00384292  0.63669356  0.16586955  1  0.128645  0  0.100101  0.113132  0  1.069762  0
H  H133  1  0.86352000  0.72902789  0.01674010  1  0.101948  0  0.105744  0.110765  0  1.013291  0
H  H134  1  0.39229682  0.48051906  0.10993862  1  0.046823  0  0.107787  0.075301  0  0.968331  0
H  H135  1  0.41608300  0.41661545  0.09984762  1  0.017009  0  0.096392  0.051029  0  0.990766  0
H  H136  1  0.29209396  0.40997125  0.19017778  1  0.015774  0  0.09701  0.135078  0  0.983469  0
H  H137  1  0.41606037  0.36484282  0.20499076  1  0.033792  0  0.089352  0.124544  0  1.013301  0
H  H138  1  0.38864495  0.43072735  0.21189394  1  0.05932  0  0.092869  0.130935  0  1.016149  0
H  H139  1  0.88121434  0.52146203  0.97451526  1  0.086836  0  0.098678  0.060136  0  1.040427  0
H  H140  1  0.89521939  0.45872886  0.96385793  1  0.052565  0  0.110097  0.07731  0  0.948571  0
H  H141  1  0.07654132  0.47548000  0.96341305  1  0.021883  0  0.091577  0.123346  0  0.999022  0
H  H142  1  0.03494943  0.47807266  0.03110409  1  0.013105  0  0.08661  0.118619  0  1.013518  0
H  H143  1  0.04380717  0.41465287  0.02181495  1  0.009632  0  0.093452  0.130802  0  0.992517  0
C  C144  1  0.90440162  0.30573676  0.32679900  1  -0.098162  0  0.002042  0.08686  0  3.986413  0
C  C145  1  0.98978886  0.30170264  0.35305260  1  0.018474  0  -0.092085  -0.142562  0  3.987963  0
C  C146  1  0.02069344  0.34927224  0.35035393  1  -0.112944  0  -0.078836  -0.074721  0  3.962617  0
C  C147  1  0.96871271  0.40229931  0.31976740  1  0.054022  0  -0.026002  -0.056648  0  3.991822  0
C  C148  1  0.88603300  0.40680783  0.29177212  1  -0.095217  0  -0.081866  -0.075873  0  3.960006  0
C  C149  1  0.85404129  0.35905620  0.29574938  1  0.027969  0  -0.092383  -0.134832  0  3.969055  0
C  C150  1  0.86469806  0.25557848  0.33362071  1  0.063691  0  -0.013222  0.060711  0  4.025241  0
C  C151  1  0.93638904  0.20633590  0.33220329  1  -0.05034  0  -0.092025  -0.128251  0  4.004504  0
C  C152  1  0.75458976  0.25536525  0.34337436  1  -0.051269  0  -0.086793  -0.166178  0  3.937097  0
C  C153  1  0.71201161  0.20776026  0.35214508  1  -0.010059  0  -0.01068  0.027547  0  3.980348  0
C  C154  1  0.89776464  0.15922637  0.34082266  1  -0.07929  0  -0.092176  -0.121926  0  3.995142  0
C  C155  1  0.78510278  0.15796312  0.35152955  1  -0.002722  0  -0.003376  0.051538  0  3.980311  0
C  C156  1  0.59862215  0.20656084  0.36439477  1  0.032557  0  -0.004012  0.04649  0  3.999184  0
C  C157  1  0.51998026  0.25452043  0.37177033  1  -0.031306  0  -0.004229  0.080209  0  4.003319  0
C  C158  1  0.50938436  0.30672645  0.32805734  1  -0.040929  0  -0.093533  -0.141413  0  3.996092  0
C  C159  1  0.43674019  0.35137795  0.33665496  1  -0.009945  0  -0.086913  -0.094768  0  3.987312  0
C  C160  1  0.37288679  0.34485896  0.38886687  1  -0.052133  0  -0.017575  -0.025169  0  3.975268  0
C  C161  1  0.38139531  0.29264457  0.43236992  1  -0.044369  0  -0.079824  -0.085074  0  3.977946  0
C  C162  1  0.45483129  0.24804342  0.42384023  1  -0.041603  0  -0.092019  -0.137867  0  3.984594  0
C  C163  1  0.56132157  0.15905567  0.37215693  1  -0.022012  0  -0.109452  -0.269415  0  4.028918  0
C  C164  1  0.63359789  0.11056823  0.37022172  1  0.455696  0  0.080802  0.209201  0  4.065541  0
C  C165  1  0.74456583  0.10895036  0.36191792  1  -0.001087  0  -0.019946  -0.077091  0  4.00185  0
C  C166  1  0.89109150  0.95078960  0.11950347  1  0.011075  0  -0.07608  -0.071625  0  3.953356  0
C  C167  1  0.99399591  0.91925713  0.11352169  1  -0.022554  0  -0.024036  -0.058583  0  3.996495  0
C  C168  1  0.86108329  0.97432396  0.15985809  1  -0.04749  0  -0.086873  -0.132173  0  3.938413  0
C  C169  1  0.93351989  0.96718824  0.19495835  1  -0.044336  0  0.003648  0.090671  0  3.976818  0
C  C170  1  0.03810594  0.93756465  0.18681966  1  -0.033086  0  -0.091754  -0.134877  0  3.980637  0
C  C171  1  0.06779321  0.91350965  0.14719478  1  -0.03997  0  -0.082444  -0.079392  0  3.98372  0
C  C172  1  0.90285656  0.98961532  0.23953459  1  0.004914  0  -0.012307  0.056666  0  4.017105  0
C  C173  1  0.82900577  0.03998159  0.23357091  1  -0.072918  0  -0.08675  -0.121644  0  3.979656  0
C  C174  1  0.80243635  0.06125356  0.27488575  1  0.009261  0  -0.09325  -0.129313  0  3.998452  0
C  C175  1  0.94666869  0.96203241  0.28841393  1  -0.036209  0  -0.085559  -0.169045  0  3.944329  0
C  C176  1  0.92211599  0.98298379  0.33153855  1  0.005133  0  -0.011652  0.018008  0  3.992273  0
C  C177  1  0.84731979  0.03394552  0.32498361  1  -0.080898  0  -0.00554  0.042295  0  4.001677  0
C  C178  1  0.81875876  0.05561632  0.36783639  1  0.045363  0  -0.019835  -0.080095  0  3.997831  0
C  C179  1  0.86016277  0.02561446  0.41755182  1  0.465496  0  0.087627  0.22158  0  4.049566  0
C  C180  1  0.93218196  0.97493156  0.42465658  1  -0.026766  0  -0.103438  -0.255456  0  3.988961  0
C  C181  1  0.96541293  0.95430665  0.38240258  1  0.053198  0  -0.002936  0.048487  0  3.978751  0
C  C182  1  0.04929174  0.90412902  0.39049815  1  -0.047808  0  0.001976  0.089807  0  3.974937  0
C  C183  1  0.14622527  0.90625371  0.35240210  1  -0.063025  0  -0.093879  -0.143006  0  3.978792  0
C  C184  1  0.03689189  0.85502266  0.43767690  1  0.00353  0  -0.089442  -0.130568  0  3.947346  0
C  C185  1  0.22918534  0.86092331  0.36188589  1  -0.080412  0  -0.089257  -0.095138  0  3.972648  0
C  C186  1  0.11883444  0.80910399  0.44664624  1  -0.066373  0  -0.078123  -0.078318  0  3.953213  0
C  C187  1  0.21607778  0.81205612  0.40909083  1  -0.017243  0  -0.023565  -0.044779  0  4.001586  0
C  C188  1  0.49144914  0.06367002  0.37341791  1  0.432658  0  -0.064261  0.082836  0  3.911424  0
C  C189  1  0.47477487  0.09144314  0.31297787  1  -0.066893  0  -0.246213  -0.40581  0  3.950805  0
C  C190  1  0.87483930  0.02387874  0.50736062  1  0.424368  0  -0.066694  0.079275  0  3.894547  0
C  C191  1  0.98528480  0.03985712  0.49689314  1  -0.067136  0  -0.247371  -0.403955  0  3.971448  0
C  C192  1  0.30772698  0.76596976  0.42166287  1  1.482701  0  0.213473  0.583593  0  4.151513  0
C  C193  1  0.02455539  0.88938443  0.07476163  1  1.486829  0  0.231175  0.612828  0  4.134128  0
C  C194  1  0.99979875  0.45268079  0.31861377  1  1.51294  0  0.224219  0.603808  0  4.140309  0
C  C195  1  0.29291784  0.39299919  0.39624086  1  1.527845  0  0.192236  0.554728  0  4.222584  0
C  C196  1  0.46345721  0.82683454  0.80586535  1  -0.01885  0  0.002038  0.087887  0  3.985084  0
C  C197  1  0.35582637  0.85306620  0.80183060  1  -0.052377  0  -0.091271  -0.14025  0  3.98447  0
C  C198  1  0.28001450  0.85036289  0.84938960  1  0.028027  0  -0.079315  -0.07826  0  3.96525  0
C  C199  1  0.30951054  0.81979164  0.90243278  1  -0.053666  0  -0.025495  -0.055196  0  3.994831  0
C  C200  1  0.41566600  0.79178833  0.90694124  1  -0.026859  0  -0.083511  -0.079096  0  3.961851  0
C  C201  1  0.49147925  0.79576251  0.85918705  1  -0.044808  0  -0.091245  -0.133738  0  3.966491  0
C  C202  1  0.54646937  0.83366603  0.75569888  1  -0.010383  0  -0.0128  0.061083  0  4.026613  0
C  C203  1  0.52538468  0.83221985  0.70648735  1  -0.016657  0  -0.091661  -0.127015  0  4.006316  0
C  C204  1  0.64706425  0.84343590  0.75542613  1  -0.102848  0  -0.087761  -0.168914  0  3.938218  0
C  C205  1  0.72845556  0.85214764  0.70780467  1  0.005094  0  -0.010205  0.028781  0  3.979829  0
C  C206  1  0.60239919  0.84085132  0.65934243  1  -0.074013  0  -0.093268  -0.12344  0  3.996507  0
C  C207  1  0.70567473  0.85153607  0.65802496  1  0.029224  0  -0.003127  0.052133  0  3.979688  0
C  C208  1  0.83090749  0.86431754  0.70656178  1  -0.00077  0  -0.003998  0.045417  0  4.000901  0
C  C209  1  0.85437843  0.87170336  0.75449186  1  -0.029276  0  -0.003854  0.081041  0  4.002486  0
C  C210  1  0.85648067  0.82802585  0.80672816  1  -0.098725  0  -0.093497  -0.141569  0  3.997979  0
C  C211  1  0.87573308  0.83671873  0.85135339  1  0.031246  0  -0.086774  -0.094092  0  3.989193  0
C  C212  1  0.89379465  0.88895990  0.84479920  1  -0.062464  0  -0.017627  -0.025964  0  3.977788  0
C  C213  1  0.89410724  0.93240830  0.79254546  1  -0.020511  0  -0.080047  -0.084291  0  3.975864  0
C  C214  1  0.87392015  0.92379735  0.74795847  1  -0.067198  0  -0.091556  -0.138344  0  3.984244  0
C  C215  1  0.90787662  0.87202709  0.65903451  1  -0.051281  0  -0.109747  -0.269456  0  4.026325  0
C  C216  1  0.88585966  0.87014414  0.61055606  1  0.411743  0  0.081271  0.209547  0  4.065851  0
C  C217  1  0.78475536  0.86188497  0.60896921  1  0.077148  0  -0.020588  -0.078113  0  4.003247  0
C  C218  1  0.03860089  0.61944574  0.45064514  1  -0.030611  0  -0.075381  -0.07143  0  3.956801  0
C  C219  1  0.97311699  0.61354839  0.41910733  1  -0.059174  0  -0.024291  -0.057907  0  3.99899  0
C  C220  1  0.00485204  0.65971719  0.47429742  1  -0.035716  0  -0.086211  -0.132232  0  3.937698  0
C  C221  1  0.90444523  0.69483481  0.46725135  1  -0.039799  0  0.003069  0.090689  0  3.974684  0
C  C222  1  0.83744886  0.68671230  0.43770044  1  -0.031928  0  -0.090981  -0.134726  0  3.977547  0
C  C223  1  0.87135112  0.64718589  0.41351078  1  -0.03699  0  -0.082094  -0.07829  0  3.982415  0
C  C224  1  0.86819604  0.73942603  0.48966384  1  -0.015633  0  -0.012579  0.055895  0  4.017043  0
C  C225  1  0.89743009  0.73343289  0.54009488  1  -0.115146  0  -0.086367  -0.121203  0  3.976816  0
C  C226  1  0.86140411  0.77477266  0.56134332  1  -0.010838  0  -0.093372  -0.129186  0  3.997013  0
C  C227  1  0.80328139  0.78835964  0.46199587  1  -0.017122  0  -0.085256  -0.168748  0  3.945778  0
C  C228  1  0.76367089  0.83149137  0.48294775  1  -0.019602  0  -0.010904  0.018354  0  3.991088  0
C  C229  1  0.79388815  0.82491444  0.53396632  1  -0.012013  0  -0.005711  0.042158  0  3.999204  0
C  C230  1  0.75791635  0.86776794  0.55564950  1  0.009215  0  -0.020294  -0.079894  0  3.996339  0
C  C231  1  0.69678144  0.91747429  0.52562579  1  0.467533  0  0.087351  0.221177  0  4.048857  0
C  C232  1  0.66840440  0.92456863  0.47493327  1  -0.088407  0  -0.103676  -0.255815  0  3.992314  0
C  C233  1  0.69815392  0.88234045  0.45426427  1  0.033046  0  -0.001836  0.04901  0  3.979349  0
C  C234  1  0.65617505  0.89050200  0.40409194  1  -0.046355  0  0.00141  0.089536  0  3.973446  0
C  C235  1  0.59494959  0.85249558  0.40624345  1  -0.078499  0  -0.093288  -0.141433  0  3.976723  0
C  C236  1  0.67035197  0.93772654  0.35500987  1  -0.007603  0  -0.089289  -0.130937  0  3.946093  0
C  C237  1  0.54756918  0.86207958  0.36095652  1  -0.04565  0  -0.088564  -0.094103  0  3.972683  0
C  C238  1  0.62504217  0.94681130  0.30914413  1  -0.054948  0  -0.078539  -0.077382  0  3.951605  0
C  C239  1  0.56227372  0.90930046  0.31210387  1  -0.031543  0  -0.024469  -0.046806  0  4.000875  0
C  C240  1  0.07166448  0.87343708  0.56362757  1  0.45036  0  -0.06425  0.083648  0  3.913463  0
C  C241  1  0.12114095  0.81302788  0.59135900  1  -0.054879  0  -0.24556  -0.404718  0  3.951284  0
C  C242  1  0.59396448  0.00729973  0.52386692  1  0.399601  0  -0.067131  0.078204  0  3.894849  0
C  C243  1  0.47798146  0.99687591  0.53985866  1  -0.006272  0  -0.246647  -0.401272  0  3.970815  0
C  C244  1  0.50421690  0.92185990  0.26597854  1  1.495535  0  0.213306  0.58366  0  4.151529  0
C  C245  1  0.01120517  0.57487028  0.38914875  1  1.527398  0  0.229351  0.609018  0  4.138169  0
C  C246  1  0.22915236  0.81871004  0.95277718  1  1.509758  0  0.224059  0.604691  0  4.138462  0
C  C247  1  0.91796144  0.89637551  0.89297572  1  1.541029  0  0.192976  0.557107  0  4.22579  0
C  C248  1  0.59559941  0.67319883  0.69426416  1  -0.097806  0  0.002099  0.086895  0  3.986394  0
C  C249  1  0.51021174  0.64694484  0.69829826  1  0.018561  0  -0.092139  -0.142559  0  3.987914  0
C  C250  1  0.47930857  0.64964359  0.65072800  1  -0.11296  0  -0.078859  -0.074827  0  3.962765  0
C  C251  1  0.53128857  0.68022935  0.59770069  1  0.054415  0  -0.026007  -0.056555  0  3.991873  0
C  C252  1  0.61396884  0.70822451  0.59319270  1  -0.095521  0  -0.081876  -0.075909  0  3.960135  0
C  C253  1  0.64595923  0.70424775  0.64094476  1  0.027224  0  -0.092364  -0.134748  0  3.96903  0
C  C254  1  0.63530099  0.66637854  0.74442186  1  0.065545  0  -0.01316  0.060782  0  4.025158  0
C  C255  1  0.56360955  0.66779701  0.79366348  1  -0.052072  0  -0.092044  -0.12825  0  4.004485  0
C  C256  1  0.74540845  0.65662497  0.74463454  1  -0.051639  0  -0.086774  -0.166124  0  3.937086  0
C  C257  1  0.78798697  0.64785473  0.79223940  1  -0.009666  0  -0.0107  0.027508  0  3.980326  0
C  C258  1  0.60223457  0.65917662  0.84077325  1  -0.079441  0  -0.092206  -0.121911  0  3.995151  0
C  C259  1  0.71489641  0.64846898  0.84203643  1  -0.002649  0  -0.003373  0.051542  0  3.980176  0
C  C260  1  0.90137837  0.63560566  0.79343857  1  0.032579  0  -0.003964  0.046488  0  3.999127  0
C  C261  1  0.98001895  0.62822964  0.74547852  1  -0.031118  0  -0.004213  0.080295  0  4.003244  0
C  C262  1  0.99061563  0.67194236  0.69327133  1  -0.041275  0  -0.093485  -0.141385  0  3.996085  0
C  C263  1  0.06325842  0.66334324  0.64862059  1  -0.00876  0  -0.086905  -0.094684  0  3.987644  0
C  C264  1  0.12710821  0.61113223  0.65514120  1  -0.053198  0  -0.017591  -0.025232  0  3.975362  0
C  C265  1  0.11860156  0.56762900  0.70735660  1  -0.044516  0  -0.07985  -0.085091  0  3.978051  0
C  C266  1  0.04516507  0.57616002  0.75195740  1  -0.041633  0  -0.092014  -0.137816  0  3.984715  0
C  C267  1  0.93867912  0.62784423  0.84094295  1  -0.022261  0  -0.109508  -0.269525  0  4.029012  0
C  C268  1  0.86640223  0.62977740  0.88943091  1  0.455752  0  0.0808  0.209284  0  4.065571  0
C  C269  1  0.75543430  0.63808108  0.89104934  1  -0.001089  0  -0.019923  -0.077067  0  4.001807  0
C  C270  1  0.60891140  0.88049754  0.04920991  1  0.010939  0  -0.076076  -0.071633  0  3.953508  0
C  C271  1  0.50600722  0.88647974  0.08074303  1  -0.023071  0  -0.024017  -0.058605  0  3.99646  0
C  C272  1  0.63891878  0.84014394  0.02567464  1  -0.047358  0  -0.086874  -0.132149  0  3.938499  0
C  C273  1  0.56648184  0.80504562  0.03280905  1  -0.044511  0  0.003556  0.090672  0  3.976953  0
C  C274  1  0.46189532  0.81318373  0.06243383  1  -0.033033  0  -0.091743  -0.134937  0  3.980675  0
C  C275  1  0.43220840  0.85280765  0.08649004  1  -0.039615  0  -0.082389  -0.079196  0  3.983558  0
C  C276  1  0.59714297  0.76046809  0.01038200  1  0.005591  0  -0.01229  0.056608  0  4.017145  0
C  C277  1  0.67099401  0.76643098  0.96001584  1  -0.073263  0  -0.086762  -0.121544  0  3.97949  0
C  C278  1  0.69756466  0.72511530  0.93874530  1  0.009517  0  -0.093247  -0.1293  0  3.998377  0
C  C279  1  0.55333199  0.71158802  0.03796558  1  -0.036532  0  -0.085575  -0.169076  0  3.944228  0
C  C280  1  0.57788452  0.66846209  0.01701489  1  0.005135  0  -0.011641  0.018022  0  3.992284  0
C  C281  1  0.65268055  0.67501710  0.96605364  1  -0.080887  0  -0.005533  0.042249  0  4.001603  0
C  C282  1  0.68124182  0.63216238  0.94438393  1  0.045332  0  -0.019843  -0.080127  0  3.997745  0
C  C283  1  0.63983678  0.58244727  0.97438635  1  0.465509  0  0.087553  0.221479  0  4.049633  0
C  C284  1  0.56781763  0.57534376  0.02506886  1  -0.026832  0  -0.103425  -0.255461  0  3.988955  0
C  C285  1  0.53458592  0.61759845  0.04569381  1  0.053269  0  -0.002942  0.048556  0  3.978772  0
C  C286  1  0.45070624  0.60950327  0.09587024  1  -0.047812  0  0.002034  0.089903  0  3.97482  0
C  C287  1  0.35377450  0.64759899  0.09374636  1  -0.063056  0  -0.093899  -0.143014  0  3.978906  0
C  C288  1  0.46310719  0.56232397  0.14497718  1  0.003592  0  -0.089469  -0.130611  0  3.947294  0
C  C289  1  0.27081438  0.63811530  0.13907696  1  -0.080331  0  -0.089265  -0.095146  0  3.972715  0
C  C290  1  0.38116429  0.55335375  0.19089600  1  -0.066114  0  -0.078129  -0.078353  0  3.953203  0
C  C291  1  0.28392133  0.59090917  0.18794360  1  -0.017331  0  -0.02356  -0.044754  0  4.001453  0
C  C292  1  0.00854943  0.62658241  0.93632782  1  0.432635  0  -0.064318  0.082773  0  3.911622  0
C  C293  1  0.02522462  0.68702211  0.90855556  1  -0.066838  0  -0.246239  -0.405866  0  3.950765  0
C  C294  1  0.62516043  0.49263766  0.97612343  1  0.424401  0  -0.066597  0.079461  0  3.894435  0
C  C295  1  0.51471155  0.50310542  0.96014387  1  -0.067167  0  -0.247391  -0.404125  0  3.971519  0
C  C296  1  0.19227009  0.57833614  0.23402778  1  1.48314  0  0.213496  0.583596  0  4.151625  0
C  C297  1  0.47545173  0.92523817  0.11061708  1  1.48704  0  0.231189  0.612778  0  4.134078  0
C  C298  1  0.50020019  0.68138347  0.54732041  1  1.512669  0  0.224218  0.603656  0  4.140411  0
C  C299  1  0.20707892  0.60375258  0.60700368  1  1.527448  0  0.192374  0.554907  0  4.222585  0
C  C300  1  0.03654224  0.19413326  0.17316614  1  -0.018822  0  0.002063  0.087955  0  3.985012  0
C  C301  1  0.14417277  0.19816933  0.14693408  1  -0.052389  0  -0.091293  -0.140362  0  3.984469  0
C  C302  1  0.21998398  0.15061106  0.14963766  1  0.028044  0  -0.079278  -0.078186  0  3.965217  0
C  C303  1  0.19048900  0.09756687  0.18020946  1  -0.053759  0  -0.025484  -0.055128  0  3.994762  0
C  C304  1  0.08433308  0.09305861  0.20821278  1  -0.026843  0  -0.083543  -0.079174  0  3.96204  0
C  C305  1  0.00852167  0.14081115  0.20423826  1  -0.044865  0  -0.091241  -0.133707  0  3.966569  0
C  C306  1  0.95352930  0.24430017  0.16633491  1  -0.010434  0  -0.012868  0.061086  0  4.026538  0
C  C307  1  0.97461197  0.29351271  0.16778058  1  -0.016542  0  -0.091653  -0.127044  0  4.006394  0
C  C308  1  0.85293250  0.24457398  0.15656407  1  -0.102914  0  -0.087741  -0.168956  0  3.938163  0
C  C309  1  0.77154265  0.29219632  0.14785151  1  0.005155  0  -0.010225  0.028825  0  3.980109  0
C  C310  1  0.89759955  0.34065810  0.15914808  1  -0.073978  0  -0.093213  -0.123318  0  3.996413  0
C  C311  1  0.79432360  0.34197581  0.14846258  1  0.029311  0  -0.003065  0.052256  0  3.979779  0
C  C312  1  0.66909198  0.29343960  0.13568154  1  -0.000747  0  -0.004088  0.045169  0  4.001162  0
C  C313  1  0.64562142  0.24550842  0.12829622  1  -0.029315  0  -0.003929  0.080963  0  4.002527  0
C  C314  1  0.64352147  0.19327260  0.17197376  1  -0.098935  0  -0.09349  -0.141476  0  3.997896  0
C  C315  1  0.62427161  0.14864629  0.16328166  1  0.031714  0  -0.086796  -0.094173  0  3.989058  0
C  C316  1  0.60620703  0.15520161  0.11104019  1  -0.062583  0  -0.017625  -0.026036  0  3.977634  0
C  C317  1  0.60589212  0.20745463  0.06759163  1  -0.020467  0  -0.080007  -0.084105  0  3.975773  0
C  C318  1  0.62607736  0.25204223  0.07620276  1  -0.067178  0  -0.09154  -0.138344  0  3.9844  0
C  C319  1  0.59212230  0.34096756  0.12797198  1  -0.051638  0  -0.109675  -0.269343  0  4.026508  0
C  C320  1  0.61413971  0.38944550  0.12985458  1  0.41195  0  0.081315  0.209689  0  4.065921  0
C  C321  1  0.71524564  0.39103133  0.13811432  1  0.077505  0  -0.020641  -0.078304  0  4.003399  0
C  C322  1  0.46139914  0.54935577  0.38055284  1  -0.030918  0  -0.075363  -0.071379  0  3.956805  0
C  C323  1  0.52688430  0.58089303  0.38645109  1  -0.058916  0  -0.024318  -0.057981  0  3.998937  0
C  C324  1  0.49514805  0.52570411  0.34028168  1  -0.035724  0  -0.086271  -0.13234  0  3.937748  0
C  C325  1  0.59555553  0.53274978  0.30516480  1  -0.039571  0  0.003112  0.090704  0  3.974754  0
C  C326  1  0.66255274  0.56230013  0.31328750  1  -0.031943  0  -0.090955  -0.134647  0  3.977614  0
C  C327  1  0.62865158  0.58649031  0.35281314  1  -0.037022  0  -0.08207  -0.078273  0  3.982321  0
C  C328  1  0.63180597  0.51033726  0.26057392  1  -0.015638  0  -0.012579  0.055995  0  4.016915  0
C  C329  1  0.60257274  0.45990572  0.26656627  1  -0.114914  0  -0.08634  -0.121177  0  3.976757  0
C  C330  1  0.63859849  0.43865705  0.22522754  1  -0.010976  0  -0.093388  -0.129202  0  3.997036  0
C  C331  1  0.69672027  0.53800542  0.21163962  1  -0.017106  0  -0.085245  -0.168794  0  3.945864  0
C  C332  1  0.73633163  0.51705363  0.16850776  1  -0.019785  0  -0.01101  0.018193  0  3.99102  0
C  C333  1  0.70611542  0.46603411  0.17508490  1  -0.012014  0  -0.0057  0.04212  0  3.999145  0
C  C334  1  0.74208573  0.44435082  0.13223124  1  0.008746  0  -0.020305  -0.079875  0  3.996431  0
C  C335  1  0.80322226  0.47437474  0.08252514  1  0.468111  0  0.087428  0.221332  0  4.048625  0
C  C336  1  0.83159594  0.52506840  0.07543037  1  -0.088726  0  -0.103693  -0.255882  0  3.992263  0
C  C337  1  0.80184798  0.54573744  0.11765783  1  0.033307  0  -0.00178  0.049131  0  3.979225  0
C  C338  1  0.84382483  0.59590990  0.10949632  1  -0.04636  0  0.001303  0.089417  0  3.973352  0
C  C339  1  0.90505112  0.59375824  0.14750260  1  -0.078435  0  -0.093215  -0.141316  0  3.976496  0
C  C340  1  0.82964755  0.64499137  0.06227254  1  -0.007536  0  -0.089248  -0.130866  0  3.946119  0
C  C341  1  0.95243181  0.63904319  0.13792051  1  -0.045654  0  -0.088615  -0.094184  0  3.972735  0
C  C342  1  0.87495754  0.69085659  0.05318847  1  -0.05487  0  -0.078579  -0.07745  0  3.951557  0
C  C343  1  0.93772667  0.68789687  0.09069935  1  -0.031297  0  -0.024516  -0.046912  0  4.000863  0
C  C344  1  0.42833229  0.43637563  0.12656112  1  0.450499  0  -0.064353  0.083358  0  3.91364  0
C  C345  1  0.37885689  0.40864389  0.18696849  1  -0.054472  0  -0.24571  -0.404967  0  3.951455  0
C  C346  1  0.90603655  0.47613417  0.99269968  1  0.3996  0  -0.06716  0.078164  0  3.894814  0
C  C347  1  0.02201929  0.46014390  0.00312354  1  -0.006225  0  -0.246563  -0.40129  0  3.970822  0
C  C348  1  0.99578496  0.73402381  0.07813897  1  1.495261  0  0.213325  0.583614  0  4.15135  0
C  C349  1  0.48879477  0.61085187  0.42513175  1  1.527007  0  0.229294  0.608943  0  4.137997  0
C  C350  1  0.27084808  0.04722092  0.18129214  1  1.509651  0  0.223997  0.604538  0  4.138559  0
C  C351  1  0.58204084  0.10702291  0.10362496  1  1.541016  0  0.192973  0.557073  0  4.225794  0
O  O352  1  0.82607772  0.04808396  0.45756671  1  -1.074538  0  -0.179245  -0.204297  0  2.544509  0
O  O353  1  0.59995536  0.06187928  0.37979624  1  -1.067493  0  -0.184309  -0.216315  0  2.56371  0
O  O354  1  0.40065891  0.77218765  0.39004182  1  -1.140393  0  -0.31145  -0.517284  0  2.259626  0
O  O355  1  0.29736898  0.72191618  0.46522291  1  -1.196078  0  -0.314101  -0.576474  0  2.341438  0
O  O356  1  0.96260004  0.50067840  0.28335757  1  -1.151131  0  -0.320242  -0.54353  0  2.303437  0
O  O357  1  0.06023487  0.44684119  0.35231840  1  -1.182237  0  -0.306771  -0.556951  0  2.378526  0
O  O358  1  0.96248369  0.89868076  0.04006534  1  -1.147899  0  -0.307281  -0.543543  0  2.322766  0
O  O359  1  0.11294639  0.85408806  0.07963929  1  -1.166448  0  -0.323262  -0.552122  0  2.356702  0
O  O360  1  0.30757363  0.44185702  0.35763521  1  -1.151213  0  -0.338325  -0.566429  0  2.282888  0
O  O361  1  0.21376017  0.38709251  0.43473952  1  -1.148751  0  -0.325336  -0.534675  0  2.062132  0
O  O362  1  0.66827198  0.95749312  0.54809104  1  -1.076659  0  -0.178382  -0.203034  0  2.543692  0
O  O363  1  0.95857705  0.87969511  0.56186180  1  -1.0779  0  -0.184289  -0.217656  0  2.566827  0
O  O364  1  0.43718380  0.89004733  0.27203234  1  -1.135687  0  -0.311149  -0.516973  0  2.260721  0
O  O365  1  0.51473418  0.96555143  0.22202743  1  -1.192134  0  -0.31382  -0.57645  0  2.341445  0
O  O366  1  0.25347570  0.78344769  0.00079388  1  -1.146454  0  -0.319927  -0.543826  0  2.302789  0
O  O367  1  0.14094062  0.85249488  0.94687676  1  -1.184506  0  -0.307253  -0.557434  0  2.3756  0
O  O368  1  0.09858027  0.54011318  0.39851083  1  -1.159924  0  -0.306295  -0.542223  0  2.326628  0
O  O369  1  0.95337548  0.57987691  0.35374175  1  -1.16284  0  -0.322186  -0.550085  0  2.354758  0
O  O370  1  0.89311139  0.85773530  0.94181335  1  -1.150963  0  -0.339111  -0.56816  0  2.282866  0
O  O371  1  0.96432142  0.93494345  0.88711811  1  -1.150787  0  -0.325486  -0.535505  0  2.063986  0
O  O372  1  0.67392268  0.54243136  0.95191780  1  -1.07451  0  -0.179221  -0.204195  0  2.544484  0
O  O373  1  0.90004732  0.62020381  0.93811857  1  -1.067502  0  -0.18434  -0.216371  0  2.563889  0
O  O374  1  0.09933824  0.60995645  0.22780932  1  -1.140461  0  -0.311424  -0.517271  0  2.259653  0
O  O375  1  0.20262631  0.53477526  0.27808019  1  -1.196574  0  -0.314144  -0.576449  0  2.341498  0
O  O376  1  0.53739977  0.71663938  0.49932319  1  -1.151019  0  -0.320236  -0.54342  0  2.30337  0
O  O377  1  0.43976154  0.64768050  0.55316006  1  -1.182106  0  -0.30677  -0.556942  0  2.378621  0
O  O378  1  0.53752723  0.95993261  0.10132249  1  -1.147991  0  -0.307316  -0.543547  0  2.322751  0
O  O379  1  0.38705953  0.92036275  0.14591251  1  -1.166424  0  -0.32319  -0.552001  0  2.356609  0
O  O380  1  0.19242083  0.64235544  0.55814393  1  -1.151024  0  -0.338433  -0.566581  0  2.283019  0
O  O381  1  0.28623460  0.56525494  0.61291343  1  -1.148502  0  -0.325404  -0.53478  0  2.062079  0
O  O382  1  0.83173208  0.45190855  0.04250671  1  -1.076641  0  -0.178388  -0.203067  0  2.543598  0
O  O383  1  0.54142353  0.43814004  0.12030265  1  -1.077909  0  -0.184218  -0.217571  0  2.566688  0
O  O384  1  0.06282136  0.72796879  0.10995062  1  -1.135756  0  -0.311086  -0.516895  0  2.260764  0
O  O385  1  0.98526108  0.77797583  0.03444784  1  -1.192006  0  -0.313812  -0.576371  0  2.341256  0
O  O386  1  0.24652338  0.99920476  0.21655563  1  -1.14628  0  -0.319913  -0.543726  0  2.302651  0
O  O387  1  0.35906123  0.05312003  0.14750687  1  -1.184432  0  -0.307207  -0.557406  0  2.37567  0
O  O388  1  0.40141901  0.60148801  0.45988881  1  -1.159788  0  -0.306251  -0.542192  0  2.326523  0
O  O389  1  0.54662813  0.64625750  0.42012523  1  -1.16262  0  -0.322213  -0.550096  0  2.354683  0
O  O390  1  0.60689481  0.05818454  0.14226557  1  -1.15097  0  -0.339166  -0.568155  0  2.28283  0
O  O391  1  0.53567753  0.11288134  0.06505816  1  -1.150761  0  -0.325437  -0.53546  0  2.063966  0
