# generated using pymatgen
data_CuH18C17N2O5
_symmetry_space_group_name_H-M   'P 1'
_cell_length_a   10.17802559
_cell_length_b   19.31363315
_cell_length_c   20.83454341
_cell_angle_alpha   89.99988885
_cell_angle_beta   90.00032194
_cell_angle_gamma   89.99994339
_symmetry_Int_Tables_number   1
_chemical_formula_structural   CuH18C17N2O5
_chemical_formula_sum   'Cu8 H144 C136 N16 O40'
_cell_volume   4095.54313122
_cell_formula_units_Z   8
loop_
 _symmetry_equiv_pos_site_id
 _symmetry_equiv_pos_as_xyz
  1  'x, y, z'
loop_
 _atom_site_type_symbol
 _atom_site_label
 _atom_site_symmetry_multiplicity
 _atom_site_fract_x
 _atom_site_fract_y
 _atom_site_fract_z
 _atom_site_occupancy
 _atom_site_pbe_bader_charge
 _atom_site_pbe_bader_spin_density
 _atom_site_pbe_cm5_charge
 _atom_site_pbe_ddec_charge
 _atom_site_pbe_ddec_spin_density
 _atom_site_pbe_ddec_sum_bond_order
 _atom_site_pbe_magmom
Cu  Cu0  1  0.77275991  0.68812410  0.97189215  1  1.072155  0.574786  0.73327  0.754688  0.735216  2.269473  0.573
Cu  Cu1  1  0.72724264  0.68812406  0.52810603  1  1.072231  0.574798  0.733223  0.754551  0.73523  2.269722  0.573
Cu  Cu2  1  0.27275857  0.81187408  0.02810537  1  1.072206  0.57479  0.733215  0.7546  0.735212  2.269499  0.573
Cu  Cu3  1  0.22723658  0.81187777  0.47189281  1  1.072329  0.574806  0.73328  0.754679  0.735252  2.269731  0.573
Cu  Cu4  1  0.22723942  0.31187857  0.02810432  1  1.072164  0.574811  0.733208  0.754619  0.735257  2.269669  0.573
Cu  Cu5  1  0.27275669  0.31187706  0.47189381  1  1.072369  0.574801  0.733244  0.754629  0.735231  2.269566  0.573
Cu  Cu6  1  0.72723781  0.18812497  0.97189638  1  1.072285  0.574797  0.733221  0.754609  0.735227  2.269517  0.573
Cu  Cu7  1  0.77275686  0.18812439  0.52810750  1  1.072138  0.574794  0.733247  0.754648  0.735224  2.269507  0.573
H  H8  1  0.03861067  0.12356292  0.54010009  1  0.117107  0.002743  0.119985  0.090492  0.001469  1.023928  0.002
H  H9  1  0.46138270  0.12356185  0.95990349  1  0.117017  0.002742  0.120009  0.090445  0.001469  1.023894  0.002
H  H10  1  0.53861755  0.37643762  0.45989865  1  0.117065  0.002743  0.119994  0.090496  0.001469  1.023875  0.002
H  H11  1  0.96138378  0.37643536  0.04010025  1  0.117054  0.002743  0.120001  0.090441  0.001469  1.023887  0.002
H  H12  1  0.96138473  0.87643665  0.45989638  1  0.117102  0.002743  0.11997  0.090496  0.001469  1.023895  0.002
H  H13  1  0.53861270  0.87643823  0.04010498  1  0.117242  0.002743  0.119936  0.090382  0.001469  1.023902  0.002
H  H14  1  0.46138964  0.62356351  0.54009782  1  0.117093  0.002742  0.120016  0.090515  0.001468  1.023946  0.002
H  H15  1  0.03861457  0.62356058  0.95989862  1  0.117132  0.002743  0.119974  0.09049  0.001468  1.023901  0.002
H  H16  1  0.87341759  0.82516514  0.93372335  1  0.100937  0.001932  0.11878  0.094103  0.000853  1.00376  0.002
H  H17  1  0.62658863  0.82516662  0.56627795  1  0.101288  0.001931  0.118774  0.094117  0.000853  1.003785  0.002
H  H18  1  0.37341695  0.67483196  0.06628022  1  0.10103  0.001932  0.118783  0.094174  0.000853  1.003783  0.002
H  H19  1  0.12658042  0.67483422  0.43372110  1  0.100995  0.001932  0.118773  0.094141  0.000853  1.003788  0.002
H  H20  1  0.12657879  0.17483547  0.06627841  1  0.101013  0.001931  0.118783  0.094169  0.000853  1.003754  0.002
H  H21  1  0.37341660  0.17483398  0.43372620  1  0.10084  0.001931  0.118773  0.094059  0.000853  1.003752  0.002
H  H22  1  0.62657648  0.32516399  0.93372345  1  0.100964  0.001932  0.118792  0.094124  0.000853  1.003774  0.002
H  H23  1  0.87341989  0.32516431  0.56627682  1  0.10094  0.001932  0.11879  0.094108  0.000853  1.003756  0.002
H  H24  1  0.97070432  0.92745370  0.72506223  1  0.026891  6.5e-05  0.088452  0.079032  3.2e-05  0.980112  0.0
H  H25  1  0.52929679  0.92745428  0.77493600  1  0.027119  6.5e-05  0.088465  0.079023  3.2e-05  0.980036  0.0
H  H26  1  0.47070922  0.57254800  0.27493728  1  0.026929  6.5e-05  0.088472  0.079031  3.2e-05  0.980075  0.0
H  H27  1  0.02929326  0.57254662  0.22506085  1  0.026948  6.5e-05  0.088428  0.078969  3.2e-05  0.980146  0.0
H  H28  1  0.02930189  0.07254742  0.27493569  1  0.027103  6.5e-05  0.088453  0.079009  3.2e-05  0.98012  0.0
H  H29  1  0.47070745  0.07255099  0.22506671  1  0.027085  6.5e-05  0.088459  0.079066  3.2e-05  0.98011  0.0
H  H30  1  0.52929207  0.42745312  0.72506255  1  0.02691  6.5e-05  0.08848  0.079042  3.2e-05  0.980055  0.0
H  H31  1  0.97070410  0.42745088  0.77493706  1  0.027173  6.5e-05  0.088465  0.079029  3.2e-05  0.980146  0.0
H  H32  1  0.83011307  0.88430446  0.69489150  1  -0.020585  9.4e-05  0.079711  0.061837  4.4e-05  1.032542  0.0
H  H33  1  0.66989206  0.88430438  0.80510632  1  -0.020544  9.4e-05  0.079709  0.0618  4.4e-05  1.032526  0.0
H  H34  1  0.33011431  0.61569629  0.30510666  1  -0.020704  9.4e-05  0.0797  0.061803  4.4e-05  1.032567  0.0
H  H35  1  0.16988810  0.61569437  0.19488996  1  -0.020565  9.5e-05  0.079679  0.061778  4.4e-05  1.032615  0.0
H  H36  1  0.16989117  0.11569770  0.30510737  1  -0.020431  9.4e-05  0.079701  0.061797  4.4e-05  1.032564  0.0
H  H37  1  0.33011022  0.11569881  0.19489639  1  -0.020489  9.4e-05  0.079728  0.061845  4.4e-05  1.032514  0.0
H  H38  1  0.66988994  0.38430484  0.69489509  1  -0.0205  9.4e-05  0.079705  0.061791  4.4e-05  1.032593  0.0
H  H39  1  0.83010927  0.38430364  0.80510555  1  -0.020401  9.4e-05  0.079711  0.061812  4.4e-05  1.032538  0.0
H  H40  1  0.96374293  0.88029105  0.83459574  1  0.100517  0.00106  0.11361  0.12205  0.000549  0.984953  0.001
H  H41  1  0.53626220  0.88029185  0.66540546  1  0.100589  0.00106  0.113624  0.122057  0.000549  0.984928  0.001
H  H42  1  0.46374158  0.61970807  0.16540903  1  0.100571  0.00106  0.113611  0.122026  0.000549  0.984934  0.001
H  H43  1  0.03625492  0.61970956  0.33459334  1  0.100412  0.00106  0.11363  0.122022  0.000549  0.984994  0.001
H  H44  1  0.03625639  0.11971059  0.16540697  1  0.100468  0.00106  0.11365  0.122071  0.000549  0.984966  0.001
H  H45  1  0.46374794  0.11970979  0.33459629  1  0.100398  0.00106  0.11359  0.121969  0.000549  0.985044  0.001
H  H46  1  0.53625382  0.38028839  0.83459512  1  0.100444  0.00106  0.113633  0.122073  0.000549  0.985014  0.001
H  H47  1  0.96374539  0.38028949  0.66540409  1  0.10052  0.00106  0.113589  0.122024  0.000549  0.985038  0.001
H  H48  1  0.81084517  0.63953679  0.83953706  1  0.090061  0.001942  0.11681  0.083405  0.000882  1.00936  0.001
H  H49  1  0.68915551  0.63953649  0.66046313  1  0.090029  0.001942  0.116814  0.083411  0.000882  1.009328  0.001
H  H50  1  0.31085508  0.86046292  0.16046249  1  0.090017  0.001942  0.116822  0.083498  0.000882  1.009299  0.001
H  H51  1  0.18915569  0.86046225  0.33953465  1  0.090043  0.001942  0.11682  0.083441  0.000882  1.009327  0.001
H  H52  1  0.18915416  0.36046433  0.16046374  1  0.089993  0.001942  0.1168  0.08339  0.000882  1.009331  0.001
H  H53  1  0.31085463  0.36046204  0.33954006  1  0.090093  0.001942  0.116793  0.083395  0.000882  1.009396  0.001
H  H54  1  0.68914719  0.13953561  0.83953734  1  0.09004  0.001942  0.116792  0.083435  0.000882  1.009312  0.001
H  H55  1  0.81084069  0.13953577  0.66046135  1  0.090012  0.001942  0.116779  0.083358  0.000882  1.009369  0.001
H  H56  1  0.10142872  0.81990813  0.72036028  1  0.140593  -0.000123  0.110486  0.144609  -0.000109  0.982111  0.0
H  H57  1  0.39857609  0.81990851  0.77963869  1  0.140667  -0.000123  0.110491  0.144619  -0.000109  0.982105  0.0
H  H58  1  0.60142703  0.68009272  0.27964157  1  0.140651  -0.000123  0.110512  0.144681  -0.000109  0.982092  0.0
H  H59  1  0.89857568  0.68009271  0.22035774  1  0.140713  -0.000123  0.110512  0.144624  -0.000109  0.982093  0.0
H  H60  1  0.89857159  0.18009195  0.27963907  1  0.140641  -0.000124  0.110493  0.14461  -0.000109  0.982058  0.0
H  H61  1  0.60142914  0.18009675  0.22035923  1  0.140664  -0.000124  0.110487  0.144589  -0.000109  0.982112  0.0
H  H62  1  0.39857426  0.31990788  0.72035874  1  0.140671  -0.000123  0.110505  0.14468  -0.000109  0.982093  0.0
H  H63  1  0.10142267  0.31990686  0.77963921  1  0.140685  -0.000124  0.110508  0.14468  -0.000109  0.982059  0.0
H  H64  1  0.97672697  0.77704808  0.67739490  1  0.011602  -8e-06  0.095581  0.101052  -3e-06  0.993592  0.0
H  H65  1  0.52327443  0.77704856  0.82260312  1  0.011629  -8e-06  0.095568  0.101049  -3e-06  0.993643  0.0
H  H66  1  0.47672918  0.72295414  0.32260607  1  0.011678  -8e-06  0.095597  0.101069  -3e-06  0.993623  0.0
H  H67  1  0.02327400  0.72295234  0.17739372  1  0.011598  -8e-06  0.095648  0.101106  -3e-06  0.993631  0.0
H  H68  1  0.02327138  0.22295253  0.32260589  1  0.011595  -8e-06  0.095589  0.101056  -3e-06  0.993622  0.0
H  H69  1  0.47672195  0.22295723  0.17739767  1  0.011549  -8e-06  0.095576  0.101039  -3e-06  0.993566  0.0
H  H70  1  0.52327309  0.27704698  0.67739520  1  0.011663  -8e-06  0.095571  0.101004  -3e-06  0.993654  0.0
H  H71  1  0.97672631  0.27704516  0.82260419  1  0.011546  -8e-06  0.095598  0.101099  -3e-06  0.993636  0.0
H  H72  1  0.90118327  0.68620081  0.73712357  1  0.09378  0.000937  0.109486  0.121134  0.000482  0.997075  0.0
H  H73  1  0.59881437  0.68620086  0.76287558  1  0.093773  0.000936  0.109492  0.121175  0.000482  0.997061  0.0
H  H74  1  0.40119347  0.81380042  0.26287575  1  0.093747  0.000937  0.109483  0.12116  0.000482  0.997008  0.0
H  H75  1  0.09881641  0.81379793  0.23712195  1  0.093771  0.000937  0.10946  0.121102  0.000482  0.997081  0.0
H  H76  1  0.09881605  0.31380135  0.26287675  1  0.093732  0.000937  0.109477  0.121154  0.000482  0.997048  0.0
H  H77  1  0.40118791  0.31380078  0.23712762  1  0.093867  0.000936  0.109488  0.121119  0.000482  0.997038  0.0
H  H78  1  0.59881273  0.18619967  0.73712408  1  0.09376  0.000937  0.109468  0.121107  0.000482  0.997008  0.0
H  H79  1  0.90118095  0.18619905  0.76287500  1  0.093797  0.000937  0.109487  0.121187  0.000482  0.997046  0.0
H  H80  1  0.12822959  0.01235954  0.58351667  1  0.076338  0.001283  0.114119  0.127863  0.000653  0.981678  0.001
H  H81  1  0.37176793  0.01235912  0.91648471  1  0.076316  0.001283  0.114072  0.127823  0.000653  0.981696  0.001
H  H82  1  0.62823183  0.48763992  0.41648183  1  0.076284  0.001283  0.114108  0.127888  0.000653  0.981674  0.001
H  H83  1  0.87176634  0.48764020  0.08351543  1  0.076281  0.001283  0.114098  0.127889  0.000653  0.981594  0.001
H  H84  1  0.87176876  0.98764159  0.41648124  1  0.076346  0.001283  0.114101  0.12785  0.000653  0.981655  0.001
H  H85  1  0.62822550  0.98764148  0.08352137  1  0.076425  0.001283  0.114107  0.12789  0.000653  0.981733  0.001
H  H86  1  0.37177438  0.51235913  0.58351416  1  0.07641  0.001283  0.1141  0.127862  0.000653  0.981724  0.001
H  H87  1  0.12823004  0.51235729  0.91648152  1  0.076323  0.001283  0.114089  0.127836  0.000653  0.981716  0.001
H  H88  1  0.65487674  0.05655515  0.56007120  1  0.136799  0.002464  0.123344  0.107435  0.001165  0.989461  0.002
H  H89  1  0.84512014  0.05655729  0.93992956  1  0.136884  0.002463  0.123353  0.107446  0.001165  0.989464  0.002
H  H90  1  0.15488578  0.44344895  0.43993602  1  0.136556  0.002464  0.123395  0.107483  0.001165  0.989512  0.002
H  H91  1  0.34511597  0.44344671  0.06006571  1  0.136525  0.002465  0.123381  0.107463  0.001165  0.989489  0.002
H  H92  1  0.34511964  0.94344235  0.43992960  1  0.136789  0.002464  0.123366  0.107475  0.001165  0.989455  0.002
H  H93  1  0.15487624  0.94344745  0.06006884  1  0.136785  0.002464  0.123385  0.107512  0.001165  0.989441  0.002
H  H94  1  0.84512632  0.55655528  0.56007101  1  0.13675  0.002463  0.123353  0.107456  0.001165  0.989501  0.002
H  H95  1  0.65487943  0.55655700  0.93992981  1  0.136807  0.002464  0.123357  0.107442  0.001165  0.989511  0.002
H  H96  1  0.09216696  0.89834247  0.62194144  1  0.059514  -7.4e-05  0.10046  0.117248  -0.000108  0.996262  0.0
H  H97  1  0.40783771  0.89834264  0.87805739  1  0.059566  -7.4e-05  0.100483  0.117266  -0.000109  0.996272  0.0
H  H98  1  0.59216851  0.60166098  0.37805943  1  0.059665  -7.4e-05  0.100416  0.117272  -0.000109  0.996246  0.0
H  H99  1  0.90783239  0.60165806  0.12193906  1  0.059553  -7.4e-05  0.100442  0.117212  -0.000109  0.996287  0.0
H  H100  1  0.90783630  0.10165813  0.37805600  1  0.059369  -7.4e-05  0.100479  0.117289  -0.000108  0.996271  0.0
H  H101  1  0.59216260  0.10165952  0.12194340  1  0.059284  -7.4e-05  0.10045  0.11727  -0.000108  0.996287  0.0
H  H102  1  0.40783966  0.39834118  0.62193896  1  0.059331  -7.4e-05  0.100433  0.117241  -0.000109  0.996315  0.0
H  H103  1  0.09216105  0.39834047  0.87805933  1  0.059297  -7.4e-05  0.10045  0.117245  -0.000108  0.996325  0.0
H  H104  1  0.94927609  0.85769690  0.59311072  1  0.073547  -7.5e-05  0.099146  0.114614  -5.8e-05  0.990383  0.0
H  H105  1  0.55072613  0.85769771  0.90688715  1  0.073583  -7.4e-05  0.099165  0.114596  -5.8e-05  0.990395  0.0
H  H106  1  0.44927354  0.64230585  0.40688873  1  0.073955  -7.4e-05  0.099132  0.114601  -5.8e-05  0.990427  0.0
H  H107  1  0.05072194  0.64230421  0.09310929  1  0.073529  -7.5e-05  0.099138  0.114618  -5.8e-05  0.990391  0.0
H  H108  1  0.05072619  0.14230370  0.40688767  1  0.073565  -7.5e-05  0.099151  0.114624  -5.8e-05  0.990418  0.0
H  H109  1  0.44927123  0.14230548  0.09311412  1  0.074012  -7.4e-05  0.09913  0.114568  -5.8e-05  0.990423  0.0
H  H110  1  0.55073169  0.35769683  0.59311159  1  0.074328  -7.4e-05  0.099138  0.114651  -5.8e-05  0.990359  0.0
H  H111  1  0.94926855  0.35769588  0.90688863  1  0.074334  -7.4e-05  0.099139  0.114614  -5.8e-05  0.990364  0.0
H  H112  1  0.72838548  0.94075589  0.60147818  1  0.081492  0.001172  0.108225  0.115948  0.000607  1.0149  0.001
H  H113  1  0.77161364  0.94075920  0.89852003  1  0.081499  0.001172  0.108252  0.115951  0.000607  1.014902  0.001
H  H114  1  0.22838593  0.55924645  0.39852738  1  0.081594  0.001172  0.108227  0.115927  0.000607  1.014873  0.001
H  H115  1  0.27161658  0.55924572  0.10147174  1  0.081617  0.001172  0.108235  0.115919  0.000607  1.014872  0.001
H  H116  1  0.27161876  0.05924212  0.39852165  1  0.081547  0.001172  0.108224  0.115917  0.000607  1.014889  0.001
H  H117  1  0.22838077  0.05924348  0.10147789  1  0.081502  0.001172  0.108254  0.116036  0.000607  1.014826  0.001
H  H118  1  0.77161831  0.44075622  0.60147773  1  0.081524  0.001172  0.108268  0.116012  0.000607  1.01484  0.001
H  H119  1  0.72837980  0.44075644  0.89852186  1  0.08153  0.001172  0.108252  0.115951  0.000607  1.014797  0.001
H  H120  1  0.12716866  0.70056944  0.90104929  1  0.04186  0.00229  0.105093  0.058336  0.001213  0.987236  0.001
H  H121  1  0.37283638  0.70057176  0.59894893  1  0.041897  0.002289  0.105091  0.058367  0.001213  0.987184  0.001
H  H122  1  0.62716172  0.79942468  0.09895168  1  0.041939  0.00229  0.105107  0.058393  0.001213  0.987251  0.001
H  H123  1  0.87283487  0.79942947  0.40104983  1  0.041847  0.00229  0.105074  0.058334  0.001213  0.987282  0.001
H  H124  1  0.87283754  0.29943583  0.09894862  1  0.041793  0.002289  0.105088  0.058298  0.001213  0.987251  0.001
H  H125  1  0.62716295  0.29942884  0.40105042  1  0.041852  0.002289  0.10509  0.05836  0.001212  0.987239  0.001
H  H126  1  0.37283565  0.20056868  0.90104912  1  0.041848  0.002289  0.105076  0.058355  0.001212  0.987199  0.001
H  H127  1  0.12716249  0.20056647  0.59894857  1  0.041835  0.002289  0.105106  0.058369  0.001212  0.987211  0.001
H  H128  1  0.31952636  0.62675209  0.91629641  1  0.036256  3.1e-05  0.100198  0.122509  8e-06  0.972397  0.0
H  H129  1  0.18047489  0.62675506  0.58370482  1  0.036335  3.1e-05  0.100155  0.122479  8e-06  0.972525  0.0
H  H130  1  0.81952107  0.87324089  0.08370556  1  0.036192  3.1e-05  0.100149  0.122498  8e-06  0.972456  0.0
H  H131  1  0.68047243  0.87324524  0.41629917  1  0.036328  3.1e-05  0.100189  0.122503  8e-06  0.972429  0.0
H  H132  1  0.68047198  0.37324955  0.08369910  1  0.036186  3.1e-05  0.100201  0.122552  8e-06  0.972461  0.0
H  H133  1  0.81952346  0.37324503  0.41629645  1  0.036313  3.1e-05  0.100225  0.122569  8e-06  0.972512  0.0
H  H134  1  0.18047138  0.12675402  0.91629571  1  0.036327  3.1e-05  0.100181  0.122486  8e-06  0.972503  0.0
H  H135  1  0.31952984  0.12675536  0.58370114  1  0.036338  3.1e-05  0.100191  0.12254  8e-06  0.972432  0.0
H  H136  1  0.34304523  0.68401895  0.85138929  1  0.058475  0.000436  0.109594  0.135749  0.000265  0.971295  0.0
H  H137  1  0.15695395  0.68402646  0.64860801  1  0.058339  0.000436  0.109564  0.135778  0.000265  0.971239  0.0
H  H138  1  0.84304276  0.81597039  0.14860843  1  0.058293  0.000436  0.109503  0.135675  0.000265  0.971346  0.0
H  H139  1  0.65695478  0.81597903  0.35139160  1  0.058521  0.000436  0.109571  0.135733  0.000265  0.971332  0.0
H  H140  1  0.65695704  0.31598165  0.14860767  1  0.058501  0.000436  0.109602  0.135756  0.000265  0.971242  0.0
H  H141  1  0.84304145  0.31597466  0.35139230  1  0.058339  0.000436  0.109518  0.135699  0.000265  0.971271  0.0
H  H142  1  0.15695166  0.18402452  0.85139140  1  0.058517  0.000436  0.109566  0.135744  0.000265  0.971327  0.0
H  H143  1  0.34304553  0.18402106  0.64860919  1  0.058514  0.000436  0.1096  0.135785  0.000265  0.971318  0.0
H  H144  1  0.09945969  0.72960117  0.00644503  1  0.633661  -0.000457  0.281603  0.325738  -0.00024  1.033108  -0.001
H  H145  1  0.40054151  0.72960421  0.49355283  1  0.633633  -0.000457  0.281642  0.325871  -0.00024  1.032847  -0.001
H  H146  1  0.59945621  0.77039554  0.99355202  1  0.633585  -0.000457  0.281672  0.325895  -0.00024  1.032861  -0.001
H  H147  1  0.90054225  0.77039650  0.50644601  1  0.633645  -0.000457  0.281602  0.325726  -0.00024  1.033107  -0.001
H  H148  1  0.90053866  0.27039840  0.99355288  1  0.633814  -0.000457  0.281642  0.325843  -0.00024  1.032962  -0.001
H  H149  1  0.59945978  0.27039691  0.50644892  1  0.633808  -0.000457  0.281626  0.325865  -0.00024  1.032928  -0.001
H  H150  1  0.40054214  0.22960299  0.00644589  1  0.633742  -0.000457  0.281652  0.325878  -0.00024  1.032906  -0.001
H  H151  1  0.09946100  0.22960048  0.49355142  1  0.633814  -0.000457  0.281584  0.32579  -0.00024  1.033026  -0.001
C  C152  1  0.97343454  0.08210024  0.55567651  1  0.480901  -0.000762  0.045057  0.083284  -0.001145  3.972491  0.0
C  C153  1  0.52656032  0.08210047  0.94432612  1  0.480853  -0.000762  0.044905  0.083218  -0.001145  3.97245  0.0
C  C154  1  0.47344074  0.41790111  0.44432247  1  0.481059  -0.000764  0.045034  0.083371  -0.001144  3.972433  0.0
C  C155  1  0.02656205  0.41789956  0.05567595  1  0.480873  -0.000763  0.044924  0.083288  -0.001146  3.972339  0.0
C  C156  1  0.02656380  0.91789933  0.44432093  1  0.480898  -0.000763  0.045063  0.083278  -0.001145  3.972467  0.0
C  C157  1  0.47343508  0.91790169  0.05568187  1  0.481225  -0.000763  0.045052  0.083479  -0.001145  3.972382  0.0
C  C158  1  0.52656744  0.58210053  0.55567401  1  0.48088  -0.000762  0.044983  0.083205  -0.001145  3.972437  0.0
C  C159  1  0.97343630  0.58209898  0.94432196  1  0.480836  -0.000762  0.045073  0.083315  -0.001145  3.972366  0.0
C  C160  1  0.87982528  0.79690380  0.88860552  1  0.481296  -0.000462  0.043337  0.093962  -0.000639  3.940805  0.0
C  C161  1  0.62018001  0.79690571  0.61139486  1  0.480891  -0.000461  0.043335  0.093935  -0.000638  3.940833  0.0
C  C162  1  0.37982805  0.70309277  0.11139854  1  0.481663  -0.000465  0.043267  0.093694  -0.000638  3.940953  0.0
C  C163  1  0.12017222  0.70309358  0.38860224  1  0.481733  -0.000465  0.043354  0.093851  -0.000638  3.94077  0.0
C  C164  1  0.12017110  0.20309525  0.11139719  1  0.481277  -0.000461  0.04337  0.093876  -0.000638  3.940741  0.0
C  C165  1  0.37982325  0.20309179  0.38860833  1  0.481127  -0.000461  0.043328  0.09395  -0.000638  3.940758  0.0
C  C166  1  0.62016931  0.29690369  0.88860561  1  0.481722  -0.000466  0.043297  0.093816  -0.000639  3.940895  0.0
C  C167  1  0.87982711  0.29690391  0.61139423  1  0.481244  -0.000462  0.043329  0.09396  -0.000638  3.94084  0.0
C  C168  1  0.93827745  0.88538139  0.69308840  1  0.002485  -0.000304  -0.158295  -0.115922  -0.00038  3.930684  0.0
C  C169  1  0.56172177  0.88538033  0.80691231  1  0.002024  -0.000304  -0.158252  -0.115759  -0.00038  3.930745  0.0
C  C170  1  0.43827871  0.61462137  0.30691246  1  0.002472  -0.000304  -0.158226  -0.115758  -0.00038  3.9307  0.0
C  C171  1  0.06171976  0.61462003  0.19308464  1  0.002521  -0.000304  -0.158209  -0.115768  -0.00038  3.93079  0.0
C  C172  1  0.06172482  0.11462180  0.30691048  1  0.002071  -0.000304  -0.158278  -0.115799  -0.00038  3.930847  0.0
C  C173  1  0.43827854  0.11462235  0.19309184  1  0.001946  -0.000304  -0.158303  -0.115932  -0.00038  3.930702  0.0
C  C174  1  0.56171963  0.38537872  0.69308833  1  0.00226  -0.000304  -0.158252  -0.115762  -0.00038  3.93079  0.0
C  C175  1  0.93827662  0.38537902  0.80690991  1  0.002018  -0.000304  -0.158264  -0.11579  -0.00038  3.930724  0.0
C  C176  1  0.93551008  0.96739299  0.59785801  1  -0.017645  -0.003606  0.018644  0.179279  -0.004072  3.944415  -0.002
C  C177  1  0.56448899  0.96739328  0.90214159  1  -0.017682  -0.003606  0.018672  0.179224  -0.004071  3.944381  -0.002
C  C178  1  0.43551456  0.53260666  0.40214236  1  -0.017899  -0.003605  0.018628  0.179256  -0.004071  3.944461  -0.002
C  C179  1  0.06448604  0.53260811  0.09785537  1  -0.017768  -0.003606  0.018669  0.179224  -0.004072  3.944528  -0.002
C  C180  1  0.06449416  0.03260710  0.40213990  1  -0.01783  -0.003606  0.018635  0.179349  -0.004072  3.94419  -0.002
C  C181  1  0.43550445  0.03260732  0.09786400  1  -0.017915  -0.003605  0.018682  0.179453  -0.004071  3.944282  -0.002
C  C182  1  0.56449459  0.46739239  0.59785747  1  -0.017859  -0.003605  0.018622  0.179239  -0.004071  3.944278  -0.002
C  C183  1  0.93550838  0.46739146  0.90214111  1  -0.018016  -0.003606  0.018632  0.179321  -0.004071  3.9442  -0.002
C  C184  1  0.92855442  0.82705923  0.83299263  1  -0.064957  0.005263  -0.078197  -0.170884  0.003477  3.935015  0.004
C  C185  1  0.57145277  0.82706053  0.66700770  1  -0.065032  0.005263  -0.078196  -0.170967  0.003476  3.935027  0.004
C  C186  1  0.42855298  0.67293835  0.16700964  1  -0.065077  0.005262  -0.078239  -0.170921  0.003476  3.934983  0.004
C  C187  1  0.07144243  0.67293827  0.33299071  1  -0.064882  0.005263  -0.078217  -0.170849  0.003476  3.934979  0.004
C  C188  1  0.07144687  0.17294034  0.16700960  1  -0.064886  0.005262  -0.07828  -0.17096  0.003476  3.935069  0.004
C  C189  1  0.42855933  0.17294059  0.33299789  1  -0.064339  0.005262  -0.078145  -0.170706  0.003476  3.935289  0.004
C  C190  1  0.57144536  0.32705966  0.83299307  1  -0.064893  0.005262  -0.078202  -0.170884  0.003476  3.935149  0.004
C  C191  1  0.92855296  0.32705923  0.66700624  1  -0.064942  0.005263  -0.078161  -0.170876  0.003477  3.9351  0.004
C  C192  1  0.84674106  0.69252216  0.83653195  1  0.445175  -0.001717  0.03841  0.084869  -0.002255  3.993888  -0.001
C  C193  1  0.65326050  0.69252135  0.66346814  1  0.44494  -0.001716  0.038416  0.084936  -0.002255  3.993761  -0.001
C  C194  1  0.34675013  0.80747961  0.16346914  1  0.445958  -0.001715  0.038371  0.084769  -0.002254  3.994047  -0.001
C  C195  1  0.15325977  0.80747844  0.33653002  1  0.445479  -0.001716  0.038413  0.084836  -0.002254  3.994001  -0.001
C  C196  1  0.15325630  0.30747948  0.16346884  1  0.445574  -0.001715  0.038356  0.084861  -0.002254  3.994034  -0.001
C  C197  1  0.34674080  0.30747770  0.33653697  1  0.444401  -0.001717  0.038506  0.084988  -0.002256  3.993765  -0.001
C  C198  1  0.65325313  0.19251996  0.83653262  1  0.445533  -0.001714  0.038434  0.084851  -0.002254  3.993917  -0.001
C  C199  1  0.84673956  0.19252061  0.66346645  1  0.444963  -0.001716  0.038509  0.085044  -0.002255  3.993881  -0.001
C  C200  1  0.99389845  0.81562700  0.71532420  1  -0.013093  0.000248  -0.158379  -0.216234  0.000118  3.911816  0.0
C  C201  1  0.50610287  0.81562912  0.78467759  1  -0.013001  0.000248  -0.158392  -0.216293  0.000118  3.911855  0.0
C  C202  1  0.49390326  0.68437521  0.28467921  1  -0.013198  0.000248  -0.15851  -0.216434  0.000118  3.911865  0.0
C  C203  1  0.00610098  0.68437386  0.21531921  1  -0.013163  0.000248  -0.158529  -0.216387  0.000118  3.911744  0.0
C  C204  1  0.00610284  0.18437205  0.28467755  1  -0.013102  0.000248  -0.158392  -0.216214  0.000118  3.911909  0.0
C  C205  1  0.49389941  0.18437614  0.21532609  1  -0.013033  0.000247  -0.158442  -0.216282  0.000118  3.911647  0.0
C  C206  1  0.50609804  0.31562953  0.71532062  1  -0.013123  0.000248  -0.158471  -0.216384  0.000119  3.91187  0.0
C  C207  1  0.99389638  0.31562519  0.78467726  1  -0.013102  0.000248  -0.158472  -0.216438  0.000118  3.91185  0.0
C  C208  1  0.93837922  0.78790922  0.77651436  1  0.003879  -0.003539  0.023947  0.193413  -0.004003  3.922006  -0.002
C  C209  1  0.56162608  0.78790937  0.72348604  1  0.003882  -0.00354  0.023968  0.193544  -0.004004  3.921797  -0.002
C  C210  1  0.43838032  0.71209198  0.22348650  1  0.003929  -0.003539  0.024039  0.193564  -0.004003  3.921715  -0.002
C  C211  1  0.06162190  0.71208943  0.27651283  1  0.003806  -0.00354  0.023997  0.193536  -0.004003  3.921731  -0.002
C  C212  1  0.06162207  0.21209190  0.22348691  1  0.003898  -0.00354  0.024034  0.19349  -0.004003  3.921917  -0.002
C  C213  1  0.43837325  0.21209175  0.27651955  1  0.003623  -0.00354  0.023912  0.193308  -0.004004  3.921924  -0.002
C  C214  1  0.56161999  0.28790914  0.77651525  1  0.003894  -0.00354  0.023984  0.193525  -0.004003  3.921718  -0.002
C  C215  1  0.93837547  0.28790806  0.72348509  1  0.003988  -0.00354  0.023913  0.193409  -0.004004  3.921826  -0.002
C  C216  1  0.89615304  0.71903508  0.77964906  1  3e-05  0.004068  -0.085315  -0.191633  0.002747  3.959681  0.003
C  C217  1  0.60385043  0.71903367  0.72035050  1  -0.00038  0.004068  -0.085326  -0.191754  0.002747  3.959578  0.003
C  C218  1  0.39615889  0.78096770  0.22034976  1  0.000105  0.004068  -0.085347  -0.191706  0.002747  3.95972  0.003
C  C219  1  0.10384811  0.78096512  0.27964896  1  -0.000417  0.004069  -0.0853  -0.191625  0.002747  3.959643  0.003
C  C220  1  0.10384825  0.28096656  0.22035125  1  -0.000417  0.004068  -0.085319  -0.191686  0.002747  3.95975  0.003
C  C221  1  0.39615971  0.28096849  0.27965461  1  0.000116  0.004068  -0.085294  -0.191556  0.002747  3.959435  0.003
C  C222  1  0.60384732  0.21903291  0.77965055  1  3.6e-05  0.004068  -0.085316  -0.191671  0.002747  3.959565  0.003
C  C223  1  0.89614925  0.21903341  0.72034943  1  -0.000399  0.004068  -0.08533  -0.191747  0.002747  3.959675  0.003
C  C224  1  0.02234556  0.02016908  0.57975402  1  -0.050242  0.005415  -0.083806  -0.188192  0.003615  3.943831  0.004
C  C225  1  0.47765292  0.02016912  0.92024639  1  -0.050213  0.005415  -0.083723  -0.188067  0.003615  3.943753  0.004
C  C226  1  0.52235081  0.47983043  0.42024420  1  -0.050263  0.005415  -0.083821  -0.188323  0.003615  3.943894  0.004
C  C227  1  0.97765032  0.47983067  0.07975452  1  -0.050202  0.005416  -0.083763  -0.188227  0.003615  3.943705  0.004
C  C228  1  0.97765376  0.97983101  0.42024197  1  -0.050173  0.005416  -0.083775  -0.188175  0.003615  3.943665  0.004
C  C229  1  0.52234051  0.97983252  0.07976065  1  -0.050689  0.005415  -0.083766  -0.188317  0.003615  3.943851  0.004
C  C230  1  0.47765834  0.52016862  0.57975324  1  -0.050211  0.005415  -0.083745  -0.188109  0.003615  3.943812  0.004
C  C231  1  0.02234704  0.52016786  0.92024291  1  -0.050094  0.005416  -0.083785  -0.188206  0.003615  3.943671  0.004
C  C232  1  0.75856684  0.04365801  0.56566975  1  0.533309  -0.001259  0.046992  0.089729  -0.001528  3.940447  -0.001
C  C233  1  0.74143007  0.04365918  0.93433103  1  0.533323  -0.001259  0.046907  0.089645  -0.001528  3.940293  -0.001
C  C234  1  0.25857284  0.45634345  0.43433488  1  0.53365  -0.00126  0.046893  0.089631  -0.001528  3.94057  -0.001
C  C235  1  0.24142987  0.45634073  0.06566443  1  0.533567  -0.00126  0.046987  0.089751  -0.001528  3.940594  -0.001
C  C236  1  0.24143151  0.95633949  0.43433009  1  0.533364  -0.00126  0.046922  0.089628  -0.001528  3.94049  -0.001
C  C237  1  0.25856435  0.95634349  0.06567120  1  0.533315  -0.001259  0.047019  0.089815  -0.001527  3.940497  -0.001
C  C238  1  0.74143533  0.54365871  0.56566879  1  0.533333  -0.001259  0.047022  0.089766  -0.001528  3.940364  -0.001
C  C239  1  0.75856651  0.54365935  0.93433108  1  0.533272  -0.001259  0.046985  0.089725  -0.001528  3.94056  -0.001
C  C240  1  0.98435965  0.90005347  0.62415437  1  -0.004451  9.7e-05  -0.161344  -0.215438  -4.8e-05  3.915852  0.0
C  C241  1  0.51564249  0.90005229  0.87584247  1  -0.004436  9.7e-05  -0.161447  -0.215554  -4.8e-05  3.916159  0.0
C  C242  1  0.48435879  0.59994771  0.37584614  1  -0.005071  9.7e-05  -0.161319  -0.215513  -4.8e-05  3.916022  0.0
C  C243  1  0.01563971  0.59994758  0.12415339  1  -0.004543  9.7e-05  -0.161343  -0.215418  -4.8e-05  3.916069  0.0
C  C244  1  0.01564459  0.09994662  0.37584402  1  -0.004331  9.7e-05  -0.161426  -0.215673  -4.8e-05  3.91606  0.0
C  C245  1  0.48435586  0.09994728  0.12415640  1  -0.00456  9.7e-05  -0.161358  -0.215487  -4.8e-05  3.915941  0.0
C  C246  1  0.51564742  0.40005186  0.62415466  1  -0.005087  9.7e-05  -0.161332  -0.215557  -4.8e-05  3.916016  0.0
C  C247  1  0.98435470  0.40005199  0.87584404  1  -0.004952  9.7e-05  -0.161392  -0.215574  -4.8e-05  3.916084  0.0
C  C248  1  0.80083066  0.98024509  0.58937143  1  -0.099665  0.005561  -0.084145  -0.188021  0.00367  3.938013  0.004
C  C249  1  0.69916740  0.98024582  0.91062623  1  -0.099655  0.005561  -0.084187  -0.187979  0.00367  3.937916  0.004
C  C250  1  0.30083428  0.51975618  0.41063098  1  -0.099482  0.005561  -0.084089  -0.187911  0.00367  3.937689  0.004
C  C251  1  0.19916635  0.51975344  0.08936726  1  -0.099556  0.005562  -0.084183  -0.187995  0.003671  3.937959  0.004
C  C252  1  0.19917162  0.01975240  0.41062601  1  -0.099505  0.005562  -0.084167  -0.188015  0.003671  3.937817  0.004
C  C253  1  0.30082701  0.01975479  0.08937504  1  -0.099597  0.005561  -0.084264  -0.188298  0.00367  3.937939  0.004
C  C254  1  0.69917291  0.48024494  0.58937318  1  -0.099386  0.005561  -0.084232  -0.188116  0.003671  3.937838  0.004
C  C255  1  0.80082905  0.48024613  0.91062778  1  -0.099419  0.005561  -0.084179  -0.188028  0.003671  3.937759  0.004
C  C256  1  0.21429372  0.72364221  0.92423156  1  0.445071  0.000259  -0.016509  0.099176  -0.000212  3.886015  -0.002
C  C257  1  0.28570341  0.72364360  0.57576662  1  0.44504  0.000259  -0.016498  0.099154  -0.000212  3.885883  -0.002
C  C258  1  0.71429540  0.77635289  0.07576964  1  0.444738  0.000259  -0.016512  0.098932  -0.000212  3.886165  -0.002
C  C259  1  0.78570516  0.77635717  0.42422950  1  0.445126  0.000259  -0.016542  0.099048  -0.000212  3.88595  -0.002
C  C260  1  0.78571248  0.27636150  0.07576875  1  0.44503  0.000259  -0.016482  0.099313  -0.000212  3.885849  -0.002
C  C261  1  0.71429395  0.27635701  0.42423177  1  0.445015  0.000258  -0.01654  0.099054  -0.000212  3.88598  -0.002
C  C262  1  0.28570491  0.22364305  0.92423019  1  0.445045  0.000258  -0.016505  0.099143  -0.000213  3.885786  -0.002
C  C263  1  0.21429417  0.22364292  0.57576841  1  0.445016  0.000258  -0.016527  0.099061  -0.000212  3.885886  -0.002
C  C264  1  0.21875312  0.79924893  0.90051176  1  1.583917  -0.000504  0.186354  0.52621  -0.000732  4.219541  -0.001
C  C265  1  0.28124485  0.79925182  0.59948629  1  1.584121  -0.000503  0.186222  0.526174  -0.000729  4.219744  -0.001
C  C266  1  0.71874932  0.70074617  0.09948898  1  1.583545  -0.000506  0.186329  0.526277  -0.000731  4.219715  -0.001
C  C267  1  0.78124844  0.70074843  0.40050838  1  1.583647  -0.000504  0.186475  0.526396  -0.00073  4.219462  -0.001
C  C268  1  0.78124719  0.20075530  0.09949623  1  1.584317  -0.0005  0.186363  0.526235  -0.00073  4.219642  -0.001
C  C269  1  0.71875251  0.20074930  0.40050922  1  1.583793  -0.000503  0.186396  0.526316  -0.00073  4.219787  -0.001
C  C270  1  0.28124608  0.29925133  0.90050701  1  1.583966  -0.000502  0.18645  0.526422  -0.000729  4.219517  -0.001
C  C271  1  0.21874991  0.29925062  0.59948569  1  1.583896  -0.000505  0.186284  0.526289  -0.000732  4.21953  -0.001
C  C272  1  0.46659027  0.70328968  0.93244185  1  1.568414  -0.000276  0.203679  0.64585  -0.000368  4.13636  0.0
C  C273  1  0.03340691  0.70329431  0.56755397  1  1.568834  -0.000276  0.203775  0.646025  -0.000369  4.136287  0.0
C  C274  1  0.96659378  0.79670323  0.06756005  1  1.568928  -0.000276  0.203729  0.645845  -0.000369  4.136264  0.0
C  C275  1  0.53340478  0.79670399  0.43244098  1  1.569115  -0.000276  0.203673  0.645888  -0.000369  4.136129  0.0
C  C276  1  0.53340906  0.29670834  0.06755558  1  1.568645  -0.000276  0.203791  0.646065  -0.000368  4.136168  0.0
C  C277  1  0.96659144  0.29670526  0.43244250  1  1.568965  -0.000276  0.20375  0.645879  -0.000369  4.136296  0.0
C  C278  1  0.03340457  0.20329634  0.93244314  1  1.569079  -0.000276  0.203708  0.645916  -0.000369  4.136197  0.0
C  C279  1  0.46659258  0.20329402  0.56755885  1  1.568985  -0.000276  0.203729  0.645976  -0.000368  4.136013  0.0
C  C280  1  0.33424324  0.68166460  0.90399422  1  -0.007493  0.000963  -0.167191  -0.348982  0.000696  3.919947  0.001
C  C281  1  0.16575496  0.68166704  0.59600212  1  -0.007777  0.000963  -0.167123  -0.34898  0.000697  3.919983  0.001
C  C282  1  0.83424703  0.81833148  0.09600492  1  -0.007194  0.000963  -0.167041  -0.34875  0.000696  3.919837  0.001
C  C283  1  0.66575345  0.81833275  0.40399559  1  -0.00802  0.000963  -0.167172  -0.348932  0.000696  3.919922  0.001
C  C284  1  0.66575904  0.31833652  0.09600081  1  -0.007712  0.000963  -0.167187  -0.349071  0.000696  3.919896  0.001
C  C285  1  0.83423946  0.31833357  0.40399771  1  -0.007731  0.000963  -0.167144  -0.348908  0.000697  3.919982  0.001
C  C286  1  0.16575623  0.18166706  0.90399540  1  -0.00799  0.000963  -0.167138  -0.348938  0.000697  3.919948  0.001
C  C287  1  0.33424293  0.18166734  0.59600472  1  -0.007959  0.000963  -0.167169  -0.349058  0.000697  3.919984  0.001
N  N288  1  0.83926248  0.73042538  0.89065260  1  -1.21348  0.071082  -0.358312  -0.250906  0.047354  3.647384  0.061
N  N289  1  0.66073999  0.73042572  0.60934694  1  -1.21325  0.071081  -0.358301  -0.250905  0.047354  3.647426  0.061
N  N290  1  0.33926903  0.76957277  0.10935134  1  -1.214632  0.071083  -0.358187  -0.250686  0.047352  3.647369  0.061
N  N291  1  0.16073602  0.76957355  0.39064980  1  -1.214103  0.071091  -0.358317  -0.250898  0.047358  3.647424  0.061
N  N292  1  0.16073488  0.26957626  0.10934819  1  -1.213781  0.071084  -0.358256  -0.250862  0.047356  3.647358  0.061
N  N293  1  0.33926622  0.26957385  0.39065817  1  -1.213014  0.071083  -0.358355  -0.250974  0.047356  3.64738  0.061
N  N294  1  0.66073030  0.23042525  0.89065137  1  -1.214294  0.071084  -0.358273  -0.250804  0.047353  3.647425  0.061
N  N295  1  0.83926429  0.23042550  0.60934715  1  -1.213306  0.071083  -0.358318  -0.250916  0.047355  3.647457  0.061
N  N296  1  0.84389562  0.09421970  0.54980866  1  -1.223821  0.087785  -0.350783  -0.230075  0.058315  3.636193  0.076
N  N297  1  0.65610020  0.09422088  0.95019539  1  -1.223934  0.087777  -0.350609  -0.229917  0.058311  3.635976  0.076
N  N298  1  0.34390190  0.40578275  0.45019428  1  -1.223981  0.087782  -0.350709  -0.230048  0.058311  3.636342  0.076
N  N299  1  0.15610188  0.40578011  0.04980656  1  -1.223852  0.087785  -0.350684  -0.22999  0.058315  3.63633  0.076
N  N300  1  0.15610371  0.90577832  0.45019021  1  -1.223853  0.087783  -0.350692  -0.229949  0.058314  3.636297  0.076
N  N301  1  0.34389519  0.90578335  0.04981021  1  -1.22376  0.08778  -0.350701  -0.230154  0.058313  3.636305  0.076
N  N302  1  0.65610823  0.59422148  0.54980555  1  -1.224009  0.08778  -0.350759  -0.23003  0.058313  3.636061  0.076
N  N303  1  0.84389646  0.59421997  0.95019088  1  -1.223781  0.087783  -0.35073  -0.230017  0.058314  3.636248  0.076
O  O304  1  0.56527242  0.66744659  0.91756960  1  -1.201645  0.001275  -0.344544  -0.612162  0.000479  2.201706  0.002
O  O305  1  0.93473115  0.66744374  0.58242046  1  -1.201707  0.001272  -0.3446  -0.612262  0.000477  2.201751  0.002
O  O306  1  0.06527265  0.83255325  0.08242832  1  -1.201628  0.001274  -0.344587  -0.612235  0.000479  2.201662  0.002
O  O307  1  0.43472344  0.83255125  0.41756984  1  -1.201668  0.001272  -0.34455  -0.612266  0.000477  2.201571  0.002
O  O308  1  0.43472985  0.33255505  0.08242735  1  -1.201605  0.001271  -0.344603  -0.612266  0.000477  2.201692  0.002
O  O309  1  0.06527407  0.33255272  0.41757554  1  -1.201702  0.001276  -0.344605  -0.612286  0.00048  2.201747  0.002
O  O310  1  0.93472471  0.16744580  0.91757776  1  -1.20171  0.001273  -0.344587  -0.612277  0.000477  2.20177  0.002
O  O311  1  0.56526999  0.16744832  0.58243288  1  -1.201577  0.001275  -0.344546  -0.612188  0.000479  2.201482  0.002
O  O312  1  0.21688558  0.84693334  0.94455108  1  -1.11801  0.11216  -0.352709  -0.553344  0.070735  2.308439  0.101
O  O313  1  0.28310542  0.84693580  0.55544545  1  -1.118395  0.112145  -0.35267  -0.553369  0.070725  2.308748  0.101
O  O314  1  0.71688333  0.65306280  0.05544726  1  -1.117898  0.112167  -0.352763  -0.553481  0.070738  2.308482  0.101
O  O315  1  0.78311452  0.65306548  0.44455115  1  -1.117705  0.112167  -0.35279  -0.553456  0.070739  2.308282  0.101
O  O316  1  0.78311178  0.15306882  0.05545404  1  -1.118124  0.112182  -0.352761  -0.553393  0.070749  2.308174  0.101
O  O317  1  0.71688015  0.15306584  0.44455343  1  -1.117767  0.112171  -0.352841  -0.553535  0.070742  2.308226  0.101
O  O318  1  0.28311109  0.34693366  0.94455113  1  -1.117999  0.11215  -0.352756  -0.553419  0.070728  2.308335  0.101
O  O319  1  0.21687203  0.34693460  0.55544628  1  -1.118186  0.112141  -0.352703  -0.553378  0.070724  2.308608  0.101
O  O320  1  0.46927268  0.75691652  0.96939678  1  -1.18551  -0.000324  -0.325961  -0.581394  -0.000901  2.281779  0.001
O  O321  1  0.03072832  0.75692279  0.53060182  1  -1.185511  -0.000325  -0.325987  -0.581411  -0.000902  2.281873  0.001
O  O322  1  0.96927881  0.74307793  0.03060321  1  -1.185728  -0.000325  -0.325963  -0.581316  -0.000902  2.281711  0.001
O  O323  1  0.53072378  0.74307862  0.46939552  1  -1.18584  -0.000326  -0.325929  -0.581312  -0.000902  2.28168  0.001
O  O324  1  0.53072763  0.24307735  0.03060545  1  -1.185567  -0.000325  -0.325997  -0.581476  -0.000902  2.281674  0.001
O  O325  1  0.96927886  0.24307678  0.46939369  1  -1.185652  -0.000324  -0.325955  -0.581312  -0.000901  2.281753  0.001
O  O326  1  0.03072543  0.25692267  0.96939663  1  -1.185742  -0.000325  -0.325944  -0.581325  -0.000902  2.28166  0.001
O  O327  1  0.46927358  0.25692095  0.53060335  1  -1.185816  -0.000324  -0.325986  -0.581445  -0.000901  2.281738  0.001
O  O328  1  0.19872038  0.72001880  0.99283780  1  -1.130187  0.082224  -0.397682  -0.498567  0.053294  2.432964  0.073
O  O329  1  0.30127677  0.72002135  0.50715703  1  -1.130085  0.082235  -0.397731  -0.498685  0.0533  2.432644  0.073
O  O330  1  0.69871634  0.77997839  0.00716144  1  -1.13006  0.082231  -0.397761  -0.498618  0.053299  2.432664  0.073
O  O331  1  0.80128028  0.77997889  0.49283913  1  -1.130075  0.082234  -0.397674  -0.498496  0.0533  2.432718  0.073
O  O332  1  0.80128288  0.27997870  0.00716107  1  -1.130289  0.082219  -0.397759  -0.498688  0.053291  2.432809  0.073
O  O333  1  0.69871568  0.27998029  0.49284280  1  -1.130248  0.082237  -0.397722  -0.498665  0.053301  2.432614  0.073
O  O334  1  0.30128004  0.22002170  0.99284223  1  -1.130131  0.08224  -0.39777  -0.498699  0.053304  2.432538  0.073
O  O335  1  0.19872003  0.22001913  0.50715734  1  -1.130242  0.082236  -0.397679  -0.498566  0.0533  2.432658  0.073
O  O336  1  0.21999663  0.81104791  0.84197531  1  -1.145025  0.04586  -0.311185  -0.511846  0.028857  2.138061  0.038
O  O337  1  0.28000132  0.81104498  0.65802416  1  -1.145131  0.045839  -0.311114  -0.511829  0.028844  2.138129  0.038
O  O338  1  0.71999549  0.68894512  0.15802159  1  -1.145  0.045844  -0.311139  -0.511781  0.028847  2.138167  0.038
O  O339  1  0.78000426  0.68895112  0.34197627  1  -1.145239  0.045838  -0.31117  -0.511848  0.028843  2.138281  0.038
O  O340  1  0.78001645  0.18895787  0.15802692  1  -1.145374  0.045836  -0.311168  -0.51188  0.028841  2.138418  0.038
O  O341  1  0.71999801  0.18895148  0.34198144  1  -1.145221  0.045822  -0.311068  -0.511737  0.028833  2.138677  0.038
O  O342  1  0.28000482  0.31104306  0.84197248  1  -1.145281  0.045825  -0.311192  -0.511952  0.028835  2.138294  0.038
O  O343  1  0.21999212  0.31104896  0.65802596  1  -1.144957  0.045853  -0.311141  -0.511864  0.028852  2.137893  0.038
