# generated using pymatgen
data_Cu3H24RhC15S6(IN)3
_symmetry_space_group_name_H-M   'P 1'
_cell_length_a   20.10180972
_cell_length_b   20.10174937
_cell_length_c   20.10179481
_cell_angle_alpha   109.47108480
_cell_angle_beta   109.47109605
_cell_angle_gamma   109.47147987
_symmetry_Int_Tables_number   1
_chemical_formula_structural   Cu3H24RhC15S6(IN)3
_chemical_formula_sum   'Cu24 H192 Rh8 C120 S48 I24 N24'
_cell_volume   6252.90690258
_cell_formula_units_Z   8
loop_
 _symmetry_equiv_pos_site_id
 _symmetry_equiv_pos_as_xyz
  1  'x, y, z'
loop_
 _atom_site_type_symbol
 _atom_site_label
 _atom_site_symmetry_multiplicity
 _atom_site_fract_x
 _atom_site_fract_y
 _atom_site_fract_z
 _atom_site_occupancy
 _atom_site_pbe_bader_charge
 _atom_site_pbe_bader_spin_density
 _atom_site_pbe_cm5_charge
 _atom_site_pbe_ddec_charge
 _atom_site_pbe_ddec_spin_density
 _atom_site_pbe_ddec_sum_bond_order
 _atom_site_pbe_magmom
Cu  Cu0  1  0.17921835  0.00678763  0.22138986  1  0.385267  0  0.229783  0.156299  0  2.804637  0
Cu  Cu1  1  0.99321232  0.17242915  0.21460769  1  0.385256  0  0.229771  0.156263  0  2.804739  0
Cu  Cu2  1  0.82757067  0.82078233  0.04217465  1  0.385147  0  0.229767  0.156301  0  2.804638  0
Cu  Cu3  1  0.32078492  0.04217948  0.32757216  1  0.385075  0  0.229765  0.156293  0  2.804681  0
Cu  Cu4  1  0.50678705  0.22139391  0.67921686  1  0.385378  0  0.229782  0.156303  0  2.804646  0
Cu  Cu5  1  0.67242967  0.21460807  0.49320879  1  0.385148  0  0.229734  0.156217  0  2.804743  0
Cu  Cu6  1  0.78539282  0.45782541  0.27861068  1  0.384275  0  0.229777  0.156301  0  2.80458  0
Cu  Cu7  1  0.95782970  0.27861250  0.28539896  1  0.384205  0  0.22978  0.156291  0  2.804519  0
Cu  Cu8  1  0.77861018  0.28539355  0.45782114  1  0.384444  0  0.229795  0.156364  0  2.80459  0
Cu  Cu9  1  0.71460381  0.49321314  0.17243046  1  0.385361  0  0.229762  0.156216  0  2.804772  0
Cu  Cu10  1  0.54217901  0.32757045  0.82078658  1  0.385084  0  0.229786  0.156331  0  2.804631  0
Cu  Cu11  1  0.72139463  0.67921983  0.00678847  1  0.38529  0  0.229741  0.156214  0  2.804766  0
Cu  Cu12  1  0.17242789  0.99321241  0.71460361  1  0.385346  0  0.229747  0.156275  0  2.804577  0
Cu  Cu13  1  0.82078253  0.82757117  0.54217784  1  0.385174  0  0.22978  0.156321  0  2.804573  0
Cu  Cu14  1  0.00678734  0.17921734  0.72139150  1  0.385303  0  0.229765  0.15626  0  2.804615  0
Cu  Cu15  1  0.27860596  0.95782461  0.78539155  1  0.384326  0  0.229781  0.156325  0  2.804496  0
Cu  Cu16  1  0.28539687  0.77861052  0.95782688  1  0.384206  0  0.229789  0.15633  0  2.804613  0
Cu  Cu17  1  0.45782206  0.78539084  0.77860509  1  0.384491  0  0.229771  0.1563  0  2.804674  0
Cu  Cu18  1  0.32757134  0.54218256  0.32078644  1  0.385107  0  0.229752  0.156248  0  2.804686  0
Cu  Cu19  1  0.67921287  0.72139283  0.50678553  1  0.385467  0  0.229757  0.156262  0  2.804624  0
Cu  Cu20  1  0.49320646  0.71460280  0.67242473  1  0.385311  0  0.229784  0.156275  0  2.804713  0
Cu  Cu21  1  0.22139068  0.50678751  0.17921665  1  0.385299  0  0.229753  0.15626  0  2.80462  0
Cu  Cu22  1  0.21460436  0.67243099  0.99321080  1  0.385357  0  0.229772  0.156266  0  2.804707  0
Cu  Cu23  1  0.04218091  0.32078597  0.82757253  1  0.385057  0  0.22977  0.156297  0  2.804685  0
H  H24  1  0.22272073  0.26072945  0.21635087  1  0.087404  0  0.098371  0.089725  0  1.001167  0
H  H25  1  0.73927478  0.96199706  0.95562296  1  0.082615  0  0.098343  0.089657  0  1.001177  0
H  H26  1  0.03800008  0.77727352  0.99362541  1  0.069116  0  0.09834  0.089657  0  1.00116  0
H  H27  1  0.27727661  0.99362567  0.53800545  1  0.06884  0  0.098371  0.089677  0  1.001162  0
H  H28  1  0.76072499  0.21634789  0.72271698  1  0.087372  0  0.098356  0.089718  0  1.00118  0
H  H29  1  0.46200186  0.95562737  0.23927676  1  0.082668  0  0.098327  0.089706  0  1.001174  0
H  H30  1  0.04437455  0.50637676  0.28364868  1  0.0781  0  0.09833  0.089667  0  1.00124  0
H  H31  1  0.00637187  0.28364912  0.54436998  1  0.078217  0  0.098331  0.089641  0  1.00127  0
H  H32  1  0.78364998  0.54436955  0.50637330  1  0.078134  0  0.098312  0.089606  0  1.001316  0
H  H33  1  0.45562513  0.23927570  0.96199587  1  0.082593  0  0.098355  0.089706  0  1.001174  0
H  H34  1  0.49362887  0.53800671  0.77727983  1  0.068864  0  0.098368  0.089698  0  1.001149  0
H  H35  1  0.71634837  0.72271742  0.26072913  1  0.087406  0  0.098365  0.089678  0  1.001189  0
H  H36  1  0.96200418  0.73928000  0.45562998  1  0.082601  0  0.098311  0.089628  0  1.001264  0
H  H37  1  0.77727831  0.03799875  0.49362615  1  0.069089  0  0.098344  0.089659  0  1.001173  0
H  H38  1  0.26072499  0.22272168  0.71634975  1  0.087478  0  0.098362  0.089728  0  1.001186  0
H  H39  1  0.28365159  0.00637293  0.04437259  1  0.078236  0  0.098351  0.08965  0  1.001164  0
H  H40  1  0.54437561  0.78364762  0.00637150  1  0.07816  0  0.098357  0.089691  0  1.001228  0
H  H41  1  0.50637273  0.04437297  0.78365012  1  0.078222  0  0.098337  0.089683  0  1.001256  0
H  H42  1  0.53800880  0.49363173  0.27728353  1  0.068866  0  0.098359  0.0897  0  1.001149  0
H  H43  1  0.72271880  0.71634799  0.76072574  1  0.087418  0  0.098348  0.08968  0  1.001161  0
H  H44  1  0.23927177  0.45562166  0.46199718  1  0.082715  0  0.098357  0.089663  0  1.00119  0
H  H45  1  0.21634970  0.76072628  0.22272299  1  0.087434  0  0.098342  0.089668  0  1.001239  0
H  H46  1  0.95561954  0.46199285  0.73927078  1  0.082691  0  0.098376  0.089695  0  1.001136  0
H  H47  1  0.99362710  0.27727628  0.03800162  1  0.068905  0  0.098363  0.089682  0  1.001216  0
H  H48  1  0.21930578  0.33036191  0.29615249  1  0.065382  0  0.098765  0.085447  0  0.985835  0
H  H49  1  0.66964253  0.88895154  0.96579287  1  0.080189  0  0.098777  0.085439  0  0.985819  0
H  H50  1  0.11105256  0.78069436  0.07684444  1  0.035086  0  0.098774  0.085389  0  0.985864  0
H  H51  1  0.28069093  0.07684285  0.61105147  1  0.034565  0  0.098785  0.085448  0  0.985847  0
H  H52  1  0.83035583  0.29614944  0.71930178  1  0.06525  0  0.098783  0.085499  0  0.985807  0
H  H53  1  0.38895173  0.96579383  0.16964640  1  0.080238  0  0.098782  0.085437  0  0.985825  0
H  H54  1  0.03420707  0.42315951  0.20385248  1  0.069245  0  0.098778  0.085433  0  0.985838  0
H  H55  1  0.92315308  0.20385135  0.53420231  1  0.069068  0  0.098782  0.08543  0  0.98587  0
H  H56  1  0.70385335  0.53420523  0.42315800  1  0.069135  0  0.098783  0.08542  0  0.985867  0
H  H57  1  0.46579650  0.16964467  0.88894854  1  0.080121  0  0.098774  0.085451  0  0.985842  0
H  H58  1  0.57684589  0.61105395  0.78069398  1  0.034584  0  0.098802  0.08547  0  0.985779  0
H  H59  1  0.79615266  0.71930387  0.33036020  1  0.065478  0  0.098744  0.0854  0  0.985806  0
H  H60  1  0.88895308  0.66964615  0.46579521  1  0.080214  0  0.098789  0.085423  0  0.985885  0
H  H61  1  0.78069651  0.11105121  0.57684054  1  0.034985  0  0.098784  0.085452  0  0.985835  0
H  H62  1  0.33035730  0.21930128  0.79614928  1  0.065523  0  0.098767  0.085458  0  0.985781  0
H  H63  1  0.20385103  0.92315547  0.03420451  1  0.069086  0  0.098785  0.08543  0  0.985882  0
H  H64  1  0.53420635  0.70384778  0.92315228  1  0.069141  0  0.098756  0.085395  0  0.985846  0
H  H65  1  0.42315587  0.03420707  0.70385366  1  0.069043  0  0.0988  0.085514  0  0.985818  0
H  H66  1  0.61105339  0.57684765  0.28069570  1  0.034704  0  0.098766  0.085442  0  0.985838  0
H  H67  1  0.71930695  0.79615038  0.83035748  1  0.065542  0  0.098785  0.085472  0  0.985828  0
H  H68  1  0.16964001  0.46579272  0.38895277  1  0.080177  0  0.098778  0.085434  0  0.985864  0
H  H69  1  0.29614589  0.83035634  0.21930323  1  0.065263  0  0.0988  0.085482  0  0.985805  0
H  H70  1  0.96579198  0.38894735  0.66964126  1  0.080091  0  0.098791  0.085471  0  0.985805  0
H  H71  1  0.07684506  0.28069426  0.11105146  1  0.034911  0  0.098777  0.085431  0  0.985856  0
H  H72  1  0.36042799  0.29744683  0.30791632  1  0.036794  0  0.085179  0.091295  0  0.999205  0
H  H73  1  0.70255937  0.06299026  0.01047474  1  0.040546  0  0.085241  0.091355  0  0.999366  0
H  H74  1  0.93701527  0.63956617  0.94749503  1  0.039534  0  0.085209  0.091265  0  0.999298  0
H  H75  1  0.13956923  0.94748700  0.43701222  1  0.039318  0  0.085249  0.091346  0  0.9993  0
H  H76  1  0.79744347  0.30791854  0.86042412  1  0.036779  0  0.085215  0.091327  0  0.999307  0
H  H77  1  0.56299061  0.01047783  0.20255930  1  0.040737  0  0.085258  0.091391  0  0.99931  0
H  H78  1  0.98952558  0.55251181  0.19207637  1  0.035266  0  0.085264  0.091332  0  0.999378  0
H  H79  1  0.05250836  0.19207692  0.48952200  1  0.037853  0  0.085195  0.091236  0  0.999194  0
H  H80  1  0.69207680  0.48951711  0.55250650  1  0.035599  0  0.085191  0.091226  0  0.999138  0
H  H81  1  0.51047620  0.20255856  0.06298737  1  0.040781  0  0.085213  0.091313  0  0.999215  0
H  H82  1  0.44748804  0.43701621  0.63957326  1  0.039398  0  0.085217  0.091322  0  0.999346  0
H  H83  1  0.80791438  0.86042663  0.29744444  1  0.036801  0  0.085226  0.091332  0  0.999203  0
H  H84  1  0.06299192  0.70256022  0.51048060  1  0.040782  0  0.085251  0.091329  0  0.999238  0
H  H85  1  0.63957037  0.93701156  0.44748736  1  0.039366  0  0.085187  0.091219  0  0.999204  0
H  H86  1  0.29744284  0.36043025  0.80791880  1  0.036635  0  0.085221  0.091277  0  0.999168  0
H  H87  1  0.19208409  0.05251458  0.98952398  1  0.037602  0  0.085256  0.091354  0  0.999252  0
H  H88  1  0.48952190  0.69207619  0.05250635  1  0.037949  0  0.085198  0.091223  0  0.999228  0
H  H89  1  0.55251017  0.98952290  0.69208131  1  0.035378  0  0.085226  0.091274  0  0.999137  0
H  H90  1  0.43701566  0.44748874  0.13957560  1  0.039383  0  0.085201  0.091354  0  0.999306  0
H  H91  1  0.86042703  0.80791559  0.79744234  1  0.036549  0  0.085212  0.091316  0  0.999343  0
H  H92  1  0.20255669  0.51047300  0.56299001  1  0.04046  0  0.085209  0.091301  0  0.999314  0
H  H93  1  0.30791763  0.79744533  0.36042800  1  0.036649  0  0.08519  0.091249  0  0.999306  0
H  H94  1  0.01047228  0.56298557  0.70255681  1  0.040575  0  0.085208  0.09132  0  0.999292  0
H  H95  1  0.94749313  0.13956965  0.93701571  1  0.039516  0  0.0852  0.091249  0  0.99926  0
H  H96  1  0.36643787  0.39423608  0.34610877  1  0.046197  0  0.081493  0.096859  0  1.029986  0
H  H97  1  0.60577068  0.97221118  0.95187654  1  0.05486  0  0.081541  0.096928  0  1.029939  0
H  H98  1  0.02779724  0.63356034  0.97967552  1  0.048961  0  0.081522  0.096894  0  1.029948  0
H  H99  1  0.13355899  0.97966733  0.52779321  1  0.047881  0  0.081517  0.096885  0  1.029909  0
H  H100  1  0.89423539  0.34610736  0.86643329  1  0.046089  0  0.0815  0.096872  0  1.029921  0
H  H101  1  0.47220935  0.95187658  0.10577028  1  0.054873  0  0.081536  0.096975  0  1.029918  0
H  H102  1  0.04812503  0.52032956  0.15389010  1  0.04534  0  0.081511  0.09688  0  1.02992  0
H  H103  1  0.02032298  0.15388821  0.54811924  1  0.045253  0  0.081563  0.096957  0  1.029926  0
H  H104  1  0.65388838  0.54811911  0.52032655  1  0.045342  0  0.081559  0.096964  0  1.029867  0
H  H105  1  0.45187627  0.10576720  0.97220460  1  0.054891  0  0.081521  0.096895  0  1.029924  0
H  H106  1  0.47966473  0.52779462  0.63356236  1  0.048031  0  0.081493  0.096874  0  1.029903  0
H  H107  1  0.84610715  0.86643732  0.39423537  1  0.046192  0  0.081509  0.096863  0  1.029974  0
H  H108  1  0.97220806  0.60576819  0.45188021  1  0.054792  0  0.081541  0.096939  0  1.029901  0
H  H109  1  0.63356357  0.02779394  0.47966950  1  0.048917  0  0.081569  0.096942  0  1.02988  0
H  H110  1  0.39423338  0.36643622  0.84610872  1  0.046273  0  0.081515  0.096899  0  1.029937  0
H  H111  1  0.15389447  0.02033281  0.04812462  1  0.045388  0  0.081557  0.096922  0  1.029868  0
H  H112  1  0.54812028  0.65388561  0.02032392  1  0.045222  0  0.081534  0.096881  0  1.029927  0
H  H113  1  0.52032758  0.04812323  0.65389096  1  0.045444  0  0.081545  0.096927  0  1.029851  0
H  H114  1  0.52779503  0.47966989  0.13356535  1  0.047874  0  0.081538  0.096929  0  1.029901  0
H  H115  1  0.86643759  0.84610318  0.89423188  1  0.046377  0  0.081516  0.096909  0  1.029896  0
H  H116  1  0.10576562  0.45187420  0.47220969  1  0.054741  0  0.081551  0.09693  0  1.029967  0
H  H117  1  0.34610752  0.89423513  0.36643661  1  0.046213  0  0.081488  0.09682  0  1.029967  0
H  H118  1  0.95187383  0.47220564  0.60576619  1  0.054856  0  0.081511  0.096887  0  1.029939  0
H  H119  1  0.97967144  0.13356036  0.02779389  1  0.04902  0  0.081513  0.096873  0  1.029896  0
H  H120  1  0.40466277  0.33804209  0.45190749  1  0.03923  0  0.094319  0.098777  0  0.982962  0
H  H121  1  0.66195938  0.06662078  0.11386841  1  0.039733  0  0.094279  0.098746  0  0.982996  0
H  H122  1  0.93338980  0.59533942  0.04726126  1  0.038903  0  0.094266  0.098811  0  0.982972  0
H  H123  1  0.09534161  0.04725484  0.43338685  1  0.038673  0  0.094276  0.098769  0  0.983091  0
H  H124  1  0.83804914  0.45191526  0.90465646  1  0.038292  0  0.094304  0.098874  0  0.982977  0
H  H125  1  0.56661924  0.11387045  0.16195742  1  0.039737  0  0.094266  0.098743  0  0.982951  0
H  H126  1  0.88613223  0.45274553  0.04808339  1  0.030237  0  0.094309  0.098804  0  0.982929  0
H  H127  1  0.95274294  0.04808256  0.38612897  1  0.030201  0  0.094303  0.098779  0  0.983013  0
H  H128  1  0.54808211  0.38612460  0.45273988  1  0.030227  0  0.094273  0.098772  0  0.983038  0
H  H129  1  0.61386878  0.16195466  0.06661653  1  0.039641  0  0.094304  0.098813  0  0.982906  0
H  H130  1  0.54724671  0.43338421  0.59533651  1  0.038565  0  0.094292  0.098805  0  0.982908  0
H  H131  1  0.95190797  0.90466145  0.33804390  1  0.038028  0  0.094309  0.098835  0  0.982942  0
H  H132  1  0.06661999  0.66195937  0.61387356  1  0.039708  0  0.094282  0.098741  0  0.982995  0
H  H133  1  0.59534122  0.93338472  0.54725238  1  0.038564  0  0.094288  0.098788  0  0.983063  0
H  H134  1  0.33804469  0.40465875  0.95191273  1  0.039312  0  0.094298  0.098808  0  0.983001  0
H  H135  1  0.04808903  0.95275238  0.88613367  1  0.029775  0  0.094296  0.098782  0  0.982948  0
H  H136  1  0.38612735  0.54808322  0.95274209  1  0.030263  0  0.094308  0.098822  0  0.982981  0
H  H137  1  0.45274615  0.88612892  0.54808811  1  0.029828  0  0.094321  0.098801  0  0.983016  0
H  H138  1  0.43338190  0.54724963  0.09534230  1  0.038572  0  0.094296  0.098785  0  0.98304  0
H  H139  1  0.90466341  0.95191236  0.83804688  1  0.038035  0  0.094279  0.098793  0  0.982943  0
H  H140  1  0.16195564  0.61386685  0.56662143  1  0.039641  0  0.094268  0.098741  0  0.982904  0
H  H141  1  0.45191136  0.83804602  0.40465842  1  0.039469  0  0.09429  0.098791  0  0.983058  0
H  H142  1  0.11386730  0.56661994  0.66195786  1  0.039737  0  0.09431  0.098805  0  0.982937  0
H  H143  1  0.04725572  0.09533808  0.93338691  1  0.038897  0  0.094293  0.098787  0  0.983013  0
H  H144  1  0.33891136  0.37916419  0.45218198  1  0.046258  0  0.085888  0.086698  0  1.001406  0
H  H145  1  0.62083975  0.95974775  0.07301602  1  0.041063  0  0.085892  0.086747  0  1.001401  0
H  H146  1  0.04026065  0.66109932  0.11328001  1  0.038073  0  0.085968  0.086838  0  1.001346  0
H  H147  1  0.16109522  0.11327287  0.54025661  1  0.036758  0  0.085936  0.086748  0  1.001406  0
H  H148  1  0.87916426  0.45217841  0.83889798  1  0.046041  0  0.085961  0.086785  0  1.001421  0
H  H149  1  0.45974663  0.07301750  0.12083925  1  0.041049  0  0.085917  0.086761  0  1.001381  0
H  H150  1  0.92698473  0.38672528  0.04782376  1  0.038605  0  0.085945  0.086779  0  1.001397  0
H  H151  1  0.88672161  0.04781896  0.42697796  1  0.038392  0  0.085948  0.086781  0  1.001394  0
H  H152  1  0.54782317  0.42697890  0.38672357  1  0.038517  0  0.085972  0.086814  0  1.001409  0
H  H153  1  0.57301970  0.12083916  0.95974431  1  0.040939  0  0.085919  0.086762  0  1.001381  0
H  H154  1  0.61326979  0.54025863  0.66109147  1  0.038271  0  0.085924  0.086733  0  1.001336  0
H  H155  1  0.95217835  0.83890670  0.37916084  1  0.045932  0  0.085897  0.086692  0  1.001475  0
H  H156  1  0.95975066  0.62084357  0.57302295  1  0.041034  0  0.085941  0.086786  0  1.001452  0
H  H157  1  0.66109535  0.04025456  0.61327021  1  0.038329  0  0.085932  0.086742  0  1.001438  0
H  H158  1  0.37916021  0.33890214  0.95217709  1  0.04636  0  0.085906  0.086696  0  1.001463  0
H  H159  1  0.04782127  0.88673001  0.92698333  1  0.038308  0  0.085928  0.08674  0  1.001407  0
H  H160  1  0.42697846  0.54781732  0.88672005  1  0.038556  0  0.085971  0.086878  0  1.001362  0
H  H161  1  0.38672556  0.92698061  0.54782318  1  0.03849  0  0.085943  0.086786  0  1.001396  0
H  H162  1  0.54025646  0.61327414  0.16109474  1  0.036694  0  0.085887  0.086701  0  1.001352  0
H  H163  1  0.83890696  0.95217806  0.87916579  1  0.045837  0  0.085921  0.086739  0  1.001376  0
H  H164  1  0.12083727  0.57301825  0.45975010  1  0.041033  0  0.085878  0.086728  0  1.001351  0
H  H165  1  0.45217678  0.87916269  0.33890303  1  0.046349  0  0.085913  0.086679  0  1.001419  0
H  H166  1  0.07301834  0.45974762  0.62083984  1  0.041021  0  0.085878  0.086712  0  1.001419  0
H  H167  1  0.11327719  0.16109393  0.04025844  1  0.036647  0  0.085897  0.086721  0  1.001412  0
H  H168  1  0.29340069  0.19994392  0.37418742  1  0.096578  0  0.084487  0.0733  0  1.072647  0
H  H169  1  0.80006078  0.09346234  0.17424596  1  0.098897  0  0.084487  0.073341  0  1.072689  0
H  H170  1  0.90654264  0.70659617  0.08078911  1  0.093077  0  0.084527  0.073355  0  1.072641  0
H  H171  1  0.20659889  0.08078751  0.40654244  1  0.093089  0  0.084531  0.073395  0  1.072638  0
H  H172  1  0.69994629  0.37419200  0.79339890  1  0.096062  0  0.084497  0.073282  0  1.072676  0
H  H173  1  0.59345888  0.17425069  0.30005652  1  0.098922  0  0.084535  0.073323  0  1.072705  0
H  H174  1  0.82575381  0.41921397  0.12580828  1  0.094616  0  0.084518  0.073351  0  1.072565  0
H  H175  1  0.91920827  0.12580528  0.32574833  1  0.094583  0  0.084515  0.073303  0  1.072633  0
H  H176  1  0.62580514  0.32574464  0.41920417  1  0.094466  0  0.084511  0.073291  0  1.072682  0
H  H177  1  0.67424757  0.30005704  0.09345971  1  0.098938  0  0.084513  0.073381  0  1.072674  0
H  H178  1  0.58078471  0.40654141  0.70659405  1  0.093179  0  0.084506  0.073373  0  1.072665  0
H  H179  1  0.87418362  0.79340349  0.19994302  1  0.096691  0  0.08453  0.073352  0  1.0726  0
H  H180  1  0.09346275  0.80006204  0.67425127  1  0.098925  0  0.0845  0.073303  0  1.072652  0
H  H181  1  0.70659982  0.90654036  0.58079023  1  0.093081  0  0.084486  0.073306  0  1.072697  0
H  H182  1  0.19994394  0.29339989  0.87419114  1  0.09644  0  0.084547  0.073383  0  1.072641  0
H  H183  1  0.12580617  0.91921081  0.82574945  1  0.094615  0  0.084497  0.073299  0  1.072619  0
H  H184  1  0.32575183  0.62580852  0.91920891  1  0.094604  0  0.084513  0.073318  0  1.072696  0
H  H185  1  0.41920393  0.82574827  0.62580735  1  0.094646  0  0.084516  0.073307  0  1.072664  0
H  H186  1  0.40654247  0.58078690  0.20660162  1  0.093061  0  0.084511  0.073333  0  1.072652  0
H  H187  1  0.79340349  0.87419164  0.69994810  1  0.096695  0  0.084541  0.07337  0  1.072694  0
H  H188  1  0.30005710  0.67424314  0.59346471  1  0.098987  0  0.084563  0.073434  0  1.072565  0
H  H189  1  0.37418902  0.69994395  0.29340072  1  0.09656  0  0.084513  0.073333  0  1.072659  0
H  H190  1  0.17424377  0.59346055  0.80005748  1  0.098907  0  0.084503  0.073361  0  1.072658  0
H  H191  1  0.08079028  0.20659619  0.90654311  1  0.093098  0  0.084542  0.073371  0  1.07258  0
H  H192  1  0.24772906  0.24606217  0.42207031  1  0.06525  0  0.098674  0.087538  0  0.986794  0
H  H193  1  0.75394127  0.00166925  0.17600727  1  0.066449  0  0.098679  0.087567  0  0.98669  0
H  H194  1  0.99833239  0.75227563  0.17434506  1  0.05309  0  0.098688  0.087538  0  0.986677  0
H  H195  1  0.25227530  0.17434340  0.49833492  1  0.05289  0  0.098674  0.087529  0  0.986752  0
H  H196  1  0.74606041  0.42207012  0.74772350  1  0.064871  0  0.098684  0.087529  0  0.986689  0
H  H197  1  0.50166703  0.17600944  0.25394013  1  0.066319  0  0.098711  0.087535  0  0.98672  0
H  H198  1  0.82399025  0.32565777  0.07793222  1  0.053847  0  0.098677  0.087486  0  0.986749  0
H  H199  1  0.82565369  0.07792876  0.32398656  1  0.053848  0  0.098684  0.087502  0  0.986658  0
H  H200  1  0.57793016  0.32398579  0.32565142  1  0.053922  0  0.098667  0.087504  0  0.986626  0
H  H201  1  0.67601196  0.25394290  0.00167039  1  0.066429  0  0.098715  0.087613  0  0.986666  0
H  H202  1  0.67433806  0.49833115  0.75226784  1  0.053636  0  0.098651  0.087497  0  0.98679  0
H  H203  1  0.92206877  0.74772917  0.24605803  1  0.065028  0  0.098671  0.087498  0  0.986756  0
H  H204  1  0.00167071  0.75394379  0.67601434  1  0.066372  0  0.098713  0.087554  0  0.986632  0
H  H205  1  0.75227440  0.99833607  0.67434469  1  0.053286  0  0.098673  0.087516  0  0.986707  0
H  H206  1  0.24605943  0.24772280  0.92206817  1  0.065013  0  0.098697  0.08756  0  0.986707  0
H  H207  1  0.07792762  0.82565747  0.82399037  1  0.053811  0  0.098686  0.087495  0  0.986742  0
H  H208  1  0.32398801  0.57793244  0.82565516  1  0.053875  0  0.09871  0.087587  0  0.986639  0
H  H209  1  0.32565272  0.82399053  0.57793159  1  0.053638  0  0.098683  0.087518  0  0.986633  0
H  H210  1  0.49833036  0.67434190  0.25227266  1  0.053578  0  0.098683  0.087534  0  0.986714  0
H  H211  1  0.74773002  0.92207188  0.74606491  1  0.06524  0  0.098679  0.087519  0  0.986772  0
H  H212  1  0.25394229  0.67601255  0.50167815  1  0.066463  0  0.098673  0.087564  0  0.986772  0
H  H213  1  0.42206774  0.74606082  0.24772490  1  0.064941  0  0.098676  0.087504  0  0.986815  0
H  H214  1  0.17600786  0.50166937  0.75394183  1  0.06644  0  0.098673  0.087497  0  0.986765  0
H  H215  1  0.17434451  0.25227262  0.99833312  1  0.053089  0  0.098695  0.087533  0  0.986651  0
Rh  Rh216  1  0.00000128  0.00000061  0.15068887  1  0.496277  0  0.444259  0.175159  0  4.408305  0
Rh  Rh217  1  0.49999794  0.15068943  0.49999996  1  0.496366  0  0.444221  0.175119  0  4.408518  0
Rh  Rh218  1  0.84931152  0.34931048  0.34930982  1  0.486443  0  0.444201  0.175016  0  4.408499  0
Rh  Rh219  1  0.65068969  0.50000202  0.00000111  1  0.496236  0  0.444271  0.17514  0  4.408388  0
Rh  Rh220  1  0.99999851  0.00000099  0.65068954  1  0.49616  0  0.44423  0.175098  0  4.40853  0
Rh  Rh221  1  0.34931125  0.84931199  0.84931217  1  0.486421  0  0.444276  0.175153  0  4.408441  0
Rh  Rh222  1  0.49999880  0.65069184  0.50000202  1  0.496148  0  0.44422  0.175138  0  4.408332  0
Rh  Rh223  1  0.15068775  0.49999969  0.99999844  1  0.496186  0  0.444254  0.175105  0  4.408453  0
C  C224  1  0.14624674  0.15626501  0.25472672  1  0.35766  0  0.119325  0.151296  0  4.059332  0
C  C225  1  0.84373556  0.98998353  0.09846062  1  0.354788  0  0.119294  0.151282  0  4.059334  0
C  C226  1  0.01001562  0.85375189  0.10847622  1  0.351692  0  0.119355  0.151354  0  4.059508  0
C  C227  1  0.35375013  0.10847583  0.51001702  1  0.352199  0  0.119266  0.151287  0  4.059307  0
C  C228  1  0.65626642  0.25473097  0.64624722  1  0.357795  0  0.119305  0.151298  0  4.059225  0
C  C229  1  0.48998832  0.09846487  0.34373542  1  0.354387  0  0.119265  0.151199  0  4.059274  0
C  C230  1  0.90153828  0.39152565  0.24527493  1  0.351402  0  0.11926  0.151203  0  4.059536  0
C  C231  1  0.89152144  0.24527321  0.40153164  1  0.352083  0  0.119282  0.151217  0  4.059436  0
C  C232  1  0.74527471  0.40153124  0.39151797  1  0.351494  0  0.119279  0.151236  0  4.059579  0
C  C233  1  0.59846395  0.34373652  0.98998647  1  0.354354  0  0.119288  0.151284  0  4.059201  0
C  C234  1  0.60847927  0.51001602  0.85374864  1  0.353851  0  0.119317  0.151334  0  4.059191  0
C  C235  1  0.75472478  0.64625027  0.15626719  1  0.357702  0  0.119324  0.151268  0  4.059368  0
C  C236  1  0.98998553  0.84373655  0.59846539  1  0.354771  0  0.119326  0.151326  0  4.059553  0
C  C237  1  0.85375272  0.01001516  0.60847908  1  0.353632  0  0.119293  0.151328  0  4.059388  0
C  C238  1  0.15626349  0.14625075  0.75472623  1  0.357614  0  0.119285  0.151212  0  4.059161  0
C  C239  1  0.24527282  0.89152332  0.90153270  1  0.351641  0  0.119299  0.151208  0  4.059317  0
C  C240  1  0.40153733  0.74527441  0.89152254  1  0.351264  0  0.119363  0.151393  0  4.059168  0
C  C241  1  0.39152292  0.90153637  0.74527742  1  0.351437  0  0.119321  0.151295  0  4.059354  0
C  C242  1  0.51001791  0.60848076  0.35375279  1  0.353758  0  0.119317  0.151266  0  4.059431  0
C  C243  1  0.64624870  0.75472580  0.65626507  1  0.35759  0  0.119312  0.151303  0  4.059475  0
C  C244  1  0.34373104  0.59846071  0.48998253  1  0.354207  0  0.119311  0.151337  0  4.059431  0
C  C245  1  0.25472726  0.65626386  0.14624729  1  0.357581  0  0.119356  0.151323  0  4.059281  0
C  C246  1  0.09845866  0.48998598  0.84373605  1  0.35467  0  0.119338  0.151409  0  4.059352  0
C  C247  1  0.10847954  0.35375056  0.01001643  1  0.352092  0  0.119265  0.151207  0  4.059489  0
C  C248  1  0.24389023  0.28934251  0.28181628  1  0.263358  0  -0.06306  -0.059191  0  3.861801  0
C  C249  1  0.71066450  0.95455554  0.99247631  1  0.233671  0  -0.06312  -0.059176  0  3.861719  0
C  C250  1  0.04544730  0.75610595  0.03792318  1  0.29757  0  -0.063056  -0.059057  0  3.861394  0
C  C251  1  0.25610967  0.03792234  0.54544819  1  0.298298  0  -0.063115  -0.059178  0  3.861805  0
C  C252  1  0.78933684  0.28181189  0.74388513  1  0.263449  0  -0.063054  -0.059289  0  3.862137  0
C  C253  1  0.45455970  0.99248023  0.21066959  1  0.233714  0  -0.063151  -0.059292  0  3.862077  0
C  C254  1  0.00752230  0.46207922  0.21818608  1  0.269635  0  -0.063063  -0.059145  0  3.861904  0
C  C255  1  0.96207655  0.21818500  0.50752028  1  0.269636  0  -0.063105  -0.059163  0  3.861648  0
C  C256  1  0.71818544  0.50751833  0.46207703  1  0.26977  0  -0.063077  -0.059127  0  3.861592  0
C  C257  1  0.49247819  0.21066376  0.95455393  1  0.233815  0  -0.063156  -0.059311  0  3.861928  0
C  C258  1  0.53792245  0.54544710  0.75610999  1  0.298125  0  -0.063129  -0.059268  0  3.861916  0
C  C259  1  0.78181279  0.74388770  0.28933892  1  0.263146  0  -0.063061  -0.059158  0  3.861794  0
C  C260  1  0.95455674  0.71066552  0.49247952  1  0.233751  0  -0.06311  -0.059121  0  3.861691  0
C  C261  1  0.75611049  0.04544493  0.53792142  1  0.297711  0  -0.063117  -0.059226  0  3.861747  0
C  C262  1  0.28933743  0.24388830  0.78181401  1  0.263135  0  -0.063125  -0.059338  0  3.862035  0
C  C263  1  0.21818546  0.96207677  0.00751997  1  0.269706  0  -0.063073  -0.059164  0  3.861763  0
C  C264  1  0.50752417  0.71818432  0.96207655  1  0.269542  0  -0.063086  -0.059221  0  3.861857  0
C  C265  1  0.46207596  0.00752210  0.71818852  1  0.270015  0  -0.06314  -0.05939  0  3.861752  0
C  C266  1  0.54544946  0.53792452  0.25611359  1  0.298196  0  -0.063049  -0.059182  0  3.861916  0
C  C267  1  0.74388903  0.78181206  0.78933700  1  0.262768  0  -0.063143  -0.059252  0  3.861866  0
C  C268  1  0.21065999  0.49247537  0.45455448  1  0.233578  0  -0.063095  -0.059051  0  3.861715  0
C  C269  1  0.28181206  0.78933730  0.24388974  1  0.263382  0  -0.063139  -0.059336  0  3.861966  0
C  C270  1  0.99247435  0.45455226  0.71066052  1  0.233735  0  -0.063134  -0.059204  0  3.861628  0
C  C271  1  0.03792448  0.25610977  0.04544586  1  0.297937  0  -0.063088  -0.059208  0  3.86178  0
C  C272  1  0.33629582  0.33260898  0.33646110  1  -0.007482  0  -0.167394  -0.172363  0  3.915145  0
C  C273  1  0.66739815  0.00369425  0.00385401  1  -0.018981  0  -0.167472  -0.172486  0  3.91525  0
C  C274  1  0.99630982  0.66369845  0.00016758  1  -0.022167  0  -0.167457  -0.172442  0  3.915215  0
C  C275  1  0.16370207  0.00016046  0.49630734  1  -0.020943  0  -0.167404  -0.172421  0  3.91512  0
C  C276  1  0.83260514  0.33645716  0.83629052  1  -0.007007  0  -0.167415  -0.172342  0  3.915166  0
C  C277  1  0.50369277  0.00385396  0.16739807  1  -0.019232  0  -0.167505  -0.172661  0  3.915325  0
C  C278  1  0.99614580  0.49983782  0.16353758  1  -0.015577  0  -0.167461  -0.172419  0  3.915203  0
C  C279  1  0.99982942  0.16353341  0.49613982  1  -0.017776  0  -0.167434  -0.172409  0  3.91507  0
C  C280  1  0.66353042  0.49613467  0.49982903  1  -0.015618  0  -0.167349  -0.172325  0  3.914937  0
C  C281  1  0.50385391  0.16739427  0.00368865  1  -0.019523  0  -0.167415  -0.172339  0  3.915008  0
C  C282  1  0.50015879  0.49630949  0.66370476  1  -0.021131  0  -0.167394  -0.172413  0  3.915074  0
C  C283  1  0.83646016  0.83629680  0.33260935  1  -0.007386  0  -0.16745  -0.172376  0  3.915013  0
C  C284  1  0.00369320  0.66739681  0.50386087  1  -0.019481  0  -0.16751  -0.172521  0  3.915104  0
C  C285  1  0.66370421  0.99630880  0.50016698  1  -0.022052  0  -0.167421  -0.172318  0  3.915041  0
C  C286  1  0.33260584  0.33629298  0.83646045  1  -0.007095  0  -0.167415  -0.172326  0  3.915132  0
C  C287  1  0.16353869  0.99983689  0.99614307  1  -0.018095  0  -0.167475  -0.172456  0  3.915217  0
C  C288  1  0.49613841  0.66352908  0.99982834  1  -0.017801  0  -0.167428  -0.172296  0  3.915177  0
C  C289  1  0.49983183  0.99614188  0.66353757  1  -0.016056  0  -0.167409  -0.172293  0  3.914956  0
C  C290  1  0.49631129  0.50016501  0.16370951  1  -0.020792  0  -0.16748  -0.172572  0  3.915266  0
C  C291  1  0.83629428  0.83645382  0.83260255  1  -0.007182  0  -0.16742  -0.172408  0  3.91513  0
C  C292  1  0.16739333  0.50385205  0.50369268  1  -0.019079  0  -0.167482  -0.172541  0  3.915273  0
C  C293  1  0.33646033  0.83260809  0.33629534  1  -0.007233  0  -0.167353  -0.172183  0  3.914997  0
C  C294  1  0.00385118  0.50369124  0.66739553  1  -0.018987  0  -0.167436  -0.172421  0  3.915113  0
C  C295  1  0.00016813  0.16370262  0.99631119  1  -0.022166  0  -0.167378  -0.172246  0  3.915061  0
C  C296  1  0.34566910  0.33055137  0.41459126  1  -0.041522  0  -0.16  -0.151465  0  3.887538  0
C  C297  1  0.66945476  0.01512048  0.08404190  1  -0.029928  0  -0.160033  -0.151642  0  3.88756  0
C  C298  1  0.98488729  0.65433435  0.06892891  1  -0.012432  0  -0.160018  -0.151714  0  3.887649  0
C  C299  1  0.15433560  0.06892484  0.48488379  1  -0.010603  0  -0.16004  -0.151592  0  3.887783  0
C  C300  1  0.83054979  0.41459141  0.84565876  1  -0.04055  0  -0.160061  -0.151771  0  3.887728  0
C  C301  1  0.51512239  0.08404563  0.16945744  1  -0.029949  0  -0.160024  -0.151634  0  3.887473  0
C  C302  1  0.91595882  0.43107239  0.08540881  1  -0.009675  0  -0.160058  -0.151713  0  3.887631  0
C  C303  1  0.93107133  0.08540611  0.41595423  1  -0.009568  0  -0.160019  -0.151656  0  3.887651  0
C  C304  1  0.58540759  0.41595455  0.43107149  1  -0.009717  0  -0.160046  -0.151702  0  3.887884  0
C  C305  1  0.58404322  0.16945232  0.01511719  1  -0.02954  0  -0.160053  -0.151688  0  3.887453  0
C  C306  1  0.56892275  0.48488406  0.65433425  1  -0.012012  0  -0.160008  -0.151581  0  3.887265  0
C  C307  1  0.91458892  0.84566662  0.33055024  1  -0.040049  0  -0.160032  -0.151596  0  3.887574  0
C  C308  1  0.01512043  0.66945432  0.58404664  1  -0.029512  0  -0.160015  -0.151598  0  3.88765  0
C  C309  1  0.65433308  0.98488230  0.56892283  1  -0.012197  0  -0.159997  -0.151583  0  3.887755  0
C  C310  1  0.33054941  0.34566370  0.91458929  1  -0.041988  0  -0.160037  -0.151611  0  3.887705  0
C  C311  1  0.08540989  0.93108004  0.91596096  1  -0.008703  0  -0.160025  -0.151592  0  3.887555  0
C  C312  1  0.41595707  0.58540547  0.93107137  1  -0.009833  0  -0.160052  -0.151795  0  3.887854  0
C  C313  1  0.43107516  0.91595666  0.58540994  1  -0.009141  0  -0.160021  -0.151698  0  3.887763  0
C  C314  1  0.48488074  0.56892649  0.15433655  1  -0.010546  0  -0.159999  -0.151641  0  3.88758  0
C  C315  1  0.84566559  0.91459022  0.83054786  1  -0.040184  0  -0.160026  -0.151623  0  3.887421  0
C  C316  1  0.16945043  0.58404064  0.51512174  1  -0.029322  0  -0.159974  -0.151462  0  3.887288  0
C  C317  1  0.41458932  0.83055014  0.34566360  1  -0.041984  0  -0.160005  -0.151497  0  3.887676  0
C  C318  1  0.08404138  0.51511886  0.66945226  1  -0.029489  0  -0.160022  -0.151606  0  3.887436  0
C  C319  1  0.06892670  0.15433356  0.98488524  1  -0.010942  0  -0.160024  -0.151684  0  3.887778  0
C  C320  1  0.27537035  0.24676797  0.38325679  1  0.224606  0  -0.066537  -0.061249  0  3.840542  0
C  C321  1  0.75323894  0.02860750  0.13649089  1  0.222301  0  -0.06649  -0.061129  0  3.840503  0
C  C322  1  0.97139662  0.72462998  0.10788954  1  0.249845  0  -0.066584  -0.061218  0  3.840491  0
C  C323  1  0.22463066  0.10788594  0.47139652  1  0.250025  0  -0.066531  -0.061204  0  3.84069  0
C  C324  1  0.74676752  0.38325831  0.77536587  1  0.225244  0  -0.066604  -0.061172  0  3.840601  0
C  C325  1  0.52860695  0.13649439  0.25323804  1  0.222652  0  -0.066577  -0.061062  0  3.840687  0
C  C326  1  0.86350840  0.39211405  0.11674229  1  0.254756  0  -0.066516  -0.061018  0  3.840364  0
C  C327  1  0.89210928  0.11674095  0.36350413  1  0.254731  0  -0.066533  -0.061038  0  3.840455  0
C  C328  1  0.61674089  0.36350328  0.39210880  1  0.254666  0  -0.066505  -0.060995  0  3.840294  0
C  C329  1  0.63649314  0.25323850  0.02860559  1  0.222521  0  -0.066618  -0.061336  0  3.840712  0
C  C330  1  0.60788445  0.47139502  0.72462995  1  0.249374  0  -0.066473  -0.061135  0  3.840668  0
C  C331  1  0.88325479  0.77537084  0.24676637  1  0.224493  0  -0.066517  -0.06116  0  3.8404  0
C  C332  1  0.02860814  0.75323838  0.63649523  1  0.222161  0  -0.066562  -0.061086  0  3.840398  0
C  C333  1  0.72463129  0.97139720  0.60788677  1  0.249746  0  -0.066487  -0.061074  0  3.840446  0
C  C334  1  0.24676338  0.27536483  0.88325489  1  0.224782  0  -0.066615  -0.061267  0  3.840698  0
C  C335  1  0.11674237  0.89211346  0.86350863  1  0.255057  0  -0.066501  -0.061111  0  3.840322  0
C  C336  1  0.36350777  0.61674363  0.89211128  1  0.254724  0  -0.066596  -0.061263  0  3.840659  0
C  C337  1  0.39210875  0.86350565  0.61674133  1  0.254753  0  -0.066536  -0.06105  0  3.840432  0
C  C338  1  0.47139628  0.60788947  0.22463360  1  0.249293  0  -0.066552  -0.061066  0  3.840481  0
C  C339  1  0.77537161  0.88325972  0.74676845  1  0.224364  0  -0.066563  -0.061192  0  3.840622  0
C  C340  1  0.25323523  0.63649089  0.52861046  1  0.221806  0  -0.06659  -0.061314  0  3.840691  0
C  C341  1  0.38325590  0.74676772  0.27536993  1  0.225049  0  -0.066559  -0.061267  0  3.840629  0
C  C342  1  0.13649021  0.52860675  0.75323600  1  0.221807  0  -0.066526  -0.06113  0  3.84054  0
C  C343  1  0.10789078  0.22463207  0.97139825  1  0.249862  0  -0.066549  -0.061189  0  3.840527  0
S  S344  1  0.12171684  0.07839139  0.27667390  1  -0.097953  0  -0.148268  -0.146578  0  3.097418  0
S  S345  1  0.92161169  0.04332546  0.19828266  1  -0.093097  0  -0.148272  -0.146568  0  3.097548  0
S  S346  1  0.95667693  0.87828571  0.15495842  1  -0.089687  0  -0.148362  -0.146699  0  3.09753  0
S  S347  1  0.37828411  0.15495777  0.45667462  1  -0.089706  0  -0.148325  -0.146627  0  3.097456  0
S  S348  1  0.57838668  0.27667242  0.62171322  1  -0.098056  0  -0.148263  -0.146632  0  3.097617  0
S  S349  1  0.54332634  0.19828705  0.42161345  1  -0.093241  0  -0.148271  -0.146576  0  3.097564  0
S  S350  1  0.80171399  0.34504094  0.22332476  1  -0.095367  0  -0.148238  -0.146571  0  3.097392  0
S  S351  1  0.84503958  0.22332287  0.30171354  1  -0.09534  0  -0.148251  -0.146534  0  3.097441  0
S  S352  1  0.72332703  0.30171223  0.34503895  1  -0.095224  0  -0.148239  -0.146558  0  3.097663  0
S  S353  1  0.69828557  0.42161494  0.04332988  1  -0.093187  0  -0.148272  -0.146543  0  3.097536  0
S  S354  1  0.65495941  0.45667454  0.87828627  1  -0.089716  0  -0.148306  -0.146641  0  3.097517  0
S  S355  1  0.77667253  0.62171769  0.07839161  1  -0.098022  0  -0.148314  -0.146606  0  3.097527  0
S  S356  1  0.04332513  0.92161317  0.69828656  1  -0.09326  0  -0.148239  -0.146556  0  3.09742  0
S  S357  1  0.87828562  0.95667563  0.65496092  1  -0.089815  0  -0.148298  -0.146608  0  3.09748  0
S  S358  1  0.07838925  0.12171552  0.77667466  1  -0.097839  0  -0.148225  -0.14653  0  3.097456  0
S  S359  1  0.22332672  0.84504172  0.80171550  1  -0.095337  0  -0.148249  -0.146549  0  3.09755  0
S  S360  1  0.30171882  0.72332761  0.84504397  1  -0.095304  0  -0.14831  -0.146651  0  3.097668  0
S  S361  1  0.34503937  0.80171151  0.72332541  1  -0.095344  0  -0.148258  -0.146634  0  3.097448  0
S  S362  1  0.45667504  0.65496094  0.37828667  1  -0.089845  0  -0.14828  -0.146564  0  3.097456  0
S  S363  1  0.62171413  0.77667588  0.57839027  1  -0.097983  0  -0.148235  -0.146514  0  3.097286  0
S  S364  1  0.42161018  0.69828545  0.54332713  1  -0.093094  0  -0.148342  -0.146663  0  3.097558  0
S  S365  1  0.27667107  0.57838967  0.12171347  1  -0.097854  0  -0.148297  -0.146627  0  3.097632  0
S  S366  1  0.19828225  0.54332813  0.92161044  1  -0.093108  0  -0.14832  -0.146644  0  3.097487  0
S  S367  1  0.15495804  0.37828514  0.95667336  1  -0.089809  0  -0.148288  -0.146564  0  3.097524  0
S  S368  1  0.06018559  0.93048990  0.09274244  1  -0.122696  0  -0.147256  -0.160523  0  2.971922  0
S  S369  1  0.06951026  0.12969709  0.16225067  1  -0.125813  0  -0.147287  -0.160598  0  2.9719  0
S  S370  1  0.87030775  0.93981545  0.03255473  1  -0.125847  0  -0.147277  -0.160514  0  2.971753  0
S  S371  1  0.43981692  0.03255644  0.37030790  1  -0.125744  0  -0.147277  -0.160534  0  2.97172  0
S  S372  1  0.43049211  0.09274084  0.56018560  1  -0.123026  0  -0.14729  -0.160574  0  2.971837  0
S  S373  1  0.62969167  0.16224841  0.56950476  1  -0.125862  0  -0.14725  -0.160499  0  2.971667  0
S  S374  1  0.83774817  0.46744191  0.40725999  1  -0.119924  0  -0.147212  -0.160432  0  2.971967  0
S  S375  1  0.96744358  0.40726125  0.33774920  1  -0.119929  0  -0.147256  -0.160493  0  2.971971  0
S  S376  1  0.90725854  0.33774912  0.46743986  1  -0.120433  0  -0.147243  -0.1605  0  2.971966  0
S  S377  1  0.66224923  0.56950954  0.12969344  1  -0.125765  0  -0.147275  -0.160528  0  2.971859  0
S  S378  1  0.53255580  0.37030709  0.93981524  1  -0.125703  0  -0.147266  -0.160509  0  2.971832  0
S  S379  1  0.59274046  0.56018648  0.93049134  1  -0.124668  0  -0.147275  -0.160523  0  2.971676  0
S  S380  1  0.12969154  0.06950714  0.66224824  1  -0.125721  0  -0.147255  -0.160512  0  2.971835  0
S  S381  1  0.93981596  0.87030753  0.53255952  1  -0.125671  0  -0.147286  -0.160543  0  2.971924  0
S  S382  1  0.93049079  0.06018432  0.59274096  1  -0.124527  0  -0.147265  -0.160514  0  2.971934  0
S  S383  1  0.40725888  0.96744284  0.83774986  1  -0.119953  0  -0.147247  -0.160524  0  2.971921  0
S  S384  1  0.33775056  0.90726088  0.96744281  1  -0.119997  0  -0.147239  -0.160505  0  2.971779  0
S  S385  1  0.46744293  0.83774868  0.90725900  1  -0.120144  0  -0.147248  -0.160535  0  2.971911  0
S  S386  1  0.37030367  0.53255570  0.43981586  1  -0.125642  0  -0.147277  -0.160546  0  2.97176  0
S  S387  1  0.56018430  0.59274128  0.43049271  1  -0.124475  0  -0.147254  -0.160512  0  2.971765  0
S  S388  1  0.56950596  0.66224782  0.62969242  1  -0.125794  0  -0.147285  -0.160574  0  2.971829  0
S  S389  1  0.09274047  0.43049029  0.06018306  1  -0.122881  0  -0.147277  -0.160534  0  2.971872  0
S  S390  1  0.16224741  0.62969318  0.06950706  1  -0.125869  0  -0.147244  -0.160491  0  2.971647  0
S  S391  1  0.03255398  0.43981434  0.87030539  1  -0.125693  0  -0.147289  -0.16057  0  2.971846  0
I  I392  1  0.30907953  0.10060614  0.22721497  1  -0.449533  0  -0.214346  -0.329741  0  1.794881  0
I  I393  1  0.89940818  0.20848181  0.12661258  1  -0.445877  0  -0.214345  -0.32976  0  1.79484  0
I  I394  1  0.79153423  0.69092428  0.91814165  1  -0.44846  0  -0.214325  -0.329709  0  1.794936  0
I  I395  1  0.19092634  0.91814072  0.29152966  1  -0.448451  0  -0.214345  -0.329772  0  1.794937  0
I  I396  1  0.60060268  0.22720967  0.80907432  1  -0.449573  0  -0.214353  -0.329741  0  1.794809  0
I  I397  1  0.70847114  0.12660789  0.39939407  1  -0.445913  0  -0.21432  -0.329735  0  1.794853  0
I  I398  1  0.87339177  0.58186086  0.27278551  1  -0.449692  0  -0.214372  -0.329776  0  1.794875  0
I  I399  1  0.08185980  0.27278428  0.37339457  1  -0.449667  0  -0.214304  -0.329707  0  1.794922  0
I  I400  1  0.77279013  0.37339168  0.58186000  1  -0.449741  0  -0.214356  -0.329779  0  1.794955  0
I  I401  1  0.62660812  0.39939776  0.20847353  1  -0.445932  0  -0.214322  -0.329705  0  1.794878  0
I  I402  1  0.41814169  0.29153378  0.69092776  1  -0.448463  0  -0.214354  -0.329764  0  1.794854  0
I  I403  1  0.72721654  0.80907766  0.10060915  1  -0.449506  0  -0.214349  -0.329742  0  1.794867  0
I  I404  1  0.20847767  0.89940387  0.62660823  1  -0.4459  0  -0.214322  -0.329738  0  1.794862  0
I  I405  1  0.69092659  0.79152471  0.41813257  1  -0.448518  0  -0.214361  -0.329786  0  1.794854  0
I  I406  1  0.10060811  0.30907584  0.72721341  1  -0.449517  0  -0.214331  -0.329717  0  1.794807  0
I  I407  1  0.27279147  0.08186820  0.87338866  1  -0.449803  0  -0.214334  -0.329757  0  1.794843  0
I  I408  1  0.37339292  0.77278396  0.08185867  1  -0.449656  0  -0.21434  -0.329751  0  1.794933  0
I  I409  1  0.58186769  0.87338769  0.77279487  1  -0.44979  0  -0.214348  -0.329753  0  1.79491  0
I  I410  1  0.29152427  0.41813606  0.19092872  1  -0.44843  0  -0.21437  -0.329806  0  1.794931  0
I  I411  1  0.80906824  0.72720241  0.60059422  1  -0.449739  0  -0.21437  -0.329779  0  1.79487  0
I  I412  1  0.39938808  0.62660484  0.70846723  1  -0.445982  0  -0.214317  -0.329726  0  1.794887  0
I  I413  1  0.22721539  0.60061061  0.30907618  1  -0.449568  0  -0.214308  -0.329669  0  1.794844  0
I  I414  1  0.12661059  0.70847911  0.89940087  1  -0.445926  0  -0.214338  -0.329745  0  1.794867  0
I  I415  1  0.91813444  0.19092780  0.79152404  1  -0.448425  0  -0.214345  -0.329763  0  1.794887  0
N  N416  1  0.21480052  0.22647516  0.30313130  1  -1.15811  0  -0.257495  0.005559  0  3.667463  0
N  N417  1  0.77352773  0.98833161  0.07665932  1  -1.150915  0  -0.25749  0.005517  0  3.66757  0
N  N418  1  0.01167106  0.78520178  0.08833448  1  -1.167556  0  -0.257433  0.005624  0  3.667366  0
N  N419  1  0.28519719  0.08832850  0.51167325  1  -1.167884  0  -0.257427  0.005594  0  3.667712  0
N  N420  1  0.72647479  0.30313282  0.71480069  1  -1.158165  0  -0.257436  0.005627  0  3.667568  0
N  N421  1  0.48833396  0.07666052  0.27352473  1  -1.150807  0  -0.257397  0.005721  0  3.667628  0
N  N422  1  0.92334083  0.41167312  0.19687039  1  -1.179818  0  -0.257409  0.005534  0  3.6676  0
N  N423  1  0.91166487  0.19686408  0.42333285  1  -1.18013  0  -0.257394  0.005617  0  3.667116  0
N  N424  1  0.69686822  0.42333301  0.41166431  1  -1.180191  0  -0.257509  0.005482  0  3.667157  0
N  N425  1  0.57666242  0.27352564  0.98833189  1  -1.150749  0  -0.257458  0.005574  0  3.667555  0
N  N426  1  0.58832806  0.51167041  0.78519238  1  -1.167746  0  -0.257489  0.005531  0  3.667729  0
N  N427  1  0.80313102  0.71480135  0.22647553  1  -1.157847  0  -0.257469  0.005621  0  3.667626  0
N  N428  1  0.98832802  0.77353072  0.57666456  1  -1.150761  0  -0.257473  0.005504  0  3.667562  0
N  N429  1  0.78520129  0.01167197  0.58833298  1  -1.16774  0  -0.257477  0.005468  0  3.667527  0
N  N430  1  0.22647690  0.21480610  0.80313640  1  -1.157989  0  -0.25746  0.005623  0  3.667596  0
N  N431  1  0.19686684  0.91166840  0.92333670  1  -1.180357  0  -0.257503  0.005605  0  3.667399  0
N  N432  1  0.42334101  0.69686281  0.91166744  1  -1.179706  0  -0.257466  0.005611  0  3.667313  0
N  N433  1  0.41166587  0.92333624  0.69686820  1  -1.179802  0  -0.257455  0.005627  0  3.667252  0
N  N434  1  0.51167218  0.58833147  0.28519871  1  -1.167892  0  -0.257419  0.005628  0  3.667637  0
N  N435  1  0.71479736  0.80313004  0.72647140  1  -1.157411  0  -0.257388  0.005596  0  3.667531  0
N  N436  1  0.27352624  0.57665910  0.48833206  1  -1.15029  0  -0.257472  0.005443  0  3.667704  0
N  N437  1  0.30313065  0.72647356  0.21479989  1  -1.158088  0  -0.257475  0.005654  0  3.667442  0
N  N438  1  0.07665905  0.48832990  0.77352878  1  -1.150877  0  -0.257477  0.005461  0  3.667617  0
N  N439  1  0.08833238  0.28519649  0.01166949  1  -1.167754  0  -0.257462  0.005672  0  3.66756  0
