# generated using pymatgen
data_Ni3H36C57N3O13
_symmetry_space_group_name_H-M   'P 1'
_cell_length_a   25.49182254
_cell_length_b   25.49194591
_cell_length_c   25.49198642
_cell_angle_alpha   109.47117801
_cell_angle_beta   109.47146739
_cell_angle_gamma   109.47131896
_symmetry_Int_Tables_number   1
_chemical_formula_structural   Ni3H36C57N3O13
_chemical_formula_sum   'Ni12 H144 C228 N12 O52'
_cell_volume   12752.16846616
_cell_formula_units_Z   4
loop_
 _symmetry_equiv_pos_site_id
 _symmetry_equiv_pos_as_xyz
  1  'x, y, z'
loop_
 _atom_site_type_symbol
 _atom_site_label
 _atom_site_symmetry_multiplicity
 _atom_site_fract_x
 _atom_site_fract_y
 _atom_site_fract_z
 _atom_site_occupancy
 _atom_site_pbe_bader_charge
 _atom_site_pbe_bader_spin_density
 _atom_site_pbe_cm5_charge
 _atom_site_pbe_ddec_charge
 _atom_site_pbe_ddec_spin_density
 _atom_site_pbe_ddec_sum_bond_order
 _atom_site_pbe_magmom
Ni  Ni0  1  0.00000111  0.92221842  0.36391568  1  1.289536  1.043451  0.709829  0.997718  1.195803  2.673088  1.03
Ni  Ni1  1  0.44169861  0.07779096  0.07779447  1  1.303355  1.043397  0.709894  0.997804  1.195633  2.672992  1.03
Ni  Ni2  1  0.55830101  0.63608978  0.63609039  1  1.289424  1.043119  0.709984  0.997839  1.195414  2.673244  1.029
Ni  Ni3  1  0.00000323  0.36391337  0.92222309  1  1.289359  1.043236  0.709895  0.997962  1.19556  2.672452  1.03
Ni  Ni4  1  0.07778487  0.07778935  0.44169561  1  1.303232  1.043168  0.709962  0.997907  1.19538  2.672995  1.029
Ni  Ni5  1  0.92220786  0.36390788  0.99999845  1  1.289474  1.043307  0.709887  0.997773  1.195642  2.673336  1.03
Ni  Ni6  1  0.36391171  0.92221833  0.00000172  1  1.289304  1.043177  0.709958  0.997958  1.195497  2.673034  1.03
Ni  Ni7  1  0.63608528  0.63609144  0.55830599  1  1.289697  1.043278  0.709868  0.997822  1.195602  2.672985  1.03
Ni  Ni8  1  0.92221756  0.00000709  0.36391183  1  1.289368  1.043112  0.709936  0.997922  1.19542  2.673076  1.029
Ni  Ni9  1  0.63608866  0.55830846  0.63609850  1  1.289905  1.043284  0.709942  0.998059  1.195607  2.67281  1.03
Ni  Ni10  1  0.07779392  0.44170141  0.07778759  1  1.304156  1.043236  0.709933  0.997761  1.195443  2.673438  1.029
Ni  Ni11  1  0.36391095  0.99999651  0.92221485  1  1.289538  1.043182  0.709941  0.997886  1.195499  2.673074  1.03
H  H12  1  0.71668511  0.61768838  0.50076637  1  0.133504  0.001011  0.124867  0.098306  0.000349  0.991957  0.001
H  H13  1  0.88307321  0.38231575  0.09900098  1  0.143689  0.001011  0.124798  0.098219  0.000349  0.991956  0.001
H  H14  1  0.11692070  0.21592572  0.49924650  1  0.127551  0.00101  0.124878  0.0983  0.000348  0.991975  0.001
H  H15  1  0.28331685  0.78407706  0.90099717  1  0.124773  0.00101  0.124859  0.098323  0.000348  0.991948  0.001
H  H16  1  0.38231530  0.09899705  0.88307705  1  0.143562  0.00101  0.124845  0.098295  0.000349  0.991937  0.001
H  H17  1  0.61769319  0.50076448  0.71669550  1  0.133137  0.001012  0.124824  0.098199  0.000349  0.992041  0.001
H  H18  1  0.78407616  0.90099764  0.28331891  1  0.124976  0.00101  0.124854  0.0983  0.000348  0.991961  0.001
H  H19  1  0.21594130  0.49924755  0.11692495  1  0.127535  0.00101  0.124794  0.098202  0.000348  0.992045  0.001
H  H20  1  0.90100700  0.28332161  0.78407557  1  0.125228  0.00101  0.124828  0.098205  0.000349  0.992026  0.001
H  H21  1  0.49923973  0.11692735  0.21593683  1  0.127563  0.001011  0.124889  0.098344  0.000349  0.991908  0.001
H  H22  1  0.09900531  0.88306388  0.38231967  1  0.14402  0.001009  0.124812  0.098206  0.000349  0.992076  0.001
H  H23  1  0.50075783  0.71668692  0.61768738  1  0.133475  0.001011  0.124828  0.098248  0.000349  0.991909  0.001
H  H24  1  0.09899709  0.38231872  0.88306814  1  0.144057  0.001009  0.124817  0.098228  0.000348  0.992097  0.001
H  H25  1  0.50075936  0.61768376  0.71668663  1  0.133298  0.00101  0.124837  0.098258  0.000349  0.991974  0.001
H  H26  1  0.90099858  0.78405974  0.28331193  1  0.125158  0.001011  0.124838  0.098209  0.000349  0.992004  0.001
H  H27  1  0.49923878  0.21592870  0.11692823  1  0.127775  0.001011  0.124813  0.098269  0.000349  0.991932  0.001
H  H28  1  0.28330818  0.90099175  0.78407119  1  0.124692  0.00101  0.124868  0.098368  0.000349  0.991863  0.001
H  H29  1  0.11692431  0.49924308  0.21591976  1  0.127481  0.001011  0.124845  0.098263  0.000349  0.991952  0.001
H  H30  1  0.88307253  0.09900373  0.38232062  1  0.14384  0.00101  0.124814  0.09819  0.000349  0.992017  0.001
H  H31  1  0.71668350  0.50076726  0.61768317  1  0.133617  0.001011  0.124891  0.098389  0.000349  0.99184  0.001
H  H32  1  0.61768535  0.71669431  0.50076536  1  0.133324  0.001011  0.124859  0.098308  0.000349  0.991888  0.001
H  H33  1  0.38231288  0.88306935  0.09899336  1  0.143848  0.00101  0.124832  0.098227  0.000349  0.992011  0.001
H  H34  1  0.21593054  0.11692938  0.49924902  1  0.127796  0.00101  0.124818  0.098183  0.000349  0.992066  0.001
H  H35  1  0.78406604  0.28330367  0.90098393  1  0.12456  0.00101  0.124855  0.098293  0.000349  0.991972  0.001
H  H36  1  0.77404065  0.66985978  0.45549259  1  0.062577  0.000551  0.107765  0.112543  0.000266  1.010619  0.0
H  H37  1  0.78561717  0.33013277  0.10416310  1  0.068152  0.000548  0.107798  0.11257  0.000266  1.0107  0.0
H  H38  1  0.21436602  0.31855269  0.54452057  1  0.065495  0.00055  0.107701  0.112385  0.000266  1.010761  0.0
H  H39  1  0.22595692  0.68144752  0.89580516  1  0.056423  0.000554  0.107696  0.112375  0.000266  1.010591  0.0
H  H40  1  0.33014123  0.10417964  0.78563139  1  0.068531  0.000547  0.107737  0.112492  0.000266  1.010593  0.0
H  H41  1  0.66986571  0.45548640  0.77404114  1  0.062665  0.00055  0.107729  0.112496  0.000266  1.010716  0.0
H  H42  1  0.68144906  0.89581460  0.22596556  1  0.056588  0.000554  0.10773  0.112442  0.000266  1.010692  0.0
H  H43  1  0.31855791  0.54451741  0.21437668  1  0.065434  0.00055  0.107708  0.112378  0.000266  1.010717  0.0
H  H44  1  0.89580823  0.22595783  0.68143651  1  0.056465  0.000554  0.107682  0.112343  0.000266  1.010661  0.0
H  H45  1  0.54451568  0.21437682  0.31855792  1  0.065437  0.00055  0.107715  0.112437  0.000266  1.0107  0.0
H  H46  1  0.10418030  0.78561611  0.33014110  1  0.068364  0.000548  0.107675  0.112285  0.000266  1.010929  0.0
H  H47  1  0.45548699  0.77404236  0.66986335  1  0.062595  0.00055  0.10775  0.112464  0.000266  1.010704  0.0
H  H48  1  0.10419545  0.33015554  0.78562870  1  0.068413  0.000548  0.107657  0.112292  0.000266  1.010603  0.0
H  H49  1  0.45548905  0.66985717  0.77404291  1  0.062738  0.00055  0.107718  0.112443  0.000266  1.010599  0.0
H  H50  1  0.89582587  0.68143773  0.22595916  1  0.056646  0.000554  0.107724  0.112344  0.000266  1.010822  0.0
H  H51  1  0.54451380  0.31855306  0.21437772  1  0.065568  0.00055  0.107733  0.112455  0.000266  1.010699  0.0
H  H52  1  0.22595609  0.89581571  0.68144729  1  0.056562  0.000554  0.10771  0.112426  0.000266  1.010722  0.0
H  H53  1  0.21437234  0.54451298  0.31854580  1  0.065785  0.000549  0.107779  0.112536  0.000266  1.010566  0.0
H  H54  1  0.78562120  0.10417754  0.33014600  1  0.068617  0.000547  0.107774  0.112482  0.000266  1.010806  0.0
H  H55  1  0.77404019  0.45549270  0.66984828  1  0.062878  0.000551  0.107746  0.112485  0.000266  1.010574  0.0
H  H56  1  0.66985968  0.77404289  0.45549081  1  0.062781  0.000551  0.107726  0.112436  0.000266  1.010686  0.0
H  H57  1  0.33014207  0.78562458  0.10417882  1  0.068591  0.000547  0.107747  0.112505  0.000266  1.010596  0.0
H  H58  1  0.31855537  0.21437797  0.54452324  1  0.065622  0.00055  0.107757  0.112465  0.000266  1.010742  0.0
H  H59  1  0.68144683  0.22595754  0.89581399  1  0.056661  0.000554  0.107711  0.112435  0.000266  1.010643  0.0
H  H60  1  0.82436304  0.72047413  0.42860609  1  0.058346  0.000241  0.100448  0.096814  0.00012  1.017235  0.0
H  H61  1  0.70812566  0.27952333  0.10387851  1  0.067472  0.000241  0.100347  0.096698  0.00012  1.017126  0.0
H  H62  1  0.29186567  0.39576713  0.57140409  1  0.055859  0.000242  0.100408  0.096746  0.00012  1.017124  0.0
H  H63  1  0.17562643  0.60422341  0.89609038  1  0.040342  0.000242  0.100459  0.096805  0.00012  1.017105  0.0
H  H64  1  0.27952973  0.10389250  0.70813563  1  0.067555  0.000241  0.100431  0.096772  0.00012  1.017168  0.0
H  H65  1  0.72047759  0.42859811  0.82435246  1  0.057996  0.000241  0.100305  0.09672  0.00012  1.017189  0.0
H  H66  1  0.60423001  0.89609917  0.17563487  1  0.040519  0.000242  0.100397  0.096761  0.00012  1.017058  0.0
H  H67  1  0.39576701  0.57140349  0.29187674  1  0.056593  0.000242  0.100403  0.096806  0.00012  1.017257  0.0
H  H68  1  0.89610769  0.17563157  0.60423143  1  0.040429  0.000242  0.100416  0.096798  0.00012  1.017077  0.0
H  H69  1  0.57140370  0.29187941  0.39577217  1  0.055487  0.000242  0.100422  0.09678  0.00012  1.017272  0.0
H  H70  1  0.10389427  0.70812762  0.27952099  1  0.067865  0.000241  0.100405  0.096743  0.00012  1.017221  0.0
H  H71  1  0.42860129  0.82436162  0.72047615  1  0.058033  0.000241  0.10039  0.09675  0.00012  1.017143  0.0
H  H72  1  0.10389741  0.27952629  0.70812608  1  0.067499  0.000241  0.100427  0.096748  0.00012  1.01716  0.0
H  H73  1  0.42859965  0.72046773  0.82436929  1  0.058863  0.000241  0.100411  0.096744  0.00012  1.017118  0.0
H  H74  1  0.89611737  0.60423850  0.17563264  1  0.040818  0.000242  0.100369  0.096771  0.00012  1.016998  0.0
H  H75  1  0.57140200  0.39576468  0.29187805  1  0.056554  0.000242  0.100381  0.09677  0.00012  1.017119  0.0
H  H76  1  0.17563327  0.89610696  0.60423778  1  0.04025  0.000242  0.100468  0.096802  0.00012  1.017186  0.0
H  H77  1  0.29186466  0.57139930  0.39575653  1  0.056518  0.000242  0.1004  0.096747  0.00012  1.017179  0.0
H  H78  1  0.70812175  0.10388095  0.27952474  1  0.067456  0.000241  0.100337  0.096724  0.00012  1.017213  0.0
H  H79  1  0.82437480  0.42859813  0.72046552  1  0.058802  0.000241  0.1004  0.096706  0.00012  1.017129  0.0
H  H80  1  0.72047018  0.82436544  0.42860329  1  0.058626  0.000241  0.100437  0.096727  0.00012  1.01722  0.0
H  H81  1  0.27952737  0.70812731  0.10387870  1  0.067353  0.000241  0.100341  0.096713  0.00012  1.017211  0.0
H  H82  1  0.39576223  0.29188095  0.57140630  1  0.056796  0.000242  0.100347  0.096772  0.00012  1.017168  0.0
H  H83  1  0.60422750  0.17563037  0.89610120  1  0.040632  0.000242  0.100413  0.096774  0.00012  1.017204  0.0
H  H84  1  0.89285118  0.78993639  0.40301955  1  0.091141  0.000261  0.106896  0.112553  0.000139  0.998652  0.0
H  H85  1  0.61308013  0.21006467  0.10291453  1  0.089058  0.000261  0.106905  0.112575  0.000139  0.998664  0.0
H  H86  1  0.38691491  0.48984261  0.59699249  1  0.094254  0.00026  0.106968  0.112697  0.000139  0.998639  0.0
H  H87  1  0.10714736  0.51015759  0.89708298  1  0.093219  0.000265  0.106919  0.112679  0.000139  0.998777  0.0
H  H88  1  0.21006722  0.10292050  0.61308720  1  0.089195  0.000262  0.106957  0.112681  0.000139  0.998699  0.0
H  H89  1  0.78993486  0.40301220  0.89284611  1  0.091199  0.00026  0.106909  0.112554  0.000139  0.998699  0.0
H  H90  1  0.51015731  0.89707598  0.10714739  1  0.093071  0.000264  0.106988  0.113955  0.000138  0.997252  0.0
H  H91  1  0.48984342  0.59699602  0.38693145  1  0.094256  0.000261  0.106886  0.112545  0.000139  0.998704  0.0
H  H92  1  0.89708600  0.10714260  0.51016055  1  0.092854  0.000264  0.106941  0.112719  0.000139  0.998746  0.0
H  H93  1  0.59698747  0.38692794  0.48984692  1  0.094069  0.00026  0.106969  0.112709  0.000139  0.998584  0.0
H  H94  1  0.10292866  0.61308110  0.21006090  1  0.088331  0.000262  0.106967  0.112669  0.000139  0.998561  0.0
H  H95  1  0.40300881  0.89284583  0.78993466  1  0.091143  0.000261  0.106921  0.112559  0.000139  0.998691  0.0
H  H96  1  0.10291980  0.21005912  0.61307746  1  0.088553  0.000261  0.106957  0.112688  0.000139  0.99868  0.0
H  H97  1  0.40300894  0.78992948  0.89285202  1  0.090945  0.000261  0.106979  0.112714  0.000139  0.99864  0.0
H  H98  1  0.89708310  0.51015714  0.10713730  1  0.092762  0.000264  0.106958  0.112714  0.000139  0.998692  0.0
H  H99  1  0.59698597  0.48984244  0.38692337  1  0.094163  0.00026  0.10696  0.112702  0.000139  0.998713  0.0
H  H100  1  0.10714671  0.89708573  0.51016505  1  0.093324  0.000264  0.106902  0.112521  0.000139  0.998733  0.0
H  H101  1  0.38691233  0.59699019  0.48983811  1  0.094217  0.00026  0.106915  0.112589  0.000139  0.998661  0.0
H  H102  1  0.61307315  0.10290897  0.21006423  1  0.089316  0.000261  0.106908  0.112608  0.000139  0.998637  0.0
H  H103  1  0.89285702  0.40301247  0.78993511  1  0.091068  0.000261  0.106987  0.112716  0.000139  0.998574  0.0
H  H104  1  0.78993457  0.89285431  0.40301861  1  0.091024  0.000261  0.10696  0.11272  0.000139  0.998683  0.0
H  H105  1  0.21007224  0.61308495  0.10291557  1  0.089206  0.000261  0.106936  0.112593  0.000139  0.998738  0.0
H  H106  1  0.48983655  0.38693212  0.59699509  1  0.094341  0.000261  0.106918  0.112631  0.000139  0.998586  0.0
H  H107  1  0.51015235  0.10714017  0.89707609  1  0.093032  0.000264  0.106971  0.113914  0.000138  0.997145  0.0
H  H108  1  0.89665793  0.79364972  0.16411248  1  0.088995  0.000253  0.103072  0.107608  0.000131  1.006906  0.0
H  H109  1  0.37045169  0.20634982  0.10300366  1  0.102524  0.000253  0.103148  0.107709  0.000131  1.00675  0.0
H  H110  1  0.62953120  0.73255526  0.83589670  1  0.069421  0.000252  0.103074  0.107536  0.000131  1.00675  0.0
H  H111  1  0.10334070  0.26746032  0.89698429  1  0.086075  0.000256  0.103073  0.107495  0.000131  1.006697  0.0
H  H112  1  0.20636362  0.10301704  0.37047186  1  0.103204  0.000253  0.103082  0.107567  0.000131  1.006761  0.0
H  H113  1  0.79364766  0.16410853  0.89665226  1  0.089077  0.000253  0.103083  0.10765  0.00013  1.006962  0.0
H  H114  1  0.26744574  0.89697648  0.10334067  1  0.085904  0.000256  0.10311  0.10758  0.000131  1.006656  0.0
H  H115  1  0.73254113  0.83588120  0.62953348  1  0.071131  0.000252  0.103085  0.108726  0.00013  1.005602  0.0
H  H116  1  0.89698539  0.10334622  0.26745392  1  0.085681  0.000256  0.103085  0.107582  0.000131  1.006826  0.0
H  H117  1  0.83588941  0.62954064  0.73255713  1  0.069318  0.000252  0.103076  0.108686  0.00013  1.005477  0.0
H  H118  1  0.10302318  0.37046884  0.20635741  1  0.103259  0.000253  0.103076  0.107488  0.000131  1.0067  0.0
H  H119  1  0.16411181  0.89665551  0.79365376  1  0.089183  0.000253  0.103103  0.107664  0.000131  1.006942  0.0
H  H120  1  0.10302216  0.20636627  0.37047622  1  0.103085  0.000253  0.10307  0.107506  0.000131  1.006683  0.0
H  H121  1  0.16410969  0.79364322  0.89666225  1  0.088593  0.000253  0.103082  0.10872  0.00013  1.0054  0.0
H  H122  1  0.89699272  0.26745271  0.10333898  1  0.086238  0.000255  0.103097  0.107539  0.000131  1.006904  0.0
H  H123  1  0.83589536  0.73255724  0.62954522  1  0.069355  0.000252  0.103146  0.108769  0.00013  1.005526  0.0
H  H124  1  0.10333975  0.89699098  0.26746189  1  0.085735  0.000256  0.103063  0.107486  0.000131  1.006892  0.0
H  H125  1  0.62953958  0.83589956  0.73255348  1  0.071181  0.000252  0.103085  0.108786  0.00013  1.00552  0.0
H  H126  1  0.37045961  0.10300358  0.20635489  1  0.102186  0.000253  0.103132  0.107703  0.000131  1.006802  0.0
H  H127  1  0.89666363  0.16411084  0.79364189  1  0.088564  0.000254  0.103055  0.108685  0.00013  1.005367  0.0
H  H128  1  0.79364521  0.89666323  0.16411794  1  0.088522  0.000253  0.103062  0.108665  0.00013  1.005434  0.0
H  H129  1  0.20636483  0.37046868  0.10300853  1  0.101754  0.000253  0.103112  0.107665  0.00013  1.006849  0.0
H  H130  1  0.73254270  0.62954102  0.83589319  1  0.071212  0.000252  0.103132  0.10777  0.000131  1.006868  0.0
H  H131  1  0.26744606  0.10333258  0.89697924  1  0.085934  0.000256  0.103092  0.107496  0.000131  1.00675  0.0
H  H132  1  0.83200161  0.72815636  0.04639214  1  0.060081  0.000248  0.098761  0.096274  0.000118  1.021427  0.0
H  H133  1  0.31822711  0.27184426  0.10383726  1  0.026663  0.000252  0.098713  0.096181  0.000118  1.021513  0.0
H  H134  1  0.68175953  0.78561780  0.95361836  1  0.043712  0.000246  0.09883  0.096311  0.000118  1.021432  0.0
H  H135  1  0.16798694  0.21438269  0.89613089  1  0.054589  0.000243  0.09883  0.096299  0.000118  1.021513  0.0
H  H136  1  0.27185188  0.10384795  0.31823842  1  0.035249  0.000246  0.098757  0.096227  0.000118  1.021563  0.0
H  H137  1  0.72815506  0.04639007  0.83199326  1  0.060107  0.000248  0.098756  0.096239  0.000118  1.02155  0.0
H  H138  1  0.21438073  0.89613918  0.16799827  1  0.045603  0.00025  0.098804  0.096263  0.000118  1.021438  0.0
H  H139  1  0.78561313  0.95360291  0.68175350  1  0.044182  0.000246  0.098784  0.096236  0.000118  1.021424  0.0
H  H140  1  0.89615531  0.16800359  0.21438650  1  0.045882  0.00025  0.098765  0.09632  0.000118  1.02147  0.0
H  H141  1  0.95361147  0.68176330  0.78561915  1  0.044476  0.000246  0.098837  0.096372  0.000118  1.021395  0.0
H  H142  1  0.10385461  0.31823613  0.27184900  1  0.035141  0.000246  0.098801  0.09632  0.000118  1.021471  0.0
H  H143  1  0.04639050  0.83200309  0.72815525  1  0.05979  0.000248  0.098796  0.096357  0.000118  1.021429  0.0
H  H144  1  0.10385382  0.27185564  0.31824085  1  0.026015  0.000252  0.098793  0.096306  0.000118  1.021464  0.0
H  H145  1  0.04638742  0.72814667  0.83200648  1  0.059531  0.000248  0.09879  0.096256  0.000118  1.021456  0.0
H  H146  1  0.89615579  0.21438618  0.16799638  1  0.055201  0.000243  0.098753  0.096285  0.000118  1.021444  0.0
H  H147  1  0.95361597  0.78561586  0.68176920  1  0.0436  0.000246  0.098728  0.09628  0.000118  1.021397  0.0
H  H148  1  0.16798832  0.89614383  0.21438982  1  0.054975  0.000243  0.098795  0.096349  0.000118  1.021491  0.0
H  H149  1  0.68176849  0.95362088  0.78561580  1  0.043729  0.000246  0.098769  0.096308  0.000118  1.021456  0.0
H  H150  1  0.31823215  0.10384125  0.27184810  1  0.026247  0.000252  0.098754  0.09626  0.000118  1.021547  0.0
H  H151  1  0.83200831  0.04638889  0.72814323  1  0.059573  0.000248  0.098802  0.096282  0.000118  1.02146  0.0
H  H152  1  0.72814822  0.83200740  0.04639603  1  0.059851  0.000248  0.098822  0.096277  0.000118  1.021494  0.0
H  H153  1  0.27185082  0.31823512  0.10383709  1  0.035101  0.000246  0.098714  0.096163  0.000118  1.021568  0.0
H  H154  1  0.78561086  0.68176615  0.95361480  1  0.043601  0.000246  0.098751  0.096275  0.000118  1.021443  0.0
H  H155  1  0.21438157  0.16798904  0.89613551  1  0.045607  0.00025  0.098764  0.096189  0.000118  1.02158  0.0
C  C156  1  0.70802662  0.65268547  0.48964182  1  0.480383  -0.002744  0.054435  0.100877  -0.003115  3.948389  -0.002
C  C157  1  0.83695238  0.34731549  0.05533828  1  0.454805  -0.002746  0.054412  0.100924  -0.003119  3.948293  -0.002
C  C158  1  0.16304207  0.21839330  0.51036669  1  0.476104  -0.002734  0.054343  0.100877  -0.003115  3.948246  -0.002
C  C159  1  0.29196830  0.78160567  0.94464710  1  0.489915  -0.002757  0.054332  0.100853  -0.003113  3.948231  -0.002
C  C160  1  0.34731624  0.05534250  0.83695416  1  0.454294  -0.002742  0.054348  0.100801  -0.003114  3.948248  -0.002
C  C161  1  0.65268683  0.48963924  0.70803140  1  0.463486  -0.002736  0.054365  0.100989  -0.003115  3.948364  -0.002
C  C162  1  0.78160977  0.94465097  0.29197471  1  0.489548  -0.002759  0.05436  0.100943  -0.003115  3.948106  -0.002
C  C163  1  0.21839776  0.51036491  0.16304059  1  0.476048  -0.002736  0.054376  0.100945  -0.003118  3.948101  -0.002
C  C164  1  0.94465753  0.29197357  0.78159905  1  0.488898  -0.002752  0.054364  0.100959  -0.003107  3.948536  -0.002
C  C165  1  0.51036223  0.16304630  0.21839798  1  0.476563  -0.002736  0.054307  0.100823  -0.003117  3.948347  -0.002
C  C166  1  0.05534879  0.83694721  0.34732206  1  0.454429  -0.002741  0.054428  0.100958  -0.003113  3.948114  -0.002
C  C167  1  0.48963448  0.70802970  0.65268547  1  0.463392  -0.002735  0.054374  0.100969  -0.003114  3.948241  -0.002
C  C168  1  0.05534948  0.34731930  0.83694438  1  0.454126  -0.002737  0.05431  0.100836  -0.003109  3.948268  -0.002
C  C169  1  0.48963493  0.65268150  0.70803084  1  0.479808  -0.002743  0.05437  0.100903  -0.003114  3.948273  -0.002
C  C170  1  0.94465781  0.78160196  0.29197412  1  0.489353  -0.002757  0.054424  0.101049  -0.003113  3.948198  -0.002
C  C171  1  0.51036258  0.21839144  0.16304897  1  0.476466  -0.002735  0.054388  0.100909  -0.003117  3.948182  -0.002
C  C172  1  0.29196868  0.94464823  0.78160776  1  0.490118  -0.002759  0.054334  0.100781  -0.003115  3.948253  -0.002
C  C173  1  0.16304791  0.51036521  0.21838552  1  0.476477  -0.002735  0.054395  0.10088  -0.003117  3.948291  -0.002
C  C174  1  0.83695247  0.05534614  0.34732037  1  0.45468  -0.002743  0.054445  0.101094  -0.003115  3.948097  -0.002
C  C175  1  0.70802835  0.48964118  0.65267843  1  0.479837  -0.002745  0.054395  0.100841  -0.003116  3.948104  -0.002
C  C176  1  0.65268103  0.70803435  0.48964100  1  0.479688  -0.002744  0.054331  0.100791  -0.003115  3.948333  -0.002
C  C177  1  0.34731462  0.83694611  0.05533835  1  0.454467  -0.00274  0.054389  0.100975  -0.003112  3.948327  -0.002
C  C178  1  0.21839290  0.16304870  0.51036977  1  0.475717  -0.002733  0.05446  0.101162  -0.003115  3.948033  -0.002
C  C179  1  0.78160843  0.29196589  0.94464322  1  0.490111  -0.002764  0.054351  0.100834  -0.00312  3.948284  -0.002
C  C180  1  0.73980584  0.68254427  0.46415819  1  -0.000261  0.002902  -0.087335  -0.186899  0.001618  3.958306  0.002
C  C181  1  0.78160648  0.31745445  0.05724963  1  0.023936  0.002904  -0.087352  -0.18688  0.001619  3.958301  0.002
C  C182  1  0.21838722  0.27565230  0.53585071  1  -4.5e-05  0.002895  -0.087271  -0.186808  0.001617  3.958341  0.002
C  C183  1  0.26019211  0.72434734  0.94273112  1  0.006783  0.002895  -0.087247  -0.186655  0.001616  3.95819  0.002
C  C184  1  0.31745529  0.05726020  0.78161174  1  0.025324  0.002902  -0.087374  -0.186927  0.001618  3.958119  0.002
C  C185  1  0.68254895  0.46415312  0.73980737  1  0.01675  0.002895  -0.087295  -0.18686  0.001618  3.958066  0.002
C  C186  1  0.72434993  0.94273659  0.26019913  1  0.006708  0.002897  -0.087306  -0.18683  0.001617  3.958199  0.002
C  C187  1  0.27565302  0.53585054  0.21839024  1  -0.000153  0.002895  -0.087277  -0.186758  0.001617  3.958519  0.002
C  C188  1  0.94273248  0.26019189  0.72434059  1  0.006941  0.002896  -0.087197  -0.186524  0.001617  3.957835  0.002
C  C189  1  0.53584702  0.21839099  0.27565372  1  -0.000224  0.002896  -0.08729  -0.186777  0.001618  3.958578  0.002
C  C190  1  0.05726234  0.78160341  0.31746020  1  0.022786  0.002902  -0.087274  -0.186512  0.001617  3.958422  0.002
C  C191  1  0.46415273  0.73980682  0.68254689  1  0.016694  0.002893  -0.087271  -0.186724  0.001617  3.958324  0.002
C  C192  1  0.05726767  0.31746100  0.78160768  1  0.023033  0.0029  -0.087169  -0.186396  0.001616  3.957948  0.002
C  C193  1  0.46415413  0.68254261  0.73980733  1  0.000487  0.0029  -0.087279  -0.186753  0.001617  3.958103  0.002
C  C194  1  0.94274179  0.72434270  0.26019714  1  0.006553  0.002898  -0.087325  -0.186579  0.001618  3.958254  0.002
C  C195  1  0.53584681  0.27565111  0.21839266  1  7e-05  0.002897  -0.087345  -0.186835  0.001618  3.958352  0.002
C  C196  1  0.26019210  0.94273526  0.72434918  1  0.006854  0.002897  -0.087228  -0.186695  0.001617  3.958148  0.002
C  C197  1  0.21838859  0.53584892  0.27564576  1  -2.9e-05  0.002897  -0.087393  -0.186942  0.001618  3.958125  0.002
C  C198  1  0.78160621  0.05725894  0.31745944  1  0.02325  0.002902  -0.087372  -0.1869  0.001617  3.958362  0.002
C  C199  1  0.73980664  0.46415666  0.68253903  1  -0.000316  0.002902  -0.087329  -0.186893  0.001618  3.958219  0.002
C  C200  1  0.68254379  0.73980823  0.46415753  1  8e-06  0.002901  -0.087219  -0.186649  0.001618  3.958128  0.002
C  C201  1  0.31745499  0.78160337  0.05725738  1  0.023996  0.002903  -0.087378  -0.186939  0.001618  3.958106  0.002
C  C202  1  0.27565269  0.21839464  0.53585459  1  0.000216  0.002895  -0.087414  -0.187035  0.001617  3.958543  0.002
C  C203  1  0.72435032  0.26019506  0.94273296  1  0.006398  0.002898  -0.087312  -0.186784  0.001618  3.95842  0.002
C  C204  1  0.72927316  0.72927382  0.45232411  1  -0.070061  -0.003893  0.010475  0.11026  -0.004274  3.989841  -0.002
C  C205  1  0.72304119  0.27072304  0.99998679  1  -0.060937  -0.003894  0.010605  0.11042  -0.00428  3.989977  -0.002
C  C206  1  0.27695174  0.27695585  0.54768286  1  -0.059027  -0.003892  0.010648  0.109912  -0.004275  3.989461  -0.002
C  C207  1  0.27072122  0.72304061  0.99998755  1  -0.061334  -0.003886  0.010625  0.110394  -0.004272  3.989861  -0.002
C  C208  1  0.27072541  0.99999699  0.72304827  1  -0.062017  -0.003888  0.010559  0.11036  -0.004274  3.989772  -0.002
C  C209  1  0.72927821  0.45232140  0.72926665  1  -0.0704  -0.003893  0.010557  0.11039  -0.004274  3.989858  -0.002
C  C210  1  0.72304411  0.99999495  0.27072638  1  -0.060798  -0.003889  0.010649  0.110483  -0.004275  3.989771  -0.002
C  C211  1  0.27695616  0.54768446  0.27694993  1  -0.0591  -0.003894  0.010592  0.109855  -0.004278  3.989361  -0.002
C  C212  1  0.00000344  0.27072404  0.72304237  1  -0.059879  -0.003886  0.010502  0.10998  -0.004271  3.989527  -0.002
C  C213  1  0.54768332  0.27695474  0.27695888  1  -0.059636  -0.003896  0.010621  0.109757  -0.004279  3.989519  -0.002
C  C214  1  0.00000410  0.72304054  0.27072891  1  -0.059981  -0.003889  0.010574  0.110209  -0.004274  3.990247  -0.002
C  C215  1  0.45231930  0.72927298  0.72927689  1  -0.07087  -0.003893  0.010631  0.110373  -0.004274  3.989739  -0.002
C  C216  1  0.76703027  0.76703370  0.43166046  1  -0.030988  -0.001017  -0.008606  0.056653  -0.001159  3.997404  0.0
C  C217  1  0.66461982  0.23296721  0.99999252  1  -0.072947  -0.001025  -0.008667  0.05669  -0.00116  3.997  0.0
C  C218  1  0.33537321  0.33538237  0.56835116  1  -0.048221  -0.001022  -0.008647  0.058688  -0.001159  3.994208  0.0
C  C219  1  0.23296530  0.66461901  0.99998811  1  -0.072706  -0.001025  -0.008678  0.056602  -0.00116  3.997224  0.0
C  C220  1  0.23296668  0.99999895  0.66462693  1  -0.073186  -0.001025  -0.008589  0.056667  -0.001159  3.997388  0.0
C  C221  1  0.76703573  0.43165485  0.76702312  1  -0.030042  -0.001017  -0.00866  0.05664  -0.00116  3.997087  0.0
C  C222  1  0.66461789  0.99999240  0.23296838  1  -0.073292  -0.001025  -0.008623  0.056765  -0.00116  3.99704  0.0
C  C223  1  0.33537607  0.56834937  0.33537667  1  -0.048565  -0.001022  -0.008565  0.058748  -0.001159  3.994431  0.0
C  C224  1  0.00000159  0.23296514  0.66461984  1  -0.07303  -0.001026  -0.008635  0.056698  -0.001161  3.997425  0.0
C  C225  1  0.56834986  0.33538066  0.33538197  1  -0.048527  -0.001021  -0.008616  0.058611  -0.001159  3.994212  0.0
C  C226  1  0.00000224  0.66461820  0.23296276  1  -0.072911  -0.001026  -0.008746  0.056477  -0.001161  3.997305  0.0
C  C227  1  0.43165319  0.76702791  0.76703440  1  -0.030943  -0.001018  -0.008625  0.05663  -0.00116  3.99725  0.0
C  C228  1  0.81571359  0.75785123  0.42303029  1  -0.041348  -7e-05  -0.089729  -0.127129  -0.000222  3.987021  0.0
C  C229  1  0.66516708  0.24214483  0.05785255  1  -0.02815  -7.3e-05  -0.089557  -0.127008  -0.000223  3.987013  0.0
C  C230  1  0.33482207  0.39269684  0.57698373  1  -0.060573  -6.9e-05  -0.089598  -0.127539  -0.000223  3.986104  0.0
C  C231  1  0.18427979  0.60730209  0.94212143  1  0.020177  -7.1e-05  -0.089602  -0.126828  -0.000222  3.986686  0.0
C  C232  1  0.24215182  0.05786487  0.66518058  1  -0.029055  -7.2e-05  -0.089655  -0.126943  -0.000222  3.986886  0.0
C  C233  1  0.75785365  0.42301948  0.81570306  1  -0.04035  -7e-05  -0.089553  -0.127098  -0.000223  3.987079  0.0
C  C234  1  0.60730299  0.94212621  0.18428491  1  0.020347  -7.2e-05  -0.089627  -0.12708  -0.000223  3.987194  0.0
C  C235  1  0.39269356  0.57698184  0.33483081  1  -0.061512  -7e-05  -0.089646  -0.127866  -0.000223  3.986736  0.0
C  C236  1  0.94213723  0.18428048  0.60730503  1  0.020625  -7.1e-05  -0.089594  -0.126978  -0.000222  3.986906  0.0
C  C237  1  0.57698008  0.33483334  0.39269984  1  -0.060779  -7e-05  -0.08967  -0.127642  -0.000224  3.986413  0.0
C  C238  1  0.05787081  0.66516912  0.24214336  1  -0.029369  -7.2e-05  -0.08949  -0.126737  -0.000222  3.986596  0.0
C  C239  1  0.42302176  0.81571059  0.75785272  1  -0.040541  -7e-05  -0.089619  -0.127048  -0.000222  3.986996  0.0
C  C240  1  0.05786846  0.24214747  0.66517074  1  -0.028788  -7.2e-05  -0.08963  -0.12688  -0.000222  3.986883  0.0
C  C241  1  0.42302089  0.75784451  0.81571730  1  -0.041254  -7e-05  -0.089671  -0.126979  -0.000222  3.986878  0.0
C  C242  1  0.94214232  0.60730343  0.18427716  1  0.021013  -7.1e-05  -0.089608  -0.127042  -0.000222  3.986832  0.0
C  C243  1  0.57698129  0.39269591  0.33483492  1  -0.061849  -7e-05  -0.089556  -0.127536  -0.000223  3.986454  0.0
C  C244  1  0.18428393  0.94213420  0.60731238  1  0.020715  -7.1e-05  -0.089685  -0.127018  -0.000222  3.98687  0.0
C  C245  1  0.33482301  0.57698089  0.39268941  1  -0.061579  -6.9e-05  -0.089637  -0.127664  -0.000223  3.986414  0.0
C  C246  1  0.66516567  0.05785456  0.24214769  1  -0.027669  -7.2e-05  -0.08958  -0.127073  -0.000223  3.987018  0.0
C  C247  1  0.81572186  0.42302338  0.75784268  1  -0.04186  -7e-05  -0.08958  -0.126782  -0.000223  3.986584  0.0
C  C248  1  0.75784703  0.81571421  0.42302687  1  -0.041311  -7e-05  -0.089668  -0.126911  -0.000222  3.986889  0.0
C  C249  1  0.24215102  0.66517223  0.05785308  1  -0.028331  -7.2e-05  -0.089592  -0.127104  -0.000222  3.987051  0.0
C  C250  1  0.39268979  0.33483599  0.57698505  1  -0.062092  -6.9e-05  -0.089644  -0.127783  -0.000223  3.98652  0.0
C  C251  1  0.60729928  0.18427957  0.94212672  1  0.020431  -7.3e-05  -0.089627  -0.127162  -0.000224  3.987172  0.0
C  C252  1  0.85458489  0.79664650  0.40851381  1  -0.014318  4.3e-05  -0.084105  -0.09278  -0.00031  3.990043  0.0
C  C253  1  0.61186142  0.20335358  0.05793704  1  -0.025908  4.2e-05  -0.084147  -0.092819  -0.000311  3.989665  0.0
C  C254  1  0.38813202  0.44608489  0.59150149  1  0.008415  4.4e-05  -0.084247  -0.093231  -0.000311  3.990211  0.0
C  C255  1  0.14541741  0.55392325  0.94205512  1  -0.041685  4.4e-05  -0.084163  -0.093164  -0.000309  3.990476  0.0
C  C256  1  0.20335918  0.05794514  0.61187141  1  -0.02605  4.2e-05  -0.084221  -0.093096  -0.00031  3.990045  0.0
C  C257  1  0.79664414  0.40850406  0.85457924  1  -0.015257  4.2e-05  -0.084146  -0.092858  -0.000312  3.989769  0.0
C  C258  1  0.55391718  0.94205069  0.14541490  1  -0.041462  4.3e-05  -0.08419  -0.094138  -0.00031  3.990083  0.0
C  C259  1  0.44607943  0.59150146  0.38814223  1  0.009061  4.4e-05  -0.084072  -0.092713  -0.000311  3.990228  0.0
C  C260  1  0.94206144  0.14541084  0.55392133  1  -0.041183  4.2e-05  -0.08422  -0.093139  -0.000311  3.990141  0.0
C  C261  1  0.59149444  0.38814247  0.44608428  1  0.009716  4.4e-05  -0.084266  -0.093226  -0.000311  3.990223  0.0
C  C262  1  0.05794814  0.61186102  0.20334864  1  -0.026345  4.2e-05  -0.084267  -0.093201  -0.000312  3.990076  0.0
C  C263  1  0.40850286  0.85457862  0.79664322  1  -0.015366  4.3e-05  -0.084105  -0.092791  -0.000311  3.989913  0.0
C  C264  1  0.05794401  0.20335230  0.61186251  1  -0.025264  4.2e-05  -0.084285  -0.093209  -0.000311  3.990194  0.0
C  C265  1  0.40850320  0.79663689  0.85458459  1  -0.015314  4.3e-05  -0.084152  -0.093045  -0.000311  3.990048  0.0
C  C266  1  0.94206253  0.55391844  0.14540456  1  -0.041784  4.2e-05  -0.084233  -0.093182  -0.000312  3.989881  0.0
C  C267  1  0.59149429  0.44608199  0.38814024  1  0.00974  4.4e-05  -0.084253  -0.093264  -0.000311  3.990331  0.0
C  C268  1  0.14541356  0.94206035  0.55392556  1  -0.041709  4.3e-05  -0.084115  -0.092756  -0.000311  3.990057  0.0
C  C269  1  0.38813008  0.59149763  0.44607898  1  0.008912  4.5e-05  -0.084121  -0.092902  -0.00031  3.989928  0.0
C  C270  1  0.61185582  0.05793283  0.20335510  1  -0.026401  4.2e-05  -0.084221  -0.093052  -0.000311  3.98994  0.0
C  C271  1  0.85458762  0.40850827  0.79663975  1  -0.015131  4.4e-05  -0.084207  -0.093137  -0.00031  3.990256  0.0
C  C272  1  0.79664226  0.85458762  0.40851185  1  -0.014492  4.3e-05  -0.084184  -0.093078  -0.000311  3.990077  0.0
C  C273  1  0.20336277  0.61186607  0.05794006  1  -0.025925  4.1e-05  -0.084164  -0.092808  -0.000311  3.989769  0.0
C  C274  1  0.44607598  0.38814751  0.59150308  1  0.0093  4.4e-05  -0.084229  -0.093187  -0.000311  3.990338  0.0
C  C275  1  0.55391367  0.14540836  0.94205220  1  -0.041809  4.3e-05  -0.084144  -0.093897  -0.00031  3.99004  0.0
C  C276  1  0.84602220  0.84602346  0.40188430  1  -0.048868  0.01263  -0.011554  -0.018841  0.007526  3.950914  0.01
C  C277  1  0.55584910  0.15397144  0.99999413  1  -0.054369  0.012612  -0.011648  -0.019055  0.007524  3.951211  0.01
C  C278  1  0.44414247  0.44415457  0.59813336  1  -0.047269  0.012622  -0.011471  -0.018536  0.007524  3.950754  0.01
C  C279  1  0.15398362  0.55585731  0.99999542  1  -0.054665  0.012613  -0.01157  -0.018807  0.007523  3.950938  0.01
C  C280  1  0.15397960  0.00000238  0.55586246  1  -0.054353  0.012617  -0.011618  -0.018924  0.007526  3.951001  0.01
C  C281  1  0.84602494  0.40187599  0.84601472  1  -0.048335  0.012626  -0.011582  -0.018799  0.007524  3.950779  0.01
C  C282  1  0.55584743  0.99999011  0.15397628  1  -0.055151  0.012613  -0.01155  -0.01872  0.007524  3.951015  0.01
C  C283  1  0.44414176  0.59813101  0.44414946  1  -0.046966  0.012623  -0.011714  -0.019033  0.007525  3.950691  0.01
C  C284  1  0.00000329  0.15397384  0.55585139  1  -0.054735  0.012612  -0.011556  -0.018789  0.007523  3.950718  0.01
C  C285  1  0.59812568  0.44415226  0.44415195  1  -0.047778  0.01262  -0.011579  -0.018655  0.007523  3.950521  0.01
C  C286  1  0.00000751  0.55585059  0.15396706  1  -0.05336  0.012615  -0.011544  -0.018628  0.007526  3.950568  0.01
C  C287  1  0.40187114  0.84601452  0.84602027  1  -0.047828  0.012627  -0.011687  -0.018921  0.007525  3.950612  0.01
C  C288  1  0.88953272  0.88953528  0.38844249  1  1.575942  -0.001843  0.222061  0.584076  -0.002054  4.164247  -0.003
C  C289  1  0.49889906  0.11046010  0.99999682  1  1.566611  -0.001826  0.22194  0.584084  -0.002055  4.164488  -0.003
C  C290  1  0.50109317  0.50110360  0.61156904  1  1.572635  -0.001838  0.221734  0.583952  -0.002056  4.164481  -0.003
C  C291  1  0.11047190  0.49890437  0.99999106  1  1.566688  -0.001828  0.221706  0.583829  -0.002053  4.164665  -0.003
C  C292  1  0.11046776  0.00000216  0.49891022  1  1.566526  -0.001825  0.222065  0.584022  -0.002054  4.164364  -0.003
C  C293  1  0.88953779  0.38843441  0.88952279  1  1.576078  -0.001843  0.221779  0.583786  -0.002055  4.164491  -0.003
C  C294  1  0.49889705  0.99999084  0.11046373  1  1.566615  -0.001825  0.221785  0.583888  -0.002055  4.164492  -0.003
C  C295  1  0.50109239  0.61156708  0.50109932  1  1.572365  -0.001836  0.221873  0.584109  -0.002055  4.164439  -0.003
C  C296  1  0.00000275  0.11046341  0.49890009  1  1.566831  -0.001827  0.221872  0.584063  -0.002057  4.164511  -0.003
C  C297  1  0.61156199  0.50110226  0.50110372  1  1.571606  -0.001835  0.221819  0.583947  -0.002055  4.164398  -0.003
C  C298  1  0.00000490  0.49889959  0.11045249  1  1.566114  -0.001821  0.221992  0.584098  -0.002056  4.16416  -0.003
C  C299  1  0.38843341  0.88952572  0.88953446  1  1.576428  -0.001843  0.221905  0.584152  -0.002055  4.164473  -0.003
C  C300  1  0.89147996  0.89148124  0.24345896  1  1.571796  -0.001193  0.220233  0.584306  -0.001357  4.171706  -0.002
C  C301  1  0.35197438  0.10851779  0.00000112  1  1.573015  -0.001184  0.220221  0.584275  -0.001356  4.171633  -0.002
C  C302  1  0.64801862  0.64802835  0.75655070  1  1.579338  -0.001195  0.220439  0.584612  -0.001357  4.171186  -0.002
C  C303  1  0.10852755  0.35197937  0.99998751  1  1.571526  -0.001174  0.220423  0.584563  -0.001357  4.17102  -0.002
C  C304  1  0.10852730  0.00000624  0.35198553  1  1.572822  -0.00118  0.220191  0.584239  -0.001357  4.1715  -0.002
C  C305  1  0.89148429  0.24345253  0.89146426  1  1.573254  -0.001206  0.220395  0.584625  -0.001358  4.170845  -0.002
C  C306  1  0.35197213  0.99998811  0.10852274  1  1.572595  -0.00118  0.220419  0.584546  -0.001356  4.171174  -0.002
C  C307  1  0.64801611  0.75654622  0.64803067  1  1.579715  -0.001196  0.220358  0.584456  -0.001356  4.171148  -0.002
C  C308  1  0.00000197  0.10853046  0.35198338  1  1.572375  -0.001179  0.220064  0.584008  -0.001356  4.172015  -0.002
C  C309  1  0.75654532  0.64803309  0.64803198  1  1.579734  -0.001194  0.220245  0.584486  -0.001356  4.171453  -0.002
C  C310  1  0.00000802  0.35197770  0.10851252  1  1.57409  -0.001177  0.22028  0.584509  -0.001357  4.171102  -0.002
C  C311  1  0.24345609  0.89147730  0.89148583  1  1.572742  -0.001195  0.220351  0.584476  -0.001357  4.171283  -0.002
C  C312  1  0.84972393  0.84972881  0.17185888  1  -0.019339  0.015719  -0.018885  -0.032528  0.009387  3.970154  0.012
C  C313  1  0.32212107  0.15026683  0.99999086  1  -0.056495  0.015701  -0.018855  -0.032257  0.00939  3.969654  0.012
C  C314  1  0.67786426  0.67787908  0.82815161  1  -0.032048  0.015693  -0.018975  -0.03227  0.009389  3.969539  0.012
C  C315  1  0.15028272  0.32213480  0.99999205  1  -0.039525  0.015677  -0.019088  -0.032383  0.009385  3.969536  0.012
C  C316  1  0.15028127  0.00000424  0.32213930  1  -0.040437  0.015683  -0.01901  -0.032509  0.009387  3.969772  0.012
C  C317  1  0.84972915  0.17185193  0.84971615  1  -0.020677  0.015734  -0.018993  -0.032429  0.009389  3.969755  0.012
C  C318  1  0.32212442  0.99998947  0.15027580  1  -0.055576  0.015698  -0.01898  -0.032148  0.00939  3.969311  0.012
C  C319  1  0.67786713  0.82814719  0.67787245  1  -0.032563  0.01569  -0.019085  -0.032671  0.009387  3.970524  0.012
C  C320  1  0.00000492  0.15028497  0.32213909  1  -0.040294  0.015688  -0.019058  -0.032468  0.00939  3.969749  0.012
C  C321  1  0.82814701  0.67787862  0.67788051  1  -0.03237  0.015695  -0.018816  -0.0325  0.00939  3.970393  0.012
C  C322  1  0.00000881  0.32213422  0.15027072  1  -0.055702  0.015699  -0.018859  -0.032381  0.009391  3.969706  0.012
C  C323  1  0.17185410  0.84972176  0.84973186  1  -0.019417  0.015721  -0.01895  -0.032437  0.009386  3.97008  0.012
C  C324  1  0.85918043  0.80130096  0.13767910  1  -0.083534  -5.9e-05  -0.08715  -0.092373  -0.000477  3.998669  0.0
C  C325  1  0.33636736  0.19869537  0.05787086  1  -0.007034  -9.3e-05  -0.087307  -0.092727  -0.000477  3.998598  0.0
C  C326  1  0.66361963  0.72151449  0.86233473  1  0.008198  -7.7e-05  -0.087215  -0.09248  -0.000477  3.998288  0.0
C  C327  1  0.14082351  0.27849740  0.94210996  1  -0.041446  -6.6e-05  -0.087079  -0.092241  -0.000476  3.998157  0.0
C  C328  1  0.19870992  0.05788687  0.33638465  1  -0.023039  -8.5e-05  -0.087056  -0.092327  -0.000477  3.998126  0.0
C  C329  1  0.80129781  0.13767409  0.85917542  1  -0.08337  -5.9e-05  -0.087206  -0.09264  -0.000477  3.998346  0.0
C  C330  1  0.27848767  0.94210581  0.14081916  1  -0.040052  -6.7e-05  -0.08712  -0.092468  -0.000477  3.998044  0.0
C  C331  1  0.72150385  0.86232286  0.66361861  1  0.006279  -7.8e-05  -0.087094  -0.09315  -0.000477  3.997942  0.0
C  C332  1  0.94211550  0.14082365  0.27849680  1  -0.040845  -6.7e-05  -0.087055  -0.092351  -0.000477  3.998223  0.0
C  C333  1  0.86232493  0.66362667  0.72151523  1  0.007852  -7.7e-05  -0.087255  -0.093335  -0.000476  3.998049  0.0
C  C334  1  0.05789303  0.33638235  0.19870340  1  -0.008847  -9.3e-05  -0.087148  -0.092284  -0.000478  3.997987  0.0
C  C335  1  0.13767526  0.85917845  0.80130205  1  -0.083629  -5.9e-05  -0.087213  -0.092596  -0.000477  3.998659  0.0
C  C336  1  0.05789041  0.19871319  0.33638690  1  -0.023048  -8.4e-05  -0.087064  -0.092183  -0.000477  3.997999  0.0
C  C337  1  0.13767198  0.80129171  0.85918380  1  -0.083757  -5.9e-05  -0.08713  -0.093351  -0.000477  3.998038  0.0
C  C338  1  0.94212376  0.27849797  0.14081663  1  -0.041596  -6.8e-05  -0.087178  -0.092271  -0.000478  3.998221  0.0
C  C339  1  0.86232749  0.72151317  0.66363091  1  0.007753  -7.7e-05  -0.087328  -0.093462  -0.000477  3.998224  0.0
C  C340  1  0.14081872  0.94211607  0.27850221  1  -0.041335  -6.7e-05  -0.087101  -0.092161  -0.000477  3.998306  0.0
C  C341  1  0.66362520  0.86233255  0.72150761  1  0.006407  -7.8e-05  -0.0872  -0.0936  -0.000477  3.99836  0.0
C  C342  1  0.33637319  0.05787573  0.19870580  1  -0.007308  -9.2e-05  -0.087254  -0.092802  -0.000477  3.99834  0.0
C  C343  1  0.85918294  0.13767088  0.80128875  1  -0.083843  -5.8e-05  -0.087058  -0.093296  -0.000476  3.998109  0.0
C  C344  1  0.80129354  0.85918491  0.13767975  1  -0.083697  -5.9e-05  -0.087134  -0.093187  -0.000477  3.998125  0.0
C  C345  1  0.19871172  0.33638260  0.05788134  1  -0.022143  -8.6e-05  -0.087124  -0.092558  -0.000478  3.998023  0.0
C  C346  1  0.72150162  0.66362708  0.86232949  1  0.005962  -7.8e-05  -0.087247  -0.092822  -0.000477  3.998406  0.0
C  C347  1  0.27848652  0.14080985  0.94210301  1  -0.041275  -6.7e-05  -0.087125  -0.092252  -0.000477  3.99773  0.0
C  C348  1  0.82234731  0.76460882  0.07106062  1  -0.040879  0.000619  -0.093348  -0.135595  0.000305  3.990476  0.001
C  C349  1  0.30644183  0.23539021  0.05773012  1  -0.034499  0.000624  -0.093163  -0.134611  0.000305  3.990761  0.001
C  C350  1  0.69354766  0.75129869  0.92895232  1  -0.060264  0.000633  -0.093334  -0.134818  0.000305  3.990978  0.001
C  C351  1  0.17764658  0.24870535  0.94224191  1  -0.046902  0.000629  -0.093326  -0.134868  0.000305  3.990768  0.001
C  C352  1  0.23539770  0.05774035  0.30645325  1  -0.03511  0.000623  -0.09341  -0.134908  0.000305  3.990933  0.001
C  C353  1  0.76460743  0.07105463  0.82233916  1  -0.041  0.000619  -0.093299  -0.135382  0.000305  3.990426  0.001
C  C354  1  0.24870211  0.94224668  0.17765142  1  -0.047768  0.00063  -0.093342  -0.134769  0.000305  3.990844  0.001
C  C355  1  0.75129189  0.92894206  0.69354475  1  -0.060703  0.000633  -0.093337  -0.134977  0.000305  3.991303  0.001
C  C356  1  0.94226012  0.17765356  0.24870925  1  -0.046747  0.00063  -0.09336  -0.134936  0.000305  3.991136  0.001
C  C357  1  0.92894486  0.69355146  0.75129871  1  -0.060521  0.000633  -0.093325  -0.135013  0.000305  3.991125  0.001
C  C358  1  0.05774899  0.30645219  0.23539496  1  -0.034495  0.000624  -0.093309  -0.134885  0.000305  3.990601  0.001
C  C359  1  0.07105369  0.82234564  0.76460740  1  -0.040689  0.000619  -0.093313  -0.13548  0.000305  3.990192  0.001
C  C360  1  0.05774794  0.23540013  0.30645629  1  -0.035045  0.000623  -0.093314  -0.134919  0.000305  3.990788  0.001
C  C361  1  0.07105323  0.76460009  0.82235104  1  -0.041207  0.000619  -0.093337  -0.135496  0.000305  3.990562  0.001
C  C362  1  0.94226290  0.24871023  0.17764984  1  -0.046661  0.00063  -0.093274  -0.134923  0.000305  3.990669  0.001
C  C363  1  0.92894623  0.75129505  0.69355496  1  -0.059366  0.000633  -0.093238  -0.134921  0.000305  3.991211  0.001
C  C364  1  0.17764715  0.94225243  0.24871100  1  -0.046964  0.000629  -0.093245  -0.134946  0.000305  3.990728  0.001
C  C365  1  0.69355293  0.92895164  0.75129300  1  -0.059825  0.000633  -0.093214  -0.134784  0.000305  3.991192  0.001
C  C366  1  0.30644484  0.05773304  0.23539481  1  -0.034538  0.000623  -0.093278  -0.134692  0.000305  3.991018  0.001
C  C367  1  0.82235362  0.07105518  0.76459709  1  -0.041274  0.000619  -0.093365  -0.135556  0.000305  3.990611  0.001
C  C368  1  0.76460077  0.82235062  0.07105954  1  -0.04115  0.000619  -0.093347  -0.1356  0.000305  3.990618  0.001
C  C369  1  0.23539794  0.30644937  0.05773114  1  -0.03476  0.000623  -0.09324  -0.134725  0.000305  3.990853  0.001
C  C370  1  0.75128934  0.69355395  0.92894826  1  -0.059655  0.000633  -0.093302  -0.134758  0.000305  3.991228  0.001
C  C371  1  0.24870253  0.17764623  0.94224527  1  -0.046773  0.00063  -0.0933  -0.134762  0.000305  3.990734  0.001
C  C372  1  0.77472946  0.77473381  0.03564251  1  0.017273  -0.001337  -0.005035  0.072998  -0.001479  3.985202  -0.001
C  C373  1  0.26089998  0.22526430  0.99998470  1  -0.08471  -0.001352  -0.005125  0.070829  -0.00148  3.987968  -0.001
C  C374  1  0.73909250  0.73909733  0.96436905  1  -0.024925  -0.00134  -0.005033  0.070268  -0.00148  3.987914  -0.001
C  C375  1  0.22526653  0.26090338  0.99998546  1  0.041497  -0.001328  -0.005044  0.070999  -0.00148  3.987683  -0.001
C  C376  1  0.22526627  0.99999430  0.26090802  1  0.041738  -0.001328  -0.00501  0.071069  -0.00148  3.987753  -0.001
C  C377  1  0.77473549  0.03563808  0.77472250  1  0.017143  -0.001337  -0.005023  0.072931  -0.001479  3.985076  -0.001
C  C378  1  0.26090030  0.99998844  0.22526879  1  -0.084805  -0.001352  -0.005032  0.070852  -0.00148  3.988116  -0.001
C  C379  1  0.73909687  0.96436479  0.73908791  1  -0.024662  -0.00134  -0.005091  0.070317  -0.00148  3.987505  -0.001
C  C380  1  0.00000311  0.22527140  0.26090943  1  -0.0846  -0.001352  -0.004998  0.071001  -0.001481  3.987724  -0.001
C  C381  1  0.96436210  0.73909394  0.73909786  1  0.004284  -0.00134  -0.005075  0.07041  -0.00148  3.987472  -0.001
C  C382  1  0.00000482  0.26090911  0.22527002  1  0.041583  -0.001329  -0.005062  0.07094  -0.001481  3.987586  -0.001
C  C383  1  0.03563641  0.77472809  0.77473383  1  -0.012179  -0.001337  -0.005103  0.072766  -0.001479  3.985145  -0.001
N  N384  1  0.66627690  0.66628253  0.50373512  1  -1.171406  0.036545  -0.310709  -0.17168  0.021265  3.528634  0.033
N  N385  1  0.83745447  0.33371736  0.99999505  1  -1.171438  0.036589  -0.310705  -0.171774  0.021265  3.528792  0.033
N  N386  1  0.16254561  0.16254780  0.49626994  1  -1.168236  0.036521  -0.310734  -0.171777  0.021255  3.528373  0.033
N  N387  1  0.33372027  0.83745028  0.99999722  1  -1.171468  0.036581  -0.310693  -0.171759  0.02126  3.5284  0.033
N  N388  1  0.33371993  0.99999630  0.83745278  1  -1.171602  0.03658  -0.310651  -0.171606  0.02126  3.528497  0.033
N  N389  1  0.66628037  0.50373485  0.66628280  1  -1.171431  0.036546  -0.310695  -0.171808  0.021265  3.52882  0.033
N  N390  1  0.83745549  0.00000191  0.33372352  1  -1.171102  0.036576  -0.310736  -0.171881  0.021257  3.528518  0.033
N  N391  1  0.16254929  0.49626769  0.16254180  1  -1.16837  0.036522  -0.310688  -0.171689  0.021257  3.528397  0.033
N  N392  1  0.00000026  0.33372422  0.83744601  1  -1.171038  0.03659  -0.310618  -0.171722  0.021265  3.528024  0.033
N  N393  1  0.49626617  0.16254644  0.16255023  1  -1.168374  0.03654  -0.310702  -0.171739  0.021266  3.528505  0.033
N  N394  1  0.00000180  0.83745059  0.33372654  1  -1.171139  0.036599  -0.310698  -0.171905  0.021271  3.528344  0.033
N  N395  1  0.50372914  0.66627894  0.66627975  1  -1.171185  0.036528  -0.310745  -0.171842  0.021255  3.528465  0.033
O  O396  1  0.00000103  0.00000585  0.39371606  1  -0.828128  -0.093143  -0.471411  -0.779371  -0.095249  2.228809  -0.078
O  O397  1  0.39372039  0.00000675  0.00000706  1  -0.828164  -0.093148  -0.471396  -0.779358  -0.095258  2.228674  -0.078
O  O398  1  0.60628189  0.60628618  0.60628920  1  -0.827457  -0.093133  -0.47142  -0.779424  -0.095256  2.228805  -0.078
O  O399  1  0.00000017  0.39371911  0.00001087  1  -0.828152  -0.093163  -0.471361  -0.779292  -0.095271  2.228644  -0.078
O  O400  1  0.93291669  0.87812735  0.38322514  1  -1.108505  0.060504  -0.290084  -0.524771  0.033748  2.385357  0.056
O  O401  1  0.50509381  0.12187212  0.05479189  1  -1.101887  0.060488  -0.290116  -0.52491  0.033741  2.385376  0.056
O  O402  1  0.49490083  0.54970205  0.61678018  1  -1.106932  0.060536  -0.290008  -0.524736  0.033754  2.385615  0.056
O  O403  1  0.06708511  0.45030211  0.94519415  1  -1.110957  0.060542  -0.290062  -0.524861  0.033756  2.385184  0.056
O  O404  1  0.12187486  0.05479569  0.50510325  1  -1.101754  0.060525  -0.290188  -0.524939  0.033759  2.385231  0.056
O  O405  1  0.87813326  0.38321992  0.93290532  1  -1.108118  0.060484  -0.289902  -0.524587  0.033736  2.385481  0.056
O  O406  1  0.45029796  0.94519953  0.06707394  1  -1.111229  0.0605  -0.290026  -0.524857  0.033736  2.385811  0.056
O  O407  1  0.54969040  0.61677940  0.49490848  1  -1.106439  0.060551  -0.289941  -0.524748  0.033759  2.385404  0.056
O  O408  1  0.94520793  0.06707992  0.45030002  1  -1.110955  0.060511  -0.290098  -0.524871  0.033742  2.385568  0.056
O  O409  1  0.61677236  0.49490825  0.54970012  1  -1.106456  0.060519  -0.290009  -0.524754  0.033746  2.385479  0.056
O  O410  1  0.05479928  0.50509302  0.12185800  1  -1.102473  0.060504  -0.290139  -0.524866  0.033753  2.385603  0.056
O  O411  1  0.38321948  0.93291208  0.87812686  1  -1.108511  0.060502  -0.290003  -0.524851  0.033747  2.385327  0.056
O  O412  1  0.05479375  0.12186964  0.50509265  1  -1.101832  0.060494  -0.289986  -0.524752  0.033741  2.385665  0.056
O  O413  1  0.38322295  0.87812374  0.93292111  1  -1.10903  0.060526  -0.290148  -0.524998  0.033761  2.385679  0.056
O  O414  1  0.94521202  0.45030090  0.06706803  1  -1.110221  0.060517  -0.29004  -0.524777  0.03375  2.385454  0.056
O  O415  1  0.61677424  0.54970097  0.49490907  1  -1.106427  0.060493  -0.290065  -0.52485  0.033731  2.385328  0.056
O  O416  1  0.06708199  0.94521198  0.45031113  1  -1.110669  0.060524  -0.290065  -0.524748  0.033748  2.385484  0.056
O  O417  1  0.49489868  0.61678004  0.54969966  1  -1.106771  0.060529  -0.290125  -0.524951  0.033749  2.385469  0.056
O  O418  1  0.50509199  0.05478488  0.12187621  1  -1.101009  0.060507  -0.289975  -0.524741  0.03375  2.385232  0.056
O  O419  1  0.93292671  0.38322101  0.87811421  1  -1.109052  0.060513  -0.290097  -0.524767  0.033752  2.385035  0.056
O  O420  1  0.87812795  0.93292182  0.38323012  1  -1.108603  0.06052  -0.290163  -0.524985  0.033758  2.385279  0.056
O  O421  1  0.12187357  0.50509334  0.05477765  1  -1.10122  0.060498  -0.289916  -0.524691  0.033743  2.385523  0.056
O  O422  1  0.54969340  0.49490951  0.61678474  1  -1.106373  0.060522  -0.289946  -0.524793  0.033742  2.385199  0.056
O  O423  1  0.45030095  0.06707120  0.94520717  1  -1.111082  0.06052  -0.290023  -0.524876  0.033749  2.385874  0.056
O  O424  1  0.93448157  0.87986965  0.27055647  1  -1.108452  0.068994  -0.289792  -0.526666  0.038182  2.405523  0.064
O  O425  1  0.39067720  0.12013154  0.05461251  1  -1.108173  0.069005  -0.289701  -0.526615  0.038179  2.405875  0.064
O  O426  1  0.60931317  0.66393560  0.72945477  1  -1.114543  0.069018  -0.289907  -0.526864  0.038181  2.40567  0.064
O  O427  1  0.06552685  0.33607304  0.94537438  1  -1.119745  0.069003  -0.289942  -0.526932  0.038172  2.405604  0.064
O  O428  1  0.12013910  0.05461863  0.39068878  1  -1.108111  0.068985  -0.289841  -0.526734  0.038166  2.405774  0.064
O  O429  1  0.87987411  0.27054545  0.93446680  1  -1.108453  0.068977  -0.289761  -0.526856  0.038173  2.405122  0.064
O  O430  1  0.33607445  0.94538069  0.06552585  1  -1.119939  0.069041  -0.289863  -0.526819  0.038193  2.405853  0.064
O  O431  1  0.66392153  0.72944710  0.60931834  1  -1.114922  0.069  -0.289884  -0.526966  0.038176  2.405293  0.064
O  O432  1  0.94538795  0.06553048  0.33607653  1  -1.120003  0.069051  -0.289775  -0.526632  0.038199  2.405689  0.064
O  O433  1  0.72945128  0.60932488  0.66393913  1  -1.115005  0.069007  -0.289784  -0.526901  0.038179  2.405691  0.064
O  O434  1  0.05462237  0.39068530  0.12012356  1  -1.108783  0.06903  -0.2899  -0.526847  0.038196  2.405582  0.064
O  O435  1  0.27055177  0.93447751  0.87987245  1  -1.108737  0.068985  -0.289861  -0.526846  0.038178  2.405456  0.064
O  O436  1  0.05461526  0.12014137  0.39068744  1  -1.107747  0.069034  -0.289726  -0.526551  0.038192  2.405785  0.064
O  O437  1  0.27055370  0.87986829  0.93448796  1  -1.10884  0.068959  -0.289881  -0.52692  0.038163  2.406102  0.064
O  O438  1  0.94539313  0.33607103  0.06551208  1  -1.121064  0.069023  -0.289792  -0.526776  0.038188  2.405405  0.064
O  O439  1  0.72945100  0.66393720  0.60932475  1  -1.1149  0.069034  -0.289757  -0.526865  0.038193  2.405837  0.064
O  O440  1  0.06552455  0.94539245  0.33608221  1  -1.119899  0.069012  -0.289783  -0.52664  0.03818  2.405323  0.064
O  O441  1  0.60931274  0.72945241  0.66393370  1  -1.11464  0.068998  -0.289842  -0.526774  0.038172  2.406263  0.064
O  O442  1  0.39067754  0.05460695  0.12013673  1  -1.107602  0.069016  -0.289932  -0.526975  0.038182  2.405247  0.064
O  O443  1  0.93448242  0.27054686  0.87984874  1  -1.1084  0.069009  -0.289978  -0.52701  0.038188  2.405668  0.064
O  O444  1  0.87986819  0.93448249  0.27055125  1  -1.10855  0.068957  -0.289813  -0.526833  0.038161  2.406054  0.064
O  O445  1  0.12013723  0.39068571  0.05459898  1  -1.107522  0.068979  -0.289906  -0.526857  0.038164  2.405283  0.064
O  O446  1  0.66392291  0.60931960  0.72945619  1  -1.114999  0.069018  -0.289891  -0.526929  0.038184  2.40549  0.064
O  O447  1  0.33607254  0.06551642  0.94538580  1  -1.119762  0.06903  -0.289889  -0.526783  0.038188  2.405316  0.064
