# generated using pymatgen
data_Tm2Cd3H36(C2O3)12
_symmetry_space_group_name_H-M   'P 1'
_cell_length_a   18.41521546
_cell_length_b   18.41524284
_cell_length_c   18.41523648
_cell_angle_alpha   60.00000073
_cell_angle_beta   60.00002388
_cell_angle_gamma   60.00007771
_symmetry_Int_Tables_number   1
_chemical_formula_structural   Tm2Cd3H36(C2O3)12
_chemical_formula_sum   'Tm8 Cd12 H144 C96 O144'
_cell_volume   4415.87623813
_cell_formula_units_Z   4
loop_
 _symmetry_equiv_pos_site_id
 _symmetry_equiv_pos_as_xyz
  1  'x, y, z'
loop_
 _atom_site_type_symbol
 _atom_site_label
 _atom_site_symmetry_multiplicity
 _atom_site_fract_x
 _atom_site_fract_y
 _atom_site_fract_z
 _atom_site_occupancy
 _atom_site_pbe_bader_charge
 _atom_site_pbe_bader_spin_density
 _atom_site_pbe_cm5_charge
 _atom_site_pbe_ddec_charge
 _atom_site_pbe_ddec_spin_density
 _atom_site_pbe_ddec_sum_bond_order
 _atom_site_pbe_magmom
Tm  Tm0  1  0.74999793  0.25000081  0.24999746  1  2.185587  0  1.558978  1.954685  0  2.294896  0
Tm  Tm1  1  0.25000216  0.24999354  0.25000581  1  2.181407  0  1.558998  1.954713  0  2.294852  0
Tm  Tm2  1  0.74999173  0.75001203  0.24999593  1  2.18135  0  1.558983  1.954731  0  2.294882  0
Tm  Tm3  1  0.74999197  0.24999973  0.75000401  1  2.181425  0  1.558955  1.954688  0  2.294878  0
Tm  Tm4  1  0.24999439  0.75000265  0.75000216  1  2.185487  0  1.558937  1.954678  0  2.294873  0
Tm  Tm5  1  0.75000743  0.74999895  0.74999415  1  2.181455  0  1.558968  1.954657  0  2.294945  0
Tm  Tm6  1  0.24998986  0.25001219  0.74999365  1  2.181482  0  1.558972  1.954747  0  2.294793  0
Tm  Tm7  1  0.24999571  0.74999692  0.25000306  1  2.18137  0  1.559011  1.954706  0  2.294848  0
Cd  Cd8  1  0.50000269  0.49999848  0.50000051  1  1.398964  0  0.801751  1.110937  0  2.210546  0
Cd  Cd9  1  0.50000043  0.50000328  0.00000112  1  1.398968  0  0.801753  1.110912  0  2.210498  0
Cd  Cd10  1  0.99999878  0.50000227  0.00000779  1  1.39897  0  0.80181  1.110985  0  2.210568  0
Cd  Cd11  1  0.49999842  0.00000122  0.99999409  1  1.397071  0  0.801805  1.110936  0  2.210624  0
Cd  Cd12  1  0.00000349  0.00000077  0.49999526  1  1.398954  0  0.801738  1.110929  0  2.210457  0
Cd  Cd13  1  0.49999899  0.99999809  0.50000478  1  1.398963  0  0.801764  1.110935  0  2.210406  0
Cd  Cd14  1  0.99999651  0.50000054  0.49999799  1  1.397068  0  0.801772  1.110917  0  2.210511  0
Cd  Cd15  1  0.00000368  0.00000041  0.99999960  1  1.398999  0  0.801777  1.110973  0  2.210336  0
Cd  Cd16  1  0.62500075  0.12499979  0.12499955  1  1.478402  0  0.823185  1.272643  0  1.956094  0
Cd  Cd17  1  0.87500072  0.37499983  0.37499905  1  1.478369  0  0.823156  1.272539  0  1.956211  0
Cd  Cd18  1  0.37499958  0.87500082  0.87499889  1  1.478397  0  0.823187  1.2726  0  1.956106  0
Cd  Cd19  1  0.12499968  0.62500302  0.62499773  1  1.478353  0  0.823158  1.272592  0  1.956178  0
H  H20  1  0.50478773  0.42591655  0.34823825  1  0.090124  0  0.110657  0.10417  0  0.983065  0
H  H21  1  0.27894015  0.49521293  0.07408618  1  0.075558  0  0.110611  0.104146  0  0.983122  0
H  H22  1  0.84823961  0.72105573  0.00478769  1  0.090876  0  0.110665  0.104204  0  0.983049  0
H  H23  1  0.57407659  0.15176382  0.77894655  1  0.079794  0  0.110638  0.104123  0  0.983069  0
H  H24  1  0.92591574  0.00478356  0.72105754  1  0.075423  0  0.110626  0.104158  0  0.983086  0
H  H25  1  0.65176345  0.07408411  0.49521261  1  0.090184  0  0.110616  0.104136  0  0.983086  0
H  H26  1  0.22105268  0.34824160  0.42592043  1  0.079717  0  0.11064  0.104155  0  0.98303  0
H  H27  1  0.99520910  0.77894098  0.15176129  1  0.090905  0  0.11064  0.104165  0  0.983093  0
H  H28  1  0.50478759  0.34824029  0.72105748  1  0.09087  0  0.110646  0.104181  0  0.983095  0
H  H29  1  0.57408551  0.49521217  0.15175907  1  0.09014  0  0.110655  0.104179  0  0.983035  0
H  H30  1  0.22105772  0.42591522  0.00478614  1  0.075343  0  0.110641  0.104179  0  0.983083  0
H  H31  1  0.65176249  0.77894508  0.07407879  1  0.079627  0  0.110637  0.104151  0  0.98301  0
H  H32  1  0.84824451  0.00478426  0.42591610  1  0.090122  0  0.110627  0.104188  0  0.983079  0
H  H33  1  0.27894246  0.15176082  0.49521170  1  0.090833  0  0.110635  0.104142  0  0.983104  0
H  H34  1  0.92591524  0.72105611  0.34824242  1  0.079629  0  0.110637  0.104172  0  0.983048  0
H  H35  1  0.99521267  0.07408240  0.77894261  1  0.075372  0  0.110644  0.104145  0  0.983061  0
H  H36  1  0.50478315  0.72105812  0.42591779  1  0.075503  0  0.11062  0.104183  0  0.983093  0
H  H37  1  0.99521339  0.15176178  0.07408002  1  0.090127  0  0.110638  0.104179  0  0.98303  0
H  H38  1  0.65176076  0.49521187  0.77894040  1  0.090835  0  0.110623  0.104163  0  0.983098  0
H  H39  1  0.57408296  0.77894213  0.49521215  1  0.075477  0  0.110627  0.104104  0  0.983099  0
H  H40  1  0.27894187  0.07407946  0.15176432  1  0.079637  0  0.110625  0.104143  0  0.983034  0
H  H41  1  0.22105546  0.00478618  0.34824308  1  0.090836  0  0.110641  0.1042  0  0.983045  0
H  H42  1  0.92591751  0.34824224  0.00478719  1  0.090124  0  0.110634  0.104177  0  0.983085  0
H  H43  1  0.84824093  0.42591655  0.72105555  1  0.079701  0  0.110654  0.104185  0  0.983031  0
H  H44  1  0.49521376  0.57408087  0.65175823  1  0.090126  0  0.110622  0.104155  0  0.983085  0
H  H45  1  0.72105671  0.50478639  0.92591835  1  0.075412  0  0.11065  0.104169  0  0.983067  0
H  H46  1  0.15175630  0.27894155  0.99521252  1  0.090784  0  0.110634  0.104146  0  0.983102  0
H  H47  1  0.42592108  0.84823847  0.22105421  1  0.079658  0  0.110641  0.104148  0  0.983017  0
H  H48  1  0.07408671  0.99521047  0.27894337  1  0.075485  0  0.110631  0.104173  0  0.983125  0
H  H49  1  0.34823985  0.92591512  0.50478756  1  0.090113  0  0.110632  0.104151  0  0.983098  0
H  H50  1  0.77894154  0.65176159  0.57408753  1  0.079457  0  0.11063  0.104143  0  0.983109  0
H  H51  1  0.00478398  0.22105672  0.84823866  1  0.090839  0  0.110638  0.104189  0  0.983021  0
H  H52  1  0.49521517  0.65175841  0.27894310  1  0.090747  0  0.110625  0.104174  0  0.983132  0
H  H53  1  0.42591722  0.50478541  0.84824000  1  0.090082  0  0.110634  0.104141  0  0.983071  0
H  H54  1  0.77894103  0.57408490  0.99521503  1  0.075516  0  0.110614  0.104139  0  0.983111  0
H  H55  1  0.34823770  0.22105756  0.92591777  1  0.07955  0  0.110648  0.104215  0  0.983011  0
H  H56  1  0.15175923  0.99521106  0.57408422  1  0.090163  0  0.110643  0.104163  0  0.983077  0
H  H57  1  0.72105583  0.84824209  0.50478781  1  0.090909  0  0.110654  0.104223  0  0.98303  0
H  H58  1  0.07408156  0.27894748  0.65175857  1  0.079714  0  0.110641  0.104147  0  0.983083  0
H  H59  1  0.00478781  0.92591619  0.22105771  1  0.07543  0  0.110631  0.104144  0  0.983113  0
H  H60  1  0.49520912  0.27894528  0.57408459  1  0.075417  0  0.110643  0.104173  0  0.983121  0
H  H61  1  0.00478714  0.84823794  0.92591713  1  0.090127  0  0.110646  0.104169  0  0.983081  0
H  H62  1  0.34824247  0.50478621  0.22105634  1  0.09085  0  0.110645  0.104168  0  0.983054  0
H  H63  1  0.42591703  0.22105705  0.50478541  1  0.075417  0  0.110644  0.104205  0  0.983027  0
H  H64  1  0.72105423  0.92592018  0.84823999  1  0.079718  0  0.110619  0.104131  0  0.983064  0
H  H65  1  0.77894138  0.99521095  0.65176034  1  0.090857  0  0.110634  0.104162  0  0.983107  0
H  H66  1  0.07407884  0.65176091  0.99521336  1  0.090114  0  0.110634  0.104149  0  0.98308  0
H  H67  1  0.15176372  0.57408295  0.27894167  1  0.079594  0  0.110634  0.104164  0  0.983086  0
H  H68  1  0.58107540  0.48516820  0.29139959  1  0.087023  0  0.11407  0.106882  0  0.970648  0
H  H69  1  0.35764737  0.41893018  0.01482743  1  0.092244  0  0.114066  0.106869  0  0.970577  0
H  H70  1  0.79139967  0.64235794  0.08107213  1  0.080693  0  0.114063  0.106886  0  0.970592  0
H  H71  1  0.51482748  0.20859559  0.85764821  1  0.095126  0  0.114076  0.106861  0  0.970599  0
H  H72  1  0.98517004  0.08107471  0.64235315  1  0.09242  0  0.11406  0.10688  0  0.970629  0
H  H73  1  0.70859763  0.01482548  0.41892921  1  0.086945  0  0.114066  0.106854  0  0.970582  0
H  H74  1  0.14235343  0.29139937  0.48517148  1  0.094842  0  0.114068  0.106853  0  0.9706  0
H  H75  1  0.91892643  0.85765044  0.20859430  1  0.080764  0  0.114069  0.106892  0  0.970585  0
H  H76  1  0.58106698  0.29140507  0.64235816  1  0.080782  0  0.114084  0.106926  0  0.970577  0
H  H77  1  0.51483039  0.41892783  0.20859390  1  0.087054  0  0.11409  0.10689  0  0.970608  0
H  H78  1  0.14235440  0.48516815  0.08107548  1  0.092392  0  0.114066  0.106922  0  0.970682  0
H  H79  1  0.70859444  0.85765115  0.01482320  1  0.095037  0  0.114077  0.106857  0  0.970592  0
H  H80  1  0.79140422  0.08107484  0.48516700  1  0.087093  0  0.114068  0.106903  0  0.970698  0
H  H81  1  0.35764622  0.20859672  0.41893198  1  0.080762  0  0.114075  0.106855  0  0.970552  0
H  H82  1  0.98516562  0.64235571  0.29139947  1  0.094979  0  0.114076  0.106939  0  0.970622  0
H  H83  1  0.91892635  0.01482447  0.85765043  1  0.092318  0  0.11405  0.106832  0  0.970573  0
H  H84  1  0.58107455  0.64235401  0.48516826  1  0.092411  0  0.114071  0.10693  0  0.970668  0
H  H85  1  0.91892732  0.20859916  0.01482340  1  0.086943  0  0.114053  0.106864  0  0.97054  0
H  H86  1  0.70859529  0.41892950  0.85764818  1  0.080747  0  0.114069  0.106864  0  0.970566  0
H  H87  1  0.51482488  0.85764802  0.41893192  1  0.092148  0  0.114081  0.106837  0  0.970643  0
H  H88  1  0.35764873  0.01482557  0.20859647  1  0.094963  0  0.114078  0.106878  0  0.970568  0
H  H89  1  0.14235683  0.08107002  0.29140390  1  0.080815  0  0.114076  0.106916  0  0.970601  0
H  H90  1  0.98517203  0.29139942  0.08107546  1  0.086825  0  0.11404  0.106857  0  0.970617  0
H  H91  1  0.79140014  0.48516984  0.64235529  1  0.094955  0  0.114059  0.106871  0  0.970633  0
H  H92  1  0.41892572  0.51482450  0.70860000  1  0.086927  0  0.114052  0.106871  0  0.970629  0
H  H93  1  0.64235660  0.58107624  0.98516822  1  0.092337  0  0.11407  0.106896  0  0.970642  0
H  H94  1  0.20859082  0.35765130  0.91893417  1  0.080719  0  0.114058  0.106871  0  0.970517  0
H  H95  1  0.48517430  0.79139778  0.14235204  1  0.094841  0  0.114054  0.106833  0  0.970598  0
H  H96  1  0.01483208  0.91892551  0.35764788  1  0.092311  0  0.114073  0.106916  0  0.97064  0
H  H97  1  0.29140286  0.98517095  0.58107192  1  0.087096  0  0.114066  0.106876  0  0.970616  0
H  H98  1  0.85764746  0.70859419  0.51482748  1  0.095141  0  0.114078  0.106862  0  0.970597  0
H  H99  1  0.08107250  0.14235855  0.79139916  1  0.080861  0  0.114068  0.1069  0  0.970585  0
H  H100  1  0.41893026  0.70859680  0.35764877  1  0.080646  0  0.114054  0.106896  0  0.970563  0
H  H101  1  0.48517517  0.58107149  0.79139993  1  0.086946  0  0.114046  0.106839  0  0.970598  0
H  H102  1  0.85765143  0.51482601  0.91893189  1  0.092375  0  0.114051  0.106874  0  0.970561  0
H  H103  1  0.29139458  0.14235769  0.98516900  1  0.094993  0  0.114056  0.106914  0  0.970654  0
H  H104  1  0.20859701  0.91892667  0.51482764  1  0.086957  0  0.114064  0.106874  0  0.970627  0
H  H105  1  0.64235548  0.79140200  0.58107561  1  0.080887  0  0.114082  0.10689  0  0.970642  0
H  H106  1  0.01482277  0.35765251  0.70859399  1  0.094998  0  0.114066  0.106865  0  0.970631  0
H  H107  1  0.08107488  0.98516835  0.14235491  1  0.092408  0  0.114073  0.106878  0  0.970639  0
H  H108  1  0.41892714  0.35765229  0.51482712  1  0.092537  0  0.114065  0.106864  0  0.97059  0
H  H109  1  0.08106866  0.79140144  0.98517475  1  0.087052  0  0.114068  0.10689  0  0.970577  0
H  H110  1  0.29140503  0.58107109  0.14235494  1  0.080858  0  0.114075  0.106888  0  0.970619  0
H  H111  1  0.48516528  0.14235546  0.58107981  1  0.09239  0  0.114061  0.106893  0  0.970679  0
H  H112  1  0.64235498  0.98516973  0.79139725  1  0.094942  0  0.114063  0.10688  0  0.970589  0
H  H113  1  0.85764873  0.91893364  0.70859491  1  0.080691  0  0.114093  0.106914  0  0.970528  0
H  H114  1  0.01483030  0.70859667  0.91892549  1  0.087029  0  0.114082  0.106886  0  0.970573  0
H  H115  1  0.20859657  0.51482716  0.35764706  1  0.094836  0  0.114061  0.106864  0  0.97061  0
H  H116  1  0.75288905  0.21696443  0.97498561  1  0.643742  0  0.298776  0.40212  0  0.920372  0
H  H117  1  0.94484320  0.24710856  0.28303570  1  0.641885  0  0.298765  0.402101  0  0.92034  0
H  H118  1  0.47498420  0.05515719  0.25289180  1  0.643421  0  0.298743  0.402077  0  0.920419  0
H  H119  1  0.78303272  0.52501371  0.44484103  1  0.638901  0  0.298739  0.402041  0  0.920432  0
H  H120  1  0.71696572  0.25288582  0.05515887  1  0.641913  0  0.298741  0.402051  0  0.92042  0
H  H121  1  0.02501330  0.28303349  0.24711246  1  0.643783  0  0.298794  0.402167  0  0.920297  0
H  H122  1  0.55515601  0.97498704  0.21696671  1  0.638877  0  0.298769  0.402138  0  0.920317  0
H  H123  1  0.74710999  0.44484187  0.52501372  1  0.643859  0  0.298817  0.402177  0  0.920278  0
H  H124  1  0.75288769  0.97498250  0.05515961  1  0.643745  0  0.298725  0.402095  0  0.920406  0
H  H125  1  0.78303290  0.24710869  0.52501411  1  0.643761  0  0.298784  0.402179  0  0.92028  0
H  H126  1  0.55516144  0.21696316  0.25288765  1  0.641995  0  0.298727  0.402042  0  0.920443  0
H  H127  1  0.02501047  0.44483975  0.28303681  1  0.638888  0  0.298769  0.402112  0  0.920376  0
H  H128  1  0.47498726  0.25288633  0.21696619  1  0.643795  0  0.298755  0.402109  0  0.920377  0
H  H129  1  0.94484157  0.52501209  0.24710946  1  0.643614  0  0.298735  0.40208  0  0.920423  0
H  H130  1  0.71696515  0.05515495  0.97498718  1  0.638865  0  0.298776  0.40216  0  0.920281  0
H  H131  1  0.74710832  0.28303334  0.44484427  1  0.641898  0  0.298749  0.402109  0  0.920322  0
H  H132  1  0.75288938  0.05515864  0.21696310  1  0.641996  0  0.298737  0.40203  0  0.920441  0
H  H133  1  0.74710783  0.52501362  0.28303421  1  0.643804  0  0.298773  0.402184  0  0.920262  0
H  H134  1  0.02501160  0.24711032  0.44484326  1  0.643848  0  0.298742  0.402055  0  0.920438  0
H  H135  1  0.78303704  0.44484351  0.24710741  1  0.641841  0  0.298741  0.402111  0  0.920329  0
H  H136  1  0.94484093  0.28303272  0.52501465  1  0.638897  0  0.298787  0.402147  0  0.920299  0
H  H137  1  0.55515788  0.25288876  0.97498498  1  0.643796  0  0.298736  0.402096  0  0.920403  0
H  H138  1  0.71696593  0.97498624  0.25288820  1  0.643755  0  0.298793  0.402153  0  0.920319  0
H  H139  1  0.47498576  0.21696484  0.05515940  1  0.63886  0  0.298782  0.402177  0  0.92027  0
H  H140  1  0.24711239  0.78303293  0.02501364  1  0.643753  0  0.298802  0.402164  0  0.920284  0
H  H141  1  0.05515557  0.75289048  0.71696587  1  0.641984  0  0.298756  0.402123  0  0.920313  0
H  H142  1  0.52501447  0.94484284  0.74711022  1  0.643481  0  0.298742  0.402064  0  0.920442  0
H  H143  1  0.21696363  0.47498943  0.55515951  1  0.638926  0  0.29874  0.402038  0  0.920473  0
H  H144  1  0.28303618  0.74710875  0.94484204  1  0.641937  0  0.298758  0.402067  0  0.920381  0
H  H145  1  0.97498316  0.71696867  0.75288764  1  0.643835  0  0.298737  0.402123  0  0.920361  0
H  H146  1  0.44484329  0.02501254  0.78303446  1  0.638861  0  0.298768  0.4021  0  0.920352  0
H  H147  1  0.25288884  0.55516049  0.47498579  1  0.643856  0  0.298785  0.402151  0  0.920338  0
H  H148  1  0.24710687  0.02501451  0.94484355  1  0.643874  0  0.298798  0.402156  0  0.920299  0
H  H149  1  0.21696745  0.75288869  0.47498555  1  0.643743  0  0.29877  0.402152  0  0.92032  0
H  H150  1  0.44484106  0.78303528  0.74711079  1  0.641963  0  0.298791  0.402122  0  0.920316  0
H  H151  1  0.97498507  0.55516259  0.71696669  1  0.638844  0  0.298737  0.402103  0  0.92037  0
H  H152  1  0.52501332  0.74711018  0.78303410  1  0.643751  0  0.2988  0.402167  0  0.920282  0
H  H153  1  0.05515842  0.47498709  0.75288810  1  0.643722  0  0.298735  0.402078  0  0.920428  0
H  H154  1  0.28303552  0.94484274  0.02501185  1  0.638881  0  0.29875  0.402048  0  0.920427  0
H  H155  1  0.25289238  0.71696438  0.55515668  1  0.641835  0  0.298772  0.402133  0  0.920305  0
H  H156  1  0.24711053  0.94483937  0.78303571  1  0.641832  0  0.298753  0.40209  0  0.920374  0
H  H157  1  0.25288671  0.47498554  0.71696814  1  0.64375  0  0.298763  0.402122  0  0.920369  0
H  H158  1  0.97498504  0.75288877  0.55516105  1  0.643821  0  0.298762  0.402154  0  0.920327  0
H  H159  1  0.21696563  0.55515509  0.75289402  1  0.641932  0  0.298754  0.402081  0  0.92036  0
H  H160  1  0.05515874  0.71696505  0.47498862  1  0.638912  0  0.298745  0.402078  0  0.920421  0
H  H161  1  0.44484044  0.74710984  0.02501615  1  0.643542  0  0.298736  0.402061  0  0.920452  0
H  H162  1  0.28303159  0.02501265  0.74711080  1  0.643819  0  0.298775  0.40213  0  0.920333  0
H  H163  1  0.52501001  0.78303664  0.94484472  1  0.638932  0  0.298733  0.402058  0  0.92043  0
C  C164  1  0.57590387  0.41862697  0.31814552  1  0.389385  0  -0.06298  -0.120287  0  3.884189  0
C  C165  1  0.31267700  0.42409760  0.08137220  1  0.40355  0  -0.062949  -0.120278  0  3.884005  0
C  C166  1  0.81814455  0.68732457  0.07590373  1  0.400119  0  -0.063025  -0.120417  0  3.884264  0
C  C167  1  0.58136846  0.18185409  0.81267985  1  0.40636  0  -0.062938  -0.120152  0  3.883825  0
C  C168  1  0.91863021  0.07590038  0.68732538  1  0.403477  0  -0.063019  -0.120388  0  3.884127  0
C  C169  1  0.68185526  0.08136876  0.42409776  1  0.389525  0  -0.062941  -0.12022  0  3.884027  0
C  C170  1  0.18732292  0.31814371  0.41863128  1  0.40676  0  -0.063011  -0.120324  0  3.88397  0
C  C171  1  0.92409483  0.81267896  0.18185498  1  0.40049  0  -0.062976  -0.120333  0  3.884099  0
C  C172  1  0.57590300  0.31814608  0.68732353  1  0.400326  0  -0.063073  -0.120506  0  3.884168  0
C  C173  1  0.58137446  0.42409551  0.18184838  1  0.389661  0  -0.062973  -0.120245  0  3.883965  0
C  C174  1  0.18732403  0.41862698  0.07590387  1  0.403707  0  -0.063038  -0.120545  0  3.884277  0
C  C175  1  0.68185695  0.81267881  0.08136540  1  0.406624  0  -0.063007  -0.12028  0  3.883915  0
C  C176  1  0.81814760  0.07590015  0.41862753  1  0.389681  0  -0.062988  -0.12043  0  3.884138  0
C  C177  1  0.31267694  0.18185699  0.42409788  1  0.400337  0  -0.062968  -0.120232  0  3.884081  0
C  C178  1  0.91862482  0.68732249  0.31814902  1  0.406679  0  -0.062977  -0.120409  0  3.884167  0
C  C179  1  0.92409681  0.08136792  0.81267905  1  0.403603  0  -0.062965  -0.120212  0  3.884052  0
C  C180  1  0.57590153  0.68732315  0.41862761  1  0.403475  0  -0.063028  -0.120534  0  3.884254  0
C  C181  1  0.92409599  0.18185512  0.08136891  1  0.389675  0  -0.062972  -0.12036  0  3.883965  0
C  C182  1  0.68185515  0.42409670  0.81267735  1  0.400346  0  -0.062982  -0.120351  0  3.883979  0
C  C183  1  0.58136530  0.81267865  0.42409948  1  0.403742  0  -0.06293  -0.120069  0  3.88399  0
C  C184  1  0.31267858  0.08136843  0.18185477  1  0.406764  0  -0.062962  -0.120277  0  3.883924  0
C  C185  1  0.18732374  0.07590122  0.31814825  1  0.400239  0  -0.062996  -0.120427  0  3.884188  0
C  C186  1  0.91863310  0.31813759  0.07590136  1  0.389974  0  -0.063041  -0.120464  0  3.884107  0
C  C187  1  0.81814995  0.41862742  0.68731952  1  0.406542  0  -0.06299  -0.120356  0  3.883983  0
C  C188  1  0.42409847  0.58136588  0.68186133  1  0.389864  0  -0.063037  -0.120467  0  3.884079  0
C  C189  1  0.68732225  0.57590302  0.91862664  1  0.403618  0  -0.062975  -0.120339  0  3.88425  0
C  C190  1  0.18185468  0.31267711  0.92409940  1  0.400638  0  -0.063033  -0.120388  0  3.883981  0
C  C191  1  0.41863162  0.81814301  0.18732235  1  0.406765  0  -0.062962  -0.120222  0  3.883942  0
C  C192  1  0.08137436  0.92409577  0.31267860  1  0.403647  0  -0.062944  -0.120348  0  3.884137  0
C  C193  1  0.31814914  0.91862723  0.57590322  1  0.389666  0  -0.062976  -0.12033  0  3.884049  0
C  C194  1  0.81267497  0.68185880  0.58136971  1  0.406679  0  -0.063067  -0.120391  0  3.884087  0
C  C195  1  0.07590256  0.18732197  0.81814874  1  0.400182  0  -0.062979  -0.12038  0  3.884039  0
C  C196  1  0.42410056  0.68185993  0.31267359  1  0.400541  0  -0.063014  -0.120497  0  3.8841  0
C  C197  1  0.41863023  0.57590185  0.81814497  1  0.389686  0  -0.062952  -0.120271  0  3.884136  0
C  C198  1  0.81267923  0.58137004  0.92409989  1  0.403364  0  -0.062934  -0.120316  0  3.883902  0
C  C199  1  0.31814596  0.18732220  0.91862607  1  0.406932  0  -0.063021  -0.120519  0  3.88426  0
C  C200  1  0.18185641  0.92409545  0.58137024  1  0.389694  0  -0.06299  -0.120376  0  3.884029  0
C  C201  1  0.68732013  0.81815121  0.57590555  1  0.399895  0  -0.062977  -0.120413  0  3.884132  0
C  C202  1  0.08136247  0.31267811  0.68185982  1  0.406621  0  -0.062975  -0.120248  0  3.884043  0
C  C203  1  0.07590379  0.91862644  0.18732205  1  0.403546  0  -0.062937  -0.12024  0  3.884195  0
C  C204  1  0.42409678  0.31267870  0.58136762  1  0.403396  0  -0.063012  -0.120319  0  3.884063  0
C  C205  1  0.07590355  0.81814905  0.91862809  1  0.389592  0  -0.062949  -0.12029  0  3.884132  0
C  C206  1  0.31814954  0.57590284  0.18732179  1  0.400288  0  -0.062974  -0.120307  0  3.884007  0
C  C207  1  0.41862322  0.18732101  0.57590575  1  0.403724  0  -0.062958  -0.120363  0  3.884167  0
C  C208  1  0.68732223  0.91862723  0.81814614  1  0.406634  0  -0.062989  -0.120377  0  3.883963  0
C  C209  1  0.81267603  0.92409882  0.68185997  1  0.40049  0  -0.063016  -0.12041  0  3.883925  0
C  C210  1  0.08136923  0.68185524  0.92409888  1  0.389696  0  -0.063013  -0.120308  0  3.883918  0
C  C211  1  0.18185697  0.58136892  0.31267726  1  0.406819  0  -0.063021  -0.120417  0  3.884081  0
C  C212  1  0.62055635  0.35868457  0.38913923  1  1.620249  0  0.221772  0.634887  0  4.158594  0
C  C213  1  0.36838121  0.37944360  0.14131578  1  1.607129  0  0.221733  0.634803  0  4.158601  0
C  C214  1  0.88913638  0.63162243  0.12055834  1  1.62579  0  0.221836  0.635047  0  4.158313  0
C  C215  1  0.64131224  0.11085418  0.86838364  1  1.614928  0  0.221712  0.634838  0  4.158684  0
C  C216  1  0.85868527  0.12055253  0.63161772  1  1.607167  0  0.221804  0.634917  0  4.158358  0
C  C217  1  0.61086024  0.14130985  0.37944855  1  1.619847  0  0.221708  0.63479  0  4.15875  0
C  C218  1  0.13161671  0.38914448  0.35868575  1  1.615013  0  0.221771  0.63489  0  4.158435  0
C  C219  1  0.87944593  0.86838173  0.11085949  1  1.625505  0  0.221714  0.634859  0  4.158706  0
C  C220  1  0.62055511  0.38914255  0.63161922  1  1.62564  0  0.221824  0.635037  0  4.158419  0
C  C221  1  0.64131591  0.37944763  0.11085645  1  1.619965  0  0.221705  0.634754  0  4.158711  0
C  C222  1  0.13161940  0.35868143  0.12055494  1  1.60708  0  0.221851  0.635111  0  4.158334  0
C  C223  1  0.61085373  0.86838683  0.14130878  1  1.614501  0  0.221744  0.6349  0  4.158545  0
C  C224  1  0.88914442  0.12055456  0.35868077  1  1.620045  0  0.221782  0.634933  0  4.15834  0
C  C225  1  0.36838261  0.11085906  0.37944663  1  1.626266  0  0.221706  0.634841  0  4.158412  0
C  C226  1  0.85867915  0.63162339  0.38914015  1  1.615273  0  0.22182  0.634985  0  4.158489  0
C  C227  1  0.87944831  0.14131199  0.86838250  1  1.607052  0  0.221723  0.634829  0  4.158516  0
C  C228  1  0.62055399  0.63162300  0.35867962  1  1.606996  0  0.221797  0.634957  0  4.158453  0
C  C229  1  0.87944739  0.11085672  0.14131213  1  1.62007  0  0.221698  0.634849  0  4.158538  0
C  C230  1  0.61085914  0.37944418  0.86838357  1  1.625719  0  0.22179  0.634955  0  4.158666  0
C  C231  1  0.64130999  0.86838433  0.37944756  1  1.606729  0  0.22166  0.634779  0  4.158604  0
C  C232  1  0.36838189  0.14131269  0.11085751  1  1.614957  0  0.221747  0.634877  0  4.158544  0
C  C233  1  0.13162105  0.12055334  0.38914167  1  1.625453  0  0.221738  0.634836  0  4.158616  0
C  C234  1  0.85868570  0.38914463  0.12055537  1  1.62028  0  0.221803  0.634965  0  4.158092  0
C  C235  1  0.88914332  0.35868370  0.63161903  1  1.614771  0  0.22174  0.634869  0  4.158408  0
C  C236  1  0.37944500  0.64131380  0.61085578  1  1.620242  0  0.22182  0.634956  0  4.158226  0
C  C237  1  0.63162187  0.62055541  0.85868418  1  1.606988  0  0.22176  0.634914  0  4.158579  0
C  C238  1  0.11085236  0.36838723  0.87944729  1  1.625766  0  0.221768  0.634936  0  4.1583  0
C  C239  1  0.35868759  0.88914158  0.13161683  1  1.614916  0  0.221757  0.634867  0  4.158338  0
C  C240  1  0.14131763  0.87944739  0.36837884  1  1.606932  0  0.221792  0.634938  0  4.1585  0
C  C241  1  0.38914264  0.85868571  0.62055240  1  1.61989  0  0.221712  0.634848  0  4.158586  0
C  C242  1  0.86838203  0.61085887  0.64131421  1  1.615134  0  0.221788  0.634973  0  4.158465  0
C  C243  1  0.12055565  0.13162556  0.88913634  1  1.625454  0  0.221777  0.634882  0  4.158542  0
C  C244  1  0.37944747  0.61085488  0.36838346  1  1.62622  0  0.221778  0.634839  0  4.158109  0
C  C245  1  0.35868887  0.62055200  0.88914184  1  1.619933  0  0.221678  0.634786  0  4.158527  0
C  C246  1  0.86838323  0.64131497  0.87945007  1  1.60687  0  0.221649  0.634767  0  4.158538  0
C  C247  1  0.38913653  0.13162543  0.85868010  1  1.615  0  0.221743  0.634881  0  4.158644  0
C  C248  1  0.11085931  0.87944401  0.64131365  1  1.620077  0  0.221794  0.63503  0  4.158517  0
C  C249  1  0.63162210  0.88914267  0.62055362  1  1.625936  0  0.221845  0.634999  0  4.158498  0
C  C250  1  0.14130979  0.36838971  0.61085320  1  1.614653  0  0.221709  0.634777  0  4.158535  0
C  C251  1  0.12055464  0.85868472  0.13162189  1  1.606981  0  0.221768  0.634866  0  4.158638  0
C  C252  1  0.37944319  0.36838641  0.64131318  1  1.606728  0  0.221828  0.63499  0  4.158406  0
C  C253  1  0.12055278  0.88914047  0.85868922  1  1.619996  0  0.221691  0.634853  0  4.158753  0
C  C254  1  0.38914338  0.62055428  0.13162148  1  1.625459  0  0.221798  0.634937  0  4.158366  0
C  C255  1  0.35867821  0.13162695  0.62055767  1  1.606786  0  0.221738  0.634913  0  4.158576  0
C  C256  1  0.63161689  0.85868419  0.88914488  1  1.614976  0  0.221789  0.634884  0  4.158496  0
C  C257  1  0.86838501  0.87944214  0.61086083  1  1.625818  0  0.221831  0.635046  0  4.158176  0
C  C258  1  0.14131530  0.61085447  0.87944923  1  1.620015  0  0.221771  0.634896  0  4.158377  0
C  C259  1  0.11085753  0.64131200  0.36838380  1  1.615301  0  0.221784  0.635003  0  4.158502  0
O  O260  1  0.61978550  0.38021382  0.24999874  1  -1.085541  0  -0.279565  -0.259925  0  2.778806  0
O  O261  1  0.25000263  0.38021429  0.11978326  1  -1.090635  0  -0.279518  -0.259811  0  2.778932  0
O  O262  1  0.74999797  0.75000538  0.11977997  1  -1.100799  0  -0.279491  -0.259866  0  2.779073  0
O  O263  1  0.61978295  0.24999820  0.75000206  1  -1.100738  0  -0.279561  -0.259943  0  2.778907  0
O  O264  1  0.88021559  0.11978052  0.75000239  1  -1.09056  0  -0.27948  -0.259888  0  2.778949  0
O  O265  1  0.75000448  0.11978057  0.38021248  1  -1.085461  0  -0.279531  -0.259837  0  2.778809  0
O  O266  1  0.25000352  0.25000019  0.38021617  1  -1.100762  0  -0.279532  -0.259879  0  2.779003  0
O  O267  1  0.88020889  0.75000433  0.25000297  1  -1.100829  0  -0.27952  -0.259862  0  2.778907  0
O  O268  1  0.61977881  0.75000755  0.38021386  1  -1.090466  0  -0.279525  -0.259851  0  2.778909  0
O  O269  1  0.88021822  0.25000289  0.11977920  1  -1.085742  0  -0.279511  -0.259754  0  2.779062  0
O  O270  1  0.75000322  0.38021266  0.75000152  1  -1.100619  0  -0.279519  -0.259809  0  2.778766  0
O  O271  1  0.25000359  0.11978027  0.25000129  1  -1.100761  0  -0.27953  -0.259856  0  2.778924  0
O  O272  1  0.38021897  0.61978114  0.74999989  1  -1.085703  0  -0.279476  -0.259711  0  2.778976  0
O  O273  1  0.75000528  0.61978195  0.88021397  1  -1.090488  0  -0.27952  -0.259821  0  2.778731  0
O  O274  1  0.24999867  0.25000891  0.88021313  1  -1.100862  0  -0.279454  -0.259756  0  2.778967  0
O  O275  1  0.38021918  0.75000095  0.24999937  1  -1.100743  0  -0.279513  -0.259821  0  2.779015  0
O  O276  1  0.11978645  0.88021311  0.24999999  1  -1.090558  0  -0.27958  -0.259869  0  2.778875  0
O  O277  1  0.25000125  0.88021350  0.61978444  1  -1.085517  0  -0.27954  -0.259831  0  2.778832  0
O  O278  1  0.75000443  0.75000152  0.61978287  1  -1.100639  0  -0.279507  -0.259766  0  2.778927  0
O  O279  1  0.11977727  0.25001035  0.74999824  1  -1.100791  0  -0.279575  -0.259919  0  2.779023  0
O  O280  1  0.38020920  0.25000789  0.61978207  1  -1.090558  0  -0.279532  -0.259925  0  2.778918  0
O  O281  1  0.11978499  0.74999734  0.88021673  1  -1.085478  0  -0.279552  -0.259925  0  2.778863  0
O  O282  1  0.25000370  0.61978151  0.25000076  1  -1.10071  0  -0.279549  -0.259826  0  2.778857  0
O  O283  1  0.75000630  0.88021360  0.75000232  1  -1.100801  0  -0.279558  -0.259804  0  2.778976  0
O  O284  1  0.58735433  0.37499363  0.46019958  1  -1.185938  0  -0.325742  -0.580462  0  2.312852  0
O  O285  1  0.42254978  0.41265226  0.12500550  1  -1.180118  0  -0.325743  -0.580473  0  2.312786  0
O  O286  1  0.96020169  0.57745241  0.08735357  1  -1.189612  0  -0.325812  -0.580574  0  2.312655  0
O  O287  1  0.62500405  0.03979471  0.92254559  1  -1.19029  0  -0.325686  -0.580402  0  2.313126  0
O  O288  1  0.87499133  0.08734863  0.57745135  1  -1.180139  0  -0.325741  -0.580438  0  2.312774  0
O  O289  1  0.53979742  0.12500717  0.41264855  1  -1.185922  0  -0.325698  -0.580396  0  2.312936  0
O  O290  1  0.07745096  0.46020533  0.37499163  1  -1.190281  0  -0.32571  -0.580402  0  2.312922  0
O  O291  1  0.91264661  0.92254758  0.03979523  1  -1.189764  0  -0.325673  -0.580348  0  2.312781  0
O  O292  1  0.58735258  0.46020252  0.57745287  1  -1.189739  0  -0.325714  -0.580449  0  2.312957  0
O  O293  1  0.62500837  0.41264801  0.03979418  1  -1.186142  0  -0.325703  -0.5804  0  2.312907  0
O  O294  1  0.07745449  0.37499080  0.08735151  1  -1.180247  0  -0.325703  -0.580445  0  2.312934  0
O  O295  1  0.53979289  0.92254507  0.12500296  1  -1.189856  0  -0.325756  -0.580519  0  2.313192  0
O  O296  1  0.96020693  0.08735234  0.37499330  1  -1.18611  0  -0.325737  -0.580498  0  2.31279  0
O  O297  1  0.42255171  0.03979390  0.41265097  1  -1.189753  0  -0.325679  -0.580424  0  2.312776  0
O  O298  1  0.87499115  0.57745032  0.46020361  1  -1.190403  0  -0.325807  -0.580602  0  2.312763  0
O  O299  1  0.91265223  0.12500578  0.92254971  1  -1.180088  0  -0.325761  -0.580492  0  2.31282  0
O  O300  1  0.58734756  0.57745470  0.37499208  1  -1.180156  0  -0.325759  -0.580496  0  2.312746  0
O  O301  1  0.91265120  0.03979268  0.12500430  1  -1.186236  0  -0.3257  -0.580458  0  2.312924  0
O  O302  1  0.53979785  0.41264538  0.92254582  1  -1.189786  0  -0.325693  -0.580397  0  2.312949  0
O  O303  1  0.62500452  0.92254863  0.41265360  1  -1.17979  0  -0.325704  -0.580414  0  2.312919  0
O  O304  1  0.42254682  0.12500454  0.03979376  1  -1.190226  0  -0.325737  -0.580464  0  2.312874  0
O  O305  1  0.07745164  0.08735247  0.46020500  1  -1.189626  0  -0.325737  -0.580425  0  2.312888  0
O  O306  1  0.87499822  0.46020407  0.08735485  1  -1.186173  0  -0.325681  -0.580392  0  2.312792  0
O  O307  1  0.96020496  0.37499500  0.57744653  1  -1.190076  0  -0.325711  -0.580445  0  2.312813  0
O  O308  1  0.41265022  0.62500360  0.53979270  1  -1.186227  0  -0.325717  -0.580483  0  2.312858  0
O  O309  1  0.57745450  0.58735448  0.87498952  1  -1.180176  0  -0.325757  -0.580493  0  2.312801  0
O  O310  1  0.03978825  0.42255409  0.91265203  1  -1.18931  0  -0.32575  -0.580497  0  2.312805  0
O  O311  1  0.37499370  0.96020549  0.07744854  1  -1.190202  0  -0.325717  -0.580394  0  2.312753  0
O  O312  1  0.12500803  0.91264993  0.42254746  1  -1.180098  0  -0.32575  -0.580505  0  2.312921  0
O  O313  1  0.46020285  0.87499447  0.58735225  1  -1.186083  0  -0.325717  -0.580435  0  2.312927  0
O  O314  1  0.92254633  0.53979441  0.62500674  1  -1.19052  0  -0.325709  -0.580451  0  2.312859  0
O  O315  1  0.08735247  0.07745395  0.96020022  1  -1.189609  0  -0.325837  -0.580587  0  2.312694  0
O  O316  1  0.41265322  0.53978945  0.42255340  1  -1.189668  0  -0.325753  -0.580439  0  2.312612  0
O  O317  1  0.37499688  0.58734991  0.96020537  1  -1.186029  0  -0.325667  -0.580389  0  2.312908  0
O  O318  1  0.92254811  0.62500881  0.91265697  1  -1.179895  0  -0.325706  -0.580443  0  2.312893  0
O  O319  1  0.46020098  0.07745233  0.87499252  1  -1.190307  0  -0.325797  -0.580522  0  2.31265  0
O  O320  1  0.03979566  0.91264510  0.62500938  1  -1.186068  0  -0.325725  -0.580473  0  2.312865  0
O  O321  1  0.57745195  0.96020243  0.58735640  1  -1.189813  0  -0.325755  -0.580503  0  2.312946  0
O  O322  1  0.12500348  0.42255219  0.53979199  1  -1.189905  0  -0.325669  -0.580313  0  2.312939  0
O  O323  1  0.08735477  0.87498847  0.07745640  1  -1.180185  0  -0.325749  -0.580481  0  2.312876  0
O  O324  1  0.41265233  0.42255089  0.62500581  1  -1.1797  0  -0.325755  -0.580473  0  2.312845  0
O  O325  1  0.08735529  0.96020106  0.87499285  1  -1.186129  0  -0.325739  -0.580459  0  2.31299  0
O  O326  1  0.46020576  0.58735091  0.07744834  1  -1.189658  0  -0.325744  -0.580529  0  2.31285  0
O  O327  1  0.37498694  0.07745506  0.58735794  1  -1.17999  0  -0.325753  -0.580525  0  2.312685  0
O  O328  1  0.57744957  0.87499539  0.96020331  1  -1.190222  0  -0.325689  -0.580377  0  2.312937  0
O  O329  1  0.92255144  0.91265306  0.53978976  1  -1.18961  0  -0.325799  -0.580542  0  2.312627  0
O  O330  1  0.12500760  0.53979225  0.91265171  1  -1.186194  0  -0.325701  -0.58041  0  2.31295  0
O  O331  1  0.03979676  0.62500808  0.42254538  1  -1.190563  0  -0.325657  -0.580389  0  2.31298  0
O  O332  1  0.69048027  0.29303173  0.37322082  1  -1.188244  0  -0.384867  -0.638892  0  2.304914  0
O  O333  1  0.35674234  0.30951722  0.20696053  1  -1.185007  0  -0.384741  -0.638742  0  2.305083  0
O  O334  1  0.87321742  0.64326534  0.19048360  1  -1.187226  0  -0.384851  -0.638957  0  2.304955  0
O  O335  1  0.70696334  0.12677575  0.85674065  1  -1.185049  0  -0.384802  -0.638875  0  2.304929  0
O  O336  1  0.79303802  0.19048093  0.64326165  1  -1.184974  0  -0.384793  -0.638837  0  2.304928  0
O  O337  1  0.62678178  0.20695861  0.30951834  1  -1.188142  0  -0.384842  -0.638872  0  2.304984  0
O  O338  1  0.14326197  0.37322028  0.29303640  1  -1.185124  0  -0.384822  -0.638897  0  2.304868  0
O  O339  1  0.80951591  0.85674262  0.12678000  1  -1.187272  0  -0.384846  -0.638916  0  2.304982  0
O  O340  1  0.69048395  0.37321963  0.64326194  1  -1.187329  0  -0.38486  -0.638948  0  2.304885  0
O  O341  1  0.70696438  0.30951824  0.12677552  1  -1.188265  0  -0.384804  -0.638814  0  2.304957  0
O  O342  1  0.14326809  0.29302789  0.19048028  1  -1.184912  0  -0.384892  -0.639041  0  2.304824  0
O  O343  1  0.62677759  0.85674433  0.20695839  1  -1.185019  0  -0.384748  -0.63878  0  2.304737  0
O  O344  1  0.87322662  0.19047756  0.29302949  1  -1.188344  0  -0.38479  -0.638835  0  2.304864  0
O  O345  1  0.35674010  0.12678073  0.30951824  1  -1.18799  0  -0.384824  -0.638888  0  2.304956  0
O  O346  1  0.79303142  0.64326496  0.37322062  1  -1.185307  0  -0.384796  -0.638847  0  2.304977  0
O  O347  1  0.80951740  0.20695894  0.85674191  1  -1.18493  0  -0.384736  -0.638771  0  2.304896  0
O  O348  1  0.69047523  0.64327075  0.29302919  1  -1.184894  0  -0.384813  -0.638863  0  2.304964  0
O  O349  1  0.80951870  0.12678079  0.20695810  1  -1.188147  0  -0.384774  -0.638804  0  2.304994  0
O  O350  1  0.62677990  0.30951770  0.85673809  1  -1.187342  0  -0.384875  -0.638953  0  2.305  0
O  O351  1  0.70695618  0.85674567  0.30951695  1  -1.184961  0  -0.38473  -0.638853  0  2.30496  0
O  O352  1  0.35674024  0.20695906  0.12678106  1  -1.185056  0  -0.384775  -0.638795  0  2.304932  0
O  O353  1  0.14326200  0.19048066  0.37322263  1  -1.187244  0  -0.384821  -0.638859  0  2.304931  0
O  O354  1  0.79303531  0.37321720  0.19048373  1  -1.188267  0  -0.384859  -0.638953  0  2.304894  0
O  O355  1  0.87322224  0.29303330  0.64326354  1  -1.185193  0  -0.384791  -0.638883  0  2.304844  0
O  O356  1  0.30951702  0.70696148  0.62678274  1  -1.188207  0  -0.384807  -0.638844  0  2.304909  0
O  O357  1  0.64326412  0.69048191  0.79303459  1  -1.184843  0  -0.384822  -0.638892  0  2.304912  0
O  O358  1  0.12677804  0.35674778  0.80951584  1  -1.188069  0  -0.384732  -0.638831  0  2.304918  0
O  O359  1  0.29303838  0.87321756  0.14326236  1  -1.185129  0  -0.384806  -0.638911  0  2.304914  0
O  O360  1  0.20696641  0.80951725  0.35674044  1  -1.184886  0  -0.384825  -0.638869  0  2.304786  0
O  O361  1  0.37322265  0.79303524  0.69047877  1  -1.188222  0  -0.384783  -0.638837  0  2.304839  0
O  O362  1  0.85674474  0.62678019  0.70696046  1  -1.18517  0  -0.384817  -0.638905  0  2.305005  0
O  O363  1  0.19047719  0.14326921  0.87322044  1  -1.187201  0  -0.384771  -0.638789  0  2.305015  0
O  O364  1  0.30951819  0.62678279  0.35674019  1  -1.187993  0  -0.384778  -0.638774  0  2.305007  0
O  O365  1  0.29303741  0.69048057  0.87321993  1  -1.188148  0  -0.384788  -0.638846  0  2.304859  0
O  O366  1  0.85674480  0.70696138  0.80952159  1  -1.184992  0  -0.384672  -0.638742  0  2.305026  0
O  O367  1  0.37321741  0.14326832  0.79303400  1  -1.185193  0  -0.384791  -0.638888  0  2.305098  0
O  O368  1  0.12678034  0.80951664  0.70696342  1  -1.188305  0  -0.384836  -0.638943  0  2.304995  0
O  O369  1  0.64326707  0.87322346  0.69047977  1  -1.187209  0  -0.384877  -0.638899  0  2.30477  0
O  O370  1  0.20695724  0.35674678  0.62678037  1  -1.185135  0  -0.384754  -0.638789  0  2.304914  0
O  O371  1  0.19048069  0.79303291  0.14326420  1  -1.184817  0  -0.38485  -0.638893  0  2.304902  0
O  O372  1  0.30951351  0.35674651  0.70695955  1  -1.185001  0  -0.384767  -0.638876  0  2.304958  0
O  O373  1  0.19048106  0.87321925  0.79303883  1  -1.18816  0  -0.384818  -0.638887  0  2.304903  0
O  O374  1  0.37322562  0.69047832  0.14326441  1  -1.187294  0  -0.384813  -0.638853  0  2.304799  0
O  O375  1  0.29302658  0.14327104  0.69047699  1  -1.185046  0  -0.384817  -0.638841  0  2.304999  0
O  O376  1  0.64326778  0.79303186  0.87322203  1  -1.185258  0  -0.384841  -0.63888  0  2.304871  0
O  O377  1  0.85674661  0.80951412  0.62678268  1  -1.187681  0  -0.384769  -0.638931  0  2.305105  0
O  O378  1  0.20696614  0.62677583  0.80952183  1  -1.188163  0  -0.38478  -0.638848  0  2.304857  0
O  O379  1  0.12678297  0.70696133  0.35674000  1  -1.185132  0  -0.384901  -0.639013  0  2.304928  0
O  O380  1  0.71347632  0.21343827  0.03654877  1  -1.264602  0  -0.587978  -0.790874  0  2.059021  0
O  O381  1  0.96344837  0.28656375  0.28652042  1  -1.264607  0  -0.588012  -0.790929  0  2.058951  0
O  O382  1  0.53653353  0.03654794  0.21344406  1  -1.261901  0  -0.588001  -0.790929  0  2.059018  0
O  O383  1  0.78654021  0.46345781  0.46345869  1  -1.262323  0  -0.588025  -0.790875  0  2.058989  0
O  O384  1  0.71345071  0.03653561  0.03654471  1  -1.262235  0  -0.587984  -0.790959  0  2.058979  0
O  O385  1  0.78656358  0.28651725  0.46344887  1  -1.26465  0  -0.588003  -0.790974  0  2.058931  0
O  O386  1  0.53654722  0.21346474  0.21344923  1  -1.26471  0  -0.587939  -0.790848  0  2.059013  0
O  O387  1  0.96345299  0.46346062  0.28655059  1  -1.262089  0  -0.587957  -0.790857  0  2.059047  0
O  O388  1  0.71345619  0.03654199  0.21345920  1  -1.264673  0  -0.588006  -0.790869  0  2.059007  0
O  O389  1  0.78652128  0.46344992  0.28656116  1  -1.264609  0  -0.587965  -0.790958  0  2.05895  0
O  O390  1  0.96345821  0.28654408  0.46345793  1  -1.262324  0  -0.588007  -0.790861  0  2.059025  0
O  O391  1  0.53654620  0.21344980  0.03653551  1  -1.262302  0  -0.587995  -0.790985  0  2.058965  0
O  O392  1  0.28654111  0.78654252  0.96345771  1  -1.26462  0  -0.588038  -0.790916  0  2.058942  0
O  O393  1  0.03654961  0.71343777  0.71348012  1  -1.264785  0  -0.58796  -0.790922  0  2.058963  0
O  O394  1  0.46346641  0.96345010  0.78655667  1  -1.261988  0  -0.587963  -0.790841  0  2.0591  0
O  O395  1  0.21345983  0.53654360  0.53654190  1  -1.262356  0  -0.588001  -0.790898  0  2.059052  0
O  O396  1  0.28653961  0.96345932  0.96345811  1  -1.262349  0  -0.588012  -0.790871  0  2.059012  0
O  O397  1  0.21344551  0.71347257  0.53654761  1  -1.264565  0  -0.588018  -0.790979  0  2.059015  0
O  O398  1  0.46345714  0.78653989  0.78654383  1  -1.264609  0  -0.588066  -0.790967  0  2.058944  0
O  O399  1  0.03654564  0.53653937  0.71344951  1  -1.262162  0  -0.587948  -0.790875  0  2.058906  0
O  O400  1  0.28655832  0.96344890  0.78652548  1  -1.264611  0  -0.587979  -0.790909  0  2.058981  0
O  O401  1  0.21347483  0.53654972  0.71344314  1  -1.264661  0  -0.587983  -0.790875  0  2.058917  0
O  O402  1  0.03654568  0.71346660  0.53653886  1  -1.262292  0  -0.587983  -0.790947  0  2.059051  0
O  O403  1  0.46345050  0.78655478  0.96346592  1  -1.262061  0  -0.587936  -0.7908  0  2.059034  0
