# generated using pymatgen
data_Mn2H42C34N6O11
_symmetry_space_group_name_H-M   'P 1'
_cell_length_a   12.61477313
_cell_length_b   17.33830882
_cell_length_c   18.33426023
_cell_angle_alpha   90.00018950
_cell_angle_beta   90.00000239
_cell_angle_gamma   98.77300848
_symmetry_Int_Tables_number   1
_chemical_formula_structural   Mn2H42C34N6O11
_chemical_formula_sum   'Mn8 H168 C136 N24 O44'
_cell_volume   3963.13179733
_cell_formula_units_Z   4
loop_
 _symmetry_equiv_pos_site_id
 _symmetry_equiv_pos_as_xyz
  1  'x, y, z'
loop_
 _atom_site_type_symbol
 _atom_site_label
 _atom_site_symmetry_multiplicity
 _atom_site_fract_x
 _atom_site_fract_y
 _atom_site_fract_z
 _atom_site_occupancy
 _atom_site_pbe_bader_charge
 _atom_site_pbe_bader_spin_density
 _atom_site_pbe_cm5_charge
 _atom_site_pbe_ddec_charge
 _atom_site_pbe_ddec_spin_density
 _atom_site_pbe_ddec_sum_bond_order
 _atom_site_pbe_magmom
Mn  Mn0  1  0.95824995  0.80711985  0.78722202  1  1.531988  4.535134  0.60533  1.032725  4.654414  2.338978  4.465
Mn  Mn1  1  0.54174380  0.69287721  0.28722130  1  1.531929  4.535154  0.60535  1.032729  4.654423  2.338904  4.465
Mn  Mn2  1  0.04174858  0.19288473  0.21277736  1  1.532001  4.535114  0.605342  1.032747  4.654388  2.339023  4.465
Mn  Mn3  1  0.45825510  0.30712153  0.71277754  1  1.532011  4.535134  0.60538  1.032831  4.654412  2.33876  4.465
Mn  Mn4  1  0.00431569  0.64907288  0.65962130  1  1.521526  4.56396  0.598525  1.023994  4.68751  2.255128  4.485
Mn  Mn5  1  0.49569080  0.85092776  0.15962218  1  1.521627  4.563919  0.598529  1.024051  4.687493  2.255106  4.485
Mn  Mn6  1  0.99568199  0.35092761  0.34038026  1  1.521536  4.563961  0.598523  1.023981  4.687507  2.255073  4.485
Mn  Mn7  1  0.50431664  0.14907389  0.84037721  1  1.521571  4.563936  0.598504  1.023924  4.687518  2.255242  4.485
H  H8  1  0.77040779  0.71845227  0.50227229  1  0.106788  0.000449  0.10898  0.11547  -7.9e-05  1.025917  0.0
H  H9  1  0.72959463  0.78154843  0.00227348  1  0.106849  0.00045  0.108998  0.115491  -7.9e-05  1.025991  0.0
H  H10  1  0.22959043  0.28154705  0.49772710  1  0.106776  0.00045  0.108966  0.115435  -7.9e-05  1.025961  0.0
H  H11  1  0.27040622  0.21845206  0.99772699  1  0.106764  0.00045  0.108982  0.11545  -7.9e-05  1.025993  0.0
H  H12  1  0.45362395  0.77973327  0.51761415  1  0.078723  0.00037  0.103724  0.103982  9.5e-05  1.030981  0.0
H  H13  1  0.04637754  0.72026628  0.01761624  1  0.078781  0.00037  0.103733  0.104018  9.5e-05  1.030937  0.0
H  H14  1  0.54637568  0.22026897  0.48238578  1  0.078218  0.00037  0.103737  0.103938  9.5e-05  1.031068  0.0
H  H15  1  0.95362489  0.27973421  0.98238206  1  0.078837  0.00037  0.103684  0.103961  9.5e-05  1.030988  0.0
H  H16  1  0.67314141  0.82135204  0.69929430  1  0.098256  0.000269  0.107548  0.113049  -0.000192  1.021531  0.0
H  H17  1  0.82686026  0.67864878  0.19929572  1  0.098189  0.000269  0.107546  0.113072  -0.000191  1.021521  0.0
H  H18  1  0.32685840  0.17864728  0.30070563  1  0.098245  0.000269  0.107539  0.11306  -0.000191  1.021563  0.0
H  H19  1  0.17314351  0.32135054  0.80070311  1  0.098224  0.000269  0.107552  0.113122  -0.000191  1.021574  0.0
H  H20  1  0.58270447  0.93551518  0.70010389  1  0.04611  0.000454  0.104763  0.10535  0.000168  1.037653  0.0
H  H21  1  0.91729659  0.56448273  0.20010278  1  0.046139  0.000454  0.10477  0.105377  0.000168  1.037662  0.0
H  H22  1  0.41729559  0.06448531  0.29989767  1  0.046127  0.000454  0.10479  0.105414  0.000168  1.037608  0.0
H  H23  1  0.08270335  0.43551718  0.79989551  1  0.046137  0.000454  0.104776  0.105383  0.000168  1.03766  0.0
H  H24  1  0.26042209  0.91813386  0.78028435  1  0.141969  0.000477  0.112618  0.121781  -0.000175  1.025361  0.0
H  H25  1  0.23957772  0.58186897  0.28028547  1  0.141991  0.000477  0.112609  0.121813  -0.000175  1.025421  0.0
H  H26  1  0.73957705  0.08186605  0.21971558  1  0.141991  0.000477  0.112639  0.121818  -0.000175  1.025355  0.0
H  H27  1  0.76042063  0.41813093  0.71971500  1  0.141984  0.000477  0.112639  0.121857  -0.000176  1.025354  0.0
H  H28  1  0.33973696  0.74824074  0.62772435  1  0.089731  0.000352  0.104688  0.105205  -4.9e-05  1.046969  0.0
H  H29  1  0.16026078  0.75175979  0.12772381  1  0.089764  0.000352  0.104702  0.105232  -4.9e-05  1.046933  0.0
H  H30  1  0.66026548  0.25175975  0.37227558  1  0.089712  0.000352  0.104739  0.105277  -4.9e-05  1.046969  0.0
H  H31  1  0.83973982  0.24823953  0.87227448  1  0.089777  0.000352  0.104711  0.105248  -4.9e-05  1.046966  0.0
H  H32  1  0.76179447  0.64504540  0.73742810  1  0.071897  6.8e-05  0.114931  0.132994  -0.000618  1.022936  0.0
H  H33  1  0.73820236  0.85495497  0.23742789  1  0.07188  6.8e-05  0.114973  0.133061  -0.000618  1.022942  0.0
H  H34  1  0.23820455  0.35495392  0.26257183  1  0.071904  6.8e-05  0.114962  0.133037  -0.000618  1.022944  0.0
H  H35  1  0.26179544  0.14504610  0.76257204  1  0.071908  6.8e-05  0.114969  0.133039  -0.000618  1.022933  0.0
H  H36  1  0.68973309  0.67604953  0.81313068  1  0.068476  0.000573  0.098757  0.108649  0.000221  1.01661  0.0
H  H37  1  0.81026410  0.82394878  0.31313038  1  0.068508  0.000573  0.098734  0.108647  0.000221  1.016531  0.0
H  H38  1  0.31026648  0.32394862  0.18686870  1  0.068471  0.000573  0.098753  0.108666  0.000221  1.016605  0.0
H  H39  1  0.18973413  0.17605054  0.68686901  1  0.068483  0.000573  0.098766  0.108681  0.000221  1.016586  0.0
H  H40  1  0.66097529  0.57702471  0.78087725  1  0.058066  0.000472  0.104955  0.117857  0.000288  0.985331  0.0
H  H41  1  0.83902449  0.92297465  0.28087725  1  0.058101  0.000473  0.104947  0.117854  0.000288  0.985339  0.0
H  H42  1  0.33902531  0.42297461  0.21912213  1  0.058093  0.000472  0.104963  0.117871  0.000288  0.985288  0.0
H  H43  1  0.16097624  0.07702526  0.71912158  1  0.058101  0.000472  0.104952  0.11787  0.000288  0.985304  0.0
H  H44  1  0.10943785  0.67780479  0.82120900  1  0.11178  0.000193  0.119076  0.139191  -0.000446  1.020935  0.0
H  H45  1  0.39056005  0.82219643  0.32120814  1  0.111797  0.000193  0.119092  0.139221  -0.000447  1.020899  0.0
H  H46  1  0.89056142  0.32219570  0.17879202  1  0.111769  0.000193  0.119079  0.139214  -0.000446  1.020923  0.0
H  H47  1  0.60943921  0.17780405  0.67879233  1  0.111771  0.000193  0.119073  0.139185  -0.000446  1.020917  0.0
H  H48  1  0.14071382  0.58505834  0.84863892  1  0.008591  0.000557  0.096487  0.102709  0.000238  1.012575  0.0
H  H49  1  0.35928477  0.91494241  0.34863890  1  0.008539  0.000557  0.096511  0.102753  0.000238  1.012619  0.0
H  H50  1  0.85928532  0.41494157  0.15136210  1  0.008573  0.000557  0.096487  0.102727  0.000238  1.012537  0.0
H  H51  1  0.64071437  0.08505750  0.65136157  1  0.008564  0.000557  0.096484  0.102698  0.000238  1.012578  0.0
H  H52  1  0.12900488  0.65939557  0.91541675  1  0.045942  0.000442  0.09535  0.09652  0.000215  1.030465  0.0
H  H53  1  0.37099627  0.84060599  0.41541595  1  0.045972  0.000442  0.095355  0.09651  0.000214  1.030488  0.0
H  H54  1  0.87099585  0.34060433  0.08458481  1  0.045979  0.000442  0.095355  0.096527  0.000215  1.030503  0.0
H  H55  1  0.62900629  0.15939508  0.58458398  1  0.04596  0.000442  0.095367  0.09653  0.000215  1.030451  0.0
H  H56  1  0.76106048  0.60741446  0.94905098  1  0.057866  0.001132  0.100301  0.075174  0.000647  0.986494  0.0
H  H57  1  0.73893786  0.89258551  0.44905034  1  0.057857  0.001132  0.100297  0.075132  0.000647  0.986592  0.0
H  H58  1  0.23893921  0.39258428  0.05094950  1  0.057847  0.001132  0.100278  0.075125  0.000647  0.986566  0.0
H  H59  1  0.26106287  0.10741439  0.55094959  1  0.057877  0.001132  0.100298  0.075133  0.000647  0.986592  0.0
H  H60  1  0.68609067  0.53233393  0.89576919  1  0.049813  0.000294  0.115519  0.094695  0.000154  0.952212  0.0
H  H61  1  0.81390976  0.96766467  0.39577097  1  0.049822  0.000294  0.115506  0.094662  0.000154  0.952209  0.0
H  H62  1  0.31390969  0.46766422  0.10422965  1  0.049872  0.000294  0.115528  0.094681  0.000154  0.952227  0.0
H  H63  1  0.18609256  0.03233523  0.60422950  1  0.049865  0.000294  0.115495  0.094637  0.000154  0.952304  0.0
H  H64  1  0.01410071  0.50878394  0.93159224  1  0.051056  0.000633  0.103698  0.075185  0.000396  1.001885  0.0
H  H65  1  0.48590124  0.99121769  0.43159246  1  0.051083  0.000633  0.103705  0.075154  0.000396  1.002035  0.0
H  H66  1  0.98590014  0.49121655  0.06840769  1  0.05111  0.000633  0.103711  0.075189  0.000396  1.001978  0.0
H  H67  1  0.51410120  0.00878280  0.56840801  1  0.051067  0.000633  0.103695  0.07517  0.000396  1.001977  0.0
H  H68  1  0.96953128  0.58406077  0.98376083  1  0.041898  0.000983  0.096083  0.064306  0.000601  1.016502  0.0
H  H69  1  0.53046800  0.91593990  0.48375971  1  0.041913  0.000983  0.096073  0.064261  0.000601  1.016504  0.0
H  H70  1  0.03046683  0.41593797  0.01623965  1  0.041905  0.000983  0.096055  0.064231  0.000601  1.01654  0.0
H  H71  1  0.46953285  0.08406059  0.51623967  1  0.041932  0.000983  0.096063  0.064256  0.000601  1.016528  0.0
H  H72  1  0.83771561  0.46046411  0.88758113  1  0.045922  8.4e-05  0.092702  0.091504  3.4e-05  1.039295  0.0
H  H73  1  0.66228678  0.03953639  0.38758102  1  0.045897  8.4e-05  0.092706  0.091518  3.4e-05  1.039295  0.0
H  H74  1  0.16228658  0.53953521  0.11241771  1  0.045869  8.4e-05  0.092705  0.091508  3.4e-05  1.039355  0.0
H  H75  1  0.33771395  0.96046352  0.61241836  1  0.045896  8.4e-05  0.092713  0.091527  3.4e-05  1.03929  0.0
H  H76  1  0.81892054  0.48120498  0.98108862  1  0.036879  0.000141  0.09915  0.101853  7.1e-05  0.97444  0.0
H  H77  1  0.68107997  0.01879410  0.48108953  1  0.03685  0.000141  0.099146  0.101832  7.1e-05  0.974487  0.0
H  H78  1  0.18107970  0.51879259  0.01890968  1  0.036903  0.000141  0.099137  0.101814  7.1e-05  0.974474  0.0
H  H79  1  0.31892155  0.98120580  0.51891039  1  0.036866  0.000141  0.099152  0.101826  7.1e-05  0.974494  0.0
H  H80  1  0.20597456  0.69714930  0.54551315  1  0.111524  1.1e-05  0.11099  0.12975  -0.000669  1.044277  0.0
H  H81  1  0.29402500  0.80284860  0.04551441  1  0.111594  1.1e-05  0.110961  0.129663  -0.000669  1.044306  0.0
H  H82  1  0.79402605  0.30285002  0.45448733  1  0.11154  1.1e-05  0.111008  0.129766  -0.000669  1.044269  0.0
H  H83  1  0.70597188  0.19715189  0.95448552  1  0.111624  1.1e-05  0.110961  0.129697  -0.000669  1.044281  0.0
H  H84  1  0.22165020  0.78713529  0.49705592  1  -0.005042  0.000208  0.093289  0.095941  0.000109  1.002186  0.0
H  H85  1  0.27834935  0.71286248  0.99705635  1  -0.005117  0.000208  0.093292  0.095932  0.000109  1.00212  0.0
H  H86  1  0.77835119  0.21286403  0.50294401  1  -0.005051  0.000208  0.093284  0.095934  0.000109  1.002166  0.0
H  H87  1  0.72164832  0.28713801  0.00294413  1  -0.005109  0.000208  0.09327  0.095891  0.000109  1.002158  0.0
H  H88  1  0.26834979  0.70443264  0.45689164  1  0.046333  0.000436  0.101592  0.120302  0.000106  0.989051  0.0
H  H89  1  0.23165041  0.79556441  0.95689232  1  0.046369  0.000436  0.101577  0.120218  0.000106  0.989159  0.0
H  H90  1  0.73165002  0.29556669  0.54310774  1  0.046342  0.000436  0.101598  0.12031  0.000106  0.989043  0.0
H  H91  1  0.76834770  0.20443433  0.04310761  1  0.046382  0.000436  0.101557  0.120225  0.000106  0.989194  0.0
H  H92  1  0.87548475  0.54870719  0.54671068  1  0.117366  0.000266  0.112858  0.135742  -5.9e-05  1.030668  0.0
H  H93  1  0.62451509  0.95129250  0.04670913  1  0.117414  0.000266  0.112879  0.135752  -5.9e-05  1.030702  0.0
H  H94  1  0.12451573  0.45129154  0.45329034  1  0.117393  0.000266  0.112874  0.135778  -5.9e-05  1.030643  0.0
H  H95  1  0.37548326  0.04870741  0.95328916  1  0.11738  0.000266  0.112867  0.135748  -5.9e-05  1.030713  0.0
H  H96  1  0.85633884  0.50388231  0.45889742  1  0.068085  0.000461  0.100291  0.121649  -0.000127  0.998716  0.0
H  H97  1  0.64365938  0.99611711  0.95889600  1  0.068012  0.000461  0.100291  0.121634  -0.000127  0.998707  0.0
H  H98  1  0.14366213  0.49611876  0.54110251  1  0.068062  0.000461  0.100298  0.121659  -0.000127  0.998709  0.0
H  H99  1  0.35633885  0.00388221  0.04110175  1  0.068086  0.000461  0.100293  0.121643  -0.000127  0.998719  0.0
H  H100  1  0.77456807  0.57471756  0.48725482  1  0.059129  0.000259  0.096663  0.097759  0.000117  1.020688  0.0
H  H101  1  0.72543109  0.92528254  0.98725318  1  0.05913  0.000259  0.096642  0.097729  0.000117  1.020758  0.0
H  H102  1  0.22543186  0.42528234  0.51274674  1  0.05913  0.000259  0.096675  0.097775  0.000117  1.020629  0.0
H  H103  1  0.27456635  0.07471678  0.01274511  1  0.059112  0.000259  0.096675  0.097775  0.000117  1.020645  0.0
H  H104  1  0.81801107  0.64900171  0.38449759  1  0.114302  0.000544  0.109388  0.099832  -4.1e-05  0.995421  0.0
H  H105  1  0.68198685  0.85099627  0.88449517  1  0.114314  0.000544  0.109407  0.099892  -4.1e-05  0.99536  0.0
H  H106  1  0.18198991  0.35099936  0.61550398  1  0.114308  0.000544  0.109357  0.099806  -4.1e-05  0.995411  0.0
H  H107  1  0.31801089  0.14900071  0.11550476  1  0.114341  0.000544  0.10939  0.099863  -4.1e-05  0.995354  0.0
H  H108  1  0.92345892  0.60575633  0.34474735  1  0.051581  0.000777  0.097811  0.074011  0.000327  1.010584  0.0
H  H109  1  0.57653737  0.89424152  0.84474615  1  0.05146  0.000777  0.097816  0.074025  0.000327  1.010562  0.0
H  H110  1  0.07654180  0.39424358  0.65525476  1  0.051554  0.000777  0.097816  0.074032  0.000326  1.010487  0.0
H  H111  1  0.42346299  0.10575664  0.15525378  1  0.051551  0.000777  0.097837  0.074033  0.000327  1.010469  0.0
H  H112  1  0.93326895  0.77156493  0.40579125  1  0.028655  0.000121  0.097332  0.09357  3.1e-05  0.983244  0.0
H  H113  1  0.56672911  0.72843371  0.90579062  1  0.028384  0.000121  0.097366  0.093642  3.1e-05  0.983193  0.0
H  H114  1  0.06673257  0.22843497  0.59420923  1  0.028652  0.000121  0.09735  0.093569  3.1e-05  0.983176  0.0
H  H115  1  0.43326649  0.27156444  0.09420930  1  0.028652  0.000121  0.09735  0.093591  3.1e-05  0.983172  0.0
H  H116  1  0.95376647  0.74447343  0.31385458  1  0.044679  0.000138  0.098996  0.100907  8.5e-05  0.9869  0.0
H  H117  1  0.54623047  0.75552372  0.81385459  1  0.044662  0.000138  0.098981  0.100874  8.5e-05  0.98699  0.0
H  H118  1  0.04623505  0.25552648  0.68614644  1  0.04465  0.000138  0.098981  0.100868  8.5e-05  0.986937  0.0
H  H119  1  0.45376671  0.24447443  0.18614643  1  0.044652  0.000138  0.098975  0.10089  8.5e-05  0.986913  0.0
H  H120  1  0.12123017  0.69731473  0.34504147  1  0.056465  0.000537  0.097542  0.073834  0.000281  1.009215  0.0
H  H121  1  0.37876689  0.80268250  0.84504272  1  0.056136  0.000537  0.097542  0.073847  0.000281  1.009157  0.0
H  H122  1  0.87877031  0.30268400  0.65495901  1  0.056111  0.000537  0.09755  0.073854  0.000281  1.009192  0.0
H  H123  1  0.62123134  0.19731683  0.15495721  1  0.056143  0.000537  0.097558  0.073868  0.000281  1.00916  0.0
H  H124  1  0.12674369  0.79127490  0.38436744  1  0.039687  0.000529  0.105404  0.079742  0.000314  0.964997  0.0
H  H125  1  0.37325486  0.70872189  0.88436786  1  0.039784  0.000529  0.105409  0.079695  0.000314  0.964996  0.0
H  H126  1  0.87325758  0.20872384  0.61563303  1  0.039671  0.000529  0.105371  0.079709  0.000314  0.965002  0.0
H  H127  1  0.62674325  0.29127685  0.11563262  1  0.03964  0.000529  0.105392  0.079717  0.000314  0.965  0.0
H  H128  1  0.80122645  0.92862525  0.73566682  1  0.115312  0.00015  0.108412  0.128813  -0.000472  1.037415  0.0
H  H129  1  0.69877330  0.57137395  0.23566626  1  0.115325  0.00015  0.108428  0.128839  -0.000472  1.037373  0.0
H  H130  1  0.19877403  0.07137348  0.26433366  1  0.115324  0.00015  0.108433  0.12883  -0.000472  1.037398  0.0
H  H131  1  0.30122548  0.42862421  0.76433258  1  0.1153  0.00015  0.10845  0.128828  -0.000472  1.037416  0.0
H  H132  1  0.80904233  0.02603089  0.70257762  1  0.018136  0.000674  0.087683  0.090789  0.000387  0.992418  0.0
H  H133  1  0.69095399  0.47396720  0.20257778  1  0.018116  0.000674  0.087687  0.090766  0.000387  0.992413  0.0
H  H134  1  0.19095565  0.97396727  0.29742176  1  0.018126  0.000674  0.087702  0.090791  0.000387  0.992427  0.0
H  H135  1  0.30904137  0.52602979  0.79742269  1  0.018161  0.000674  0.087654  0.090747  0.000387  0.99237  0.0
H  H136  1  0.70725973  0.99062107  0.76694115  1  0.084382  0.000374  0.099121  0.114844  -7.5e-05  1.057701  0.0
H  H137  1  0.79273846  0.50937825  0.26694149  1  0.084417  0.000374  0.099103  0.114783  -7.5e-05  1.057715  0.0
H  H138  1  0.29273916  0.00937767  0.23305933  1  0.084402  0.000374  0.099096  0.114779  -7.5e-05  1.057732  0.0
H  H139  1  0.20726019  0.49061933  0.73305789  1  0.084385  0.000374  0.0991  0.11478  -7.5e-05  1.057696  0.0
H  H140  1  0.12418234  0.93163344  0.85151004  1  0.099573  0.000202  0.114219  0.133915  -9.3e-05  1.030018  0.0
H  H141  1  0.37581521  0.56836615  0.35151003  1  0.099572  0.000202  0.114255  0.133972  -9.3e-05  1.030019  0.0
H  H142  1  0.87581704  0.06836764  0.14848988  1  0.099563  0.000202  0.114219  0.133917  -9.3e-05  1.029978  0.0
H  H143  1  0.62418351  0.43163551  0.64849099  1  0.099602  0.000202  0.11424  0.133919  -9.3e-05  1.030034  0.0
H  H144  1  0.14752315  0.97989014  0.93680508  1  0.032583  0.000123  0.098064  0.106437  4e-05  1.02926  0.0
H  H145  1  0.35247563  0.52011151  0.43680492  1  0.032582  0.000123  0.09803  0.106352  4e-05  1.029347  0.0
H  H146  1  0.85247849  0.02011035  0.06319430  1  0.032572  0.000123  0.098054  0.10643  3.9e-05  1.02925  0.0
H  H147  1  0.64752242  0.47989073  0.56319610  1  0.032615  0.000123  0.098039  0.106377  4e-05  1.029286  0.0
H  H148  1  0.18925753  0.03082628  0.85498846  1  0.08065  0.000524  0.099708  0.11909  2.9e-05  1.009913  0.0
H  H149  1  0.31073845  0.46917349  0.35498915  1  0.080615  0.000524  0.099768  0.119199  2.9e-05  1.009887  0.0
H  H150  1  0.81074161  0.96917363  0.14501038  1  0.080657  0.000524  0.099708  0.11909  2.9e-05  1.009936  0.0
H  H151  1  0.68926094  0.53082758  0.64501187  1  0.080581  0.000524  0.099756  0.119181  2.9e-05  1.009878  0.0
H  H152  1  0.75347900  0.08547948  0.85084167  1  0.07972  0.000407  0.118036  0.107932  3e-05  0.971839  0.0
H  H153  1  0.74652031  0.41452147  0.35084274  1  0.079743  0.000407  0.118066  0.107941  3e-05  0.971827  0.0
H  H154  1  0.24652130  0.91452218  0.14915607  1  0.079727  0.000407  0.118029  0.10792  3e-05  0.971825  0.0
H  H155  1  0.25347950  0.58547785  0.64915774  1  0.079726  0.000407  0.118032  0.107898  3e-05  0.971863  0.0
H  H156  1  0.87412748  0.13749818  0.81532628  1  0.026869  0.000748  0.095841  0.067321  0.000393  0.980855  0.0
H  H157  1  0.62587180  0.36250264  0.31532663  1  0.026874  0.000748  0.095834  0.067289  0.000393  0.980878  0.0
H  H158  1  0.12587282  0.86250347  0.18467147  1  0.026942  0.000748  0.095827  0.067264  0.000393  0.980832  0.0
H  H159  1  0.37412642  0.63749668  0.68467439  1  0.026874  0.000748  0.095832  0.067271  0.000393  0.980866  0.0
H  H160  1  0.88242116  0.14460198  0.95118560  1  0.052861  0.000257  0.099302  0.102713  0.000118  1.017439  0.0
H  H161  1  0.61757799  0.35539817  0.45118539  1  0.052879  0.000257  0.099292  0.102712  0.000118  1.017452  0.0
H  H162  1  0.11757823  0.85539910  0.04881378  1  0.052875  0.000257  0.099276  0.102695  0.000118  1.017467  0.0
H  H163  1  0.38242207  0.64460232  0.54881618  1  0.053052  0.000257  0.099282  0.102687  0.000118  1.017516  0.0
H  H164  1  0.84707224  0.04215747  0.95676898  1  0.033076  7.1e-05  0.095792  0.086862  3.6e-05  1.026186  0.0
H  H165  1  0.65292612  0.45784270  0.45677018  1  0.033051  7.1e-05  0.095807  0.086908  3.6e-05  1.026208  0.0
H  H166  1  0.15292623  0.95784302  0.04322822  1  0.033024  7.1e-05  0.095806  0.086891  3.6e-05  1.026192  0.0
H  H167  1  0.34707552  0.54215779  0.54323030  1  0.033084  7.1e-05  0.095802  0.086892  3.6e-05  1.026188  0.0
H  H168  1  0.05460790  0.13323204  0.89339540  1  0.057355  0.0006  0.095545  0.06768  0.000338  1.007794  0.0
H  H169  1  0.44539141  0.36676845  0.39339469  1  0.05735  0.0006  0.095544  0.067663  0.000338  1.00782  0.0
H  H170  1  0.94539228  0.86676903  0.10660507  1  0.057362  0.0006  0.09554  0.067676  0.000338  1.007807  0.0
H  H171  1  0.55460902  0.63323379  0.60660742  1  0.057365  0.0006  0.095541  0.067667  0.000338  1.007749  0.0
H  H172  1  0.04176137  0.07481028  0.97296929  1  0.035736  0.000479  0.107072  0.086539  0.000219  0.973766  0.0
H  H173  1  0.45823538  0.42518933  0.47296930  1  0.035686  0.000479  0.107078  0.086579  0.000218  0.973731  0.0
H  H174  1  0.95823722  0.92519079  0.02703118  1  0.035744  0.000479  0.107071  0.086545  0.000219  0.973728  0.0
H  H175  1  0.54176468  0.57481116  0.52703281  1  0.035764  0.000479  0.107055  0.086534  0.000219  0.973764  0.0
C  C176  1  0.73175737  0.76948781  0.60430866  1  -0.043213  0.002295  -0.018487  -0.034707  0.000949  3.998472  0.001
C  C177  1  0.76824355  0.73051326  0.10430861  1  -0.043273  0.002295  -0.018486  -0.0347  0.000949  3.998483  0.001
C  C178  1  0.26824147  0.23051443  0.39569181  1  -0.043555  0.002295  -0.018488  -0.034737  0.000949  3.998574  0.001
C  C179  1  0.23175943  0.26948606  0.89569078  1  -0.04405  0.002296  -0.018453  -0.034574  0.000949  3.998487  0.001
C  C180  1  0.70988053  0.74321666  0.53300768  1  -0.024531  0.007261  -0.076203  -0.119544  0.005248  3.939011  0.004
C  C181  1  0.79011930  0.75678299  0.03300934  1  -0.024493  0.007261  -0.07626  -0.119603  0.005248  3.939003  0.004
C  C182  1  0.29011782  0.25678325  0.46699116  1  -0.024531  0.007262  -0.076219  -0.119514  0.005248  3.939069  0.004
C  C183  1  0.20988210  0.24321634  0.96698949  1  -0.024253  0.007261  -0.076266  -0.11954  0.005248  3.93919  0.004
C  C184  1  0.60954088  0.74760199  0.50201980  1  -0.019824  -0.001947  -0.017825  -0.028421  -0.003129  3.996973  -0.003
C  C185  1  0.89046221  0.75239812  0.00202091  1  -0.019614  -0.001947  -0.017747  -0.028335  -0.003129  3.996869  -0.003
C  C186  1  0.39045850  0.25239908  0.49798068  1  -0.019628  -0.001947  -0.017804  -0.028439  -0.003129  3.996951  -0.003
C  C187  1  0.10953931  0.24760179  0.99797630  1  -0.019356  -0.001947  -0.01776  -0.028583  -0.003129  3.997028  -0.003
C  C188  1  0.53151918  0.77797758  0.54280796  1  -0.03367  0.006357  -0.081277  -0.147622  0.004856  3.946676  0.004
C  C189  1  0.96847986  0.72202210  0.04280898  1  -0.033899  0.006356  -0.081288  -0.147671  0.004856  3.94682  0.004
C  C190  1  0.46847954  0.22202408  0.45719197  1  -0.032975  0.006357  -0.081247  -0.1475  0.004856  3.946744  0.004
C  C191  1  0.03152086  0.27797781  0.95718931  1  -0.034379  0.006357  -0.08122  -0.147511  0.004856  3.946835  0.004
C  C192  1  0.55304878  0.80614393  0.61379424  1  -0.101547  -0.00039  -0.01357  0.05665  -0.0006  4.036325  -0.001
C  C193  1  0.94695178  0.69385542  0.11379462  1  -0.101479  -0.00039  -0.013615  0.056644  -0.0006  4.036356  -0.001
C  C194  1  0.44695085  0.19385831  0.38620624  1  -0.101928  -0.00039  -0.013599  0.056607  -0.0006  4.036329  -0.001
C  C195  1  0.05305108  0.30614332  0.88620313  1  -0.101191  -0.00039  -0.013523  0.056769  -0.0006  4.036298  -0.001
C  C196  1  0.65417238  0.80176586  0.64367872  1  -0.03965  0.006612  -0.081235  -0.142659  0.004915  3.931778  0.004
C  C197  1  0.84582675  0.69823418  0.14367966  1  -0.039577  0.006612  -0.081272  -0.14277  0.004915  3.931854  0.004
C  C198  1  0.34582609  0.19823463  0.35632066  1  -0.03941  0.006612  -0.081282  -0.142755  0.004915  3.931893  0.004
C  C199  1  0.15417465  0.30176514  0.85631863  1  -0.038981  0.006612  -0.081327  -0.142941  0.004915  3.931933  0.004
C  C200  1  0.83570600  0.76185308  0.64162022  1  1.580901  0.022801  0.225782  0.595295  0.021689  4.194306  0.02
C  C201  1  0.66429618  0.73814636  0.14162128  1  1.58124  0.0228  0.225836  0.595346  0.021689  4.194111  0.02
C  C202  1  0.16429364  0.23814916  0.35838026  1  1.580945  0.022801  0.22579  0.595297  0.021689  4.1943  0.02
C  C203  1  0.33570827  0.26185237  0.85837865  1  1.580936  0.022801  0.225816  0.595296  0.021689  4.194193  0.02
C  C204  1  0.58318256  0.71970198  0.42581270  1  1.556807  0.009436  0.192651  0.539838  0.011021  4.248617  0.007
C  C205  1  0.91681935  0.78029615  0.92581333  1  1.556618  0.009444  0.192688  0.539914  0.011022  4.24853  0.007
C  C206  1  0.41681828  0.28029851  0.57418669  1  1.556785  0.009442  0.192725  0.54001  0.011022  4.248433  0.007
C  C207  1  0.08318217  0.21970375  0.07418387  1  1.556581  0.009444  0.192677  0.540036  0.011021  4.248256  0.007
C  C208  1  0.47158250  0.83805588  0.65791769  1  -0.002729  -0.000788  -0.012882  0.056742  -0.001002  4.028206  -0.001
C  C209  1  0.02841727  0.66194301  0.15791687  1  -0.002735  -0.000788  -0.01281  0.056827  -0.001002  4.02821  -0.001
C  C210  1  0.52841756  0.16194461  0.34208224  1  -0.00271  -0.000788  -0.012887  0.056808  -0.001002  4.027987  -0.001
C  C211  1  0.97158534  0.33805456  0.84208088  1  -0.002842  -0.000788  -0.012898  0.056687  -0.001002  4.028242  -0.001
C  C212  1  0.50069014  0.90477112  0.70107689  1  -0.02348  0.006934  -0.079486  -0.143213  0.005356  3.930977  0.004
C  C213  1  0.99931024  0.59522737  0.20107587  1  -0.023504  0.006935  -0.079521  -0.143335  0.005356  3.931004  0.004
C  C214  1  0.49930991  0.09522937  0.29892522  1  -0.023508  0.006935  -0.079516  -0.143362  0.005356  3.931037  0.004
C  C215  1  0.00069091  0.40477078  0.79892188  1  -0.023751  0.006934  -0.079526  -0.143335  0.005356  3.931123  0.004
C  C216  1  0.42510454  0.93417864  0.74478363  1  -0.005137  -0.001463  -0.018345  -0.03129  -0.002496  4.000407  -0.002
C  C217  1  0.07489530  0.56582056  0.24478469  1  -0.00518  -0.001463  -0.018331  -0.031209  -0.002496  4.000322  -0.002
C  C218  1  0.57489539  0.06582127  0.25521848  1  -0.005026  -0.001463  -0.018323  -0.03122  -0.002496  4.000572  -0.002
C  C219  1  0.92510560  0.43417642  0.75521415  1  -0.005204  -0.001463  -0.018313  -0.031133  -0.002496  4.000431  -0.002
C  C220  1  0.31942668  0.89569879  0.74634240  1  -0.051098  0.006926  -0.073639  -0.107835  0.00492  3.929612  0.004
C  C221  1  0.18057091  0.60430100  0.24634358  1  -0.051132  0.006926  -0.073633  -0.107883  0.00492  3.929505  0.004
C  C222  1  0.68057167  0.10430112  0.25365917  1  -0.051132  0.006926  -0.073691  -0.107937  0.00492  3.929842  0.004
C  C223  1  0.81942695  0.39569657  0.75365635  1  -0.051057  0.006926  -0.073665  -0.107935  0.00492  3.929633  0.004
C  C224  1  0.28918276  0.82848851  0.70440169  1  -0.010914  0.002732  -0.019749  -0.041653  0.001226  4.003578  0.001
C  C225  1  0.21081754  0.67151288  0.20440199  1  -0.0109  0.002732  -0.019745  -0.04165  0.001226  4.003541  0.001
C  C226  1  0.71081796  0.17151140  0.29559824  1  -0.011012  0.002731  -0.019719  -0.041557  0.001225  4.003606  0.001
C  C227  1  0.78918398  0.32848702  0.79559739  1  -0.011249  0.002732  -0.019749  -0.041718  0.001226  4.003601  0.001
C  C228  1  0.36479927  0.80079161  0.65963082  1  -0.1237  0.007244  -0.081628  -0.146557  0.005389  3.94501  0.004
C  C229  1  0.13520051  0.69920728  0.15963012  1  -0.123718  0.007245  -0.081651  -0.146595  0.00539  3.945119  0.004
C  C230  1  0.63520170  0.19920946  0.34037020  1  -0.12336  0.007245  -0.081687  -0.146673  0.00539  3.944933  0.004
C  C231  1  0.86480315  0.30079145  0.84036818  1  -0.123368  0.007244  -0.081616  -0.146513  0.005389  3.945042  0.004
C  C232  1  0.45612519  0.00768853  0.78803400  1  1.556994  0.008104  0.197123  0.54285  0.009468  4.236412  0.006
C  C233  1  0.04387470  0.49231099  0.28803257  1  1.557009  0.008104  0.197132  0.542786  0.009468  4.236435  0.006
C  C234  1  0.54387645  0.99231195  0.21196866  1  1.557048  0.008103  0.197066  0.542749  0.009468  4.236593  0.006
C  C235  1  0.95612249  0.50768716  0.71196681  1  1.557129  0.008101  0.197125  0.542754  0.009466  4.236536  0.006
C  C236  1  0.17687327  0.78529618  0.71046240  1  1.606526  0.02488  0.227068  0.593698  0.023815  4.190619  0.022
C  C237  1  0.32312600  0.71470407  0.21046012  1  1.606662  0.024878  0.227117  0.593767  0.023814  4.190471  0.022
C  C238  1  0.82312459  0.21470139  0.28953862  1  1.606047  0.024883  0.227049  0.593636  0.023814  4.190647  0.022
C  C239  1  0.67687595  0.28529408  0.78953981  1  1.606905  0.024876  0.227146  0.593823  0.023814  4.190425  0.022
C  C240  1  0.91046310  0.62879797  0.82644994  1  1.809769  0.018554  0.343005  0.509301  0.017681  4.153429  0.017
C  C241  1  0.58953709  0.87120331  0.32644868  1  1.809721  0.018553  0.343024  0.509346  0.01768  4.15339  0.017
C  C242  1  0.08953854  0.37120252  0.17354999  1  1.809779  0.018556  0.342912  0.509209  0.017683  4.153458  0.017
C  C243  1  0.41046321  0.12879835  0.67355015  1  1.809781  0.018553  0.342969  0.50921  0.01768  4.153377  0.017
C  C244  1  0.72447241  0.62708355  0.78967016  1  0.288356  0.000227  -0.131363  -0.256542  -0.000179  3.919555  0.0
C  C245  1  0.77552421  0.87291585  0.28967000  1  0.288347  0.000227  -0.1314  -0.256688  -0.000179  3.919542  0.0
C  C246  1  0.27552569  0.37291519  0.21032923  1  0.288353  0.000227  -0.131416  -0.256697  -0.000179  3.919594  0.0
C  C247  1  0.22447427  0.12708464  0.71032883  1  0.288308  0.000227  -0.131415  -0.256667  -0.000179  3.919541  0.0
C  C248  1  0.09743347  0.63326205  0.86365133  1  0.325879  8.3e-05  -0.135166  -0.257208  -0.000281  3.930759  0.0
C  C249  1  0.40256537  0.86673991  0.36365116  1  0.325874  8.3e-05  -0.135169  -0.25716  -0.000281  3.930733  0.0
C  C250  1  0.90256738  0.36673844  0.13634969  1  0.325886  8.3e-05  -0.135176  -0.257238  -0.000281  3.930694  0.0
C  C251  1  0.59743322  0.13326116  0.63634932  1  0.325868  8.3e-05  -0.135177  -0.257176  -0.000281  3.930819  0.0
C  C252  1  0.76710508  0.56392819  0.90574183  1  0.30965  0.000456  -0.051499  -0.03535  0.000588  3.904844  0.0
C  C253  1  0.73289626  0.93607104  0.40574242  1  0.309606  0.000456  -0.051455  -0.035234  0.000588  3.904816  0.0
C  C254  1  0.23289540  0.43607055  0.09425701  1  0.309487  0.000456  -0.051417  -0.035206  0.000588  3.904831  0.0
C  C255  1  0.26710684  0.06392886  0.59425697  1  0.309515  0.000456  -0.051423  -0.035169  0.000588  3.904932  0.0
C  C256  1  0.95679481  0.55068077  0.93238319  1  0.290477  0.00043  -0.059321  -0.046336  0.00058  3.932867  0.0
C  C257  1  0.54320388  0.94932089  0.43238109  1  0.290452  0.00043  -0.059312  -0.046148  0.00058  3.933077  0.0
C  C258  1  0.04320445  0.44931972  0.06761783  1  0.290437  0.00043  -0.059303  -0.046212  0.00058  3.932899  0.0
C  C259  1  0.45679618  0.05067960  0.56761775  1  0.290444  0.00043  -0.059321  -0.046269  0.00058  3.932934  0.0
C  C260  1  0.84271690  0.50761345  0.92792371  1  -0.014671  0.000309  -0.160591  -0.198516  0.000195  3.964  0.0
C  C261  1  0.65728459  0.99238644  0.42792447  1  -0.014606  0.000309  -0.160588  -0.198573  0.000195  3.964061  0.0
C  C262  1  0.15728517  0.49238529  0.07207567  1  -0.014606  0.000309  -0.160586  -0.198524  0.000195  3.964142  0.0
C  C263  1  0.34271705  0.00761405  0.57207600  1  -0.014632  0.000309  -0.160623  -0.198581  0.000195  3.964142  0.0
C  C264  1  0.02660180  0.64527631  0.49234266  1  1.808914  0.011497  0.339789  0.508503  0.011771  4.165735  0.011
C  C265  1  0.47339879  0.85472261  0.99234408  1  1.808713  0.011498  0.339783  0.508464  0.011771  4.165882  0.011
C  C266  1  0.97339692  0.35472535  0.50765890  1  1.809451  0.011495  0.33982  0.508581  0.011769  4.165548  0.011
C  C267  1  0.52660010  0.14527613  0.00765694  1  1.808778  0.011497  0.339825  0.508601  0.01177  4.165715  0.011
C  C268  1  0.20515146  0.72313998  0.49129502  1  0.313659  0.00032  -0.138155  -0.268042  0.00018  3.945162  0.0
C  C269  1  0.29484717  0.77685719  0.99129565  1  0.313586  0.00032  -0.138097  -0.267814  0.00018  3.944995  0.0
C  C270  1  0.79484926  0.27685992  0.50870545  1  0.313661  0.00032  -0.138155  -0.268015  0.00018  3.945124  0.0
C  C271  1  0.70515026  0.22314214  0.00870428  1  0.313598  0.00032  -0.138085  -0.267821  0.00018  3.945123  0.0
C  C272  1  0.85532588  0.55827815  0.48978012  1  0.2276  0.000252  -0.136329  -0.262122  7.6e-05  3.911973  0.0
C  C273  1  0.64467291  0.94172021  0.98977908  1  0.227656  0.000252  -0.136292  -0.262052  7.6e-05  3.912115  0.0
C  C274  1  0.14467418  0.44172234  0.51022090  1  0.227581  0.000252  -0.13634  -0.262212  7.6e-05  3.911987  0.0
C  C275  1  0.35532598  0.05827853  0.01021976  1  0.227602  0.000252  -0.136371  -0.262165  7.6e-05  3.91206  0.0
C  C276  1  0.90493627  0.64780784  0.38623259  1  0.274455  0.000457  -0.060085  -0.052237  0.000519  3.901891  0.0
C  C277  1  0.59506165  0.85219015  0.88623126  1  0.274622  0.000457  -0.060114  -0.052316  0.000519  3.901885  0.0
C  C278  1  0.09506525  0.35219206  0.61376898  1  0.274539  0.000457  -0.060061  -0.052253  0.000519  3.901694  0.0
C  C279  1  0.40493792  0.14780800  0.11376758  1  0.274476  0.000457  -0.0601  -0.052236  0.000519  3.901714  0.0
C  C280  1  0.96540512  0.72881687  0.37104748  1  -0.020454  0.000205  -0.158107  -0.197641  0.000114  3.989789  0.0
C  C281  1  0.53459345  0.77118048  0.87104699  1  -0.020236  0.000205  -0.158134  -0.197726  0.000114  3.989881  0.0
C  C282  1  0.03459573  0.27118362  0.62895353  1  -0.020514  0.000205  -0.158083  -0.197557  0.000114  3.989621  0.0
C  C283  1  0.46540520  0.22881709  0.12895294  1  -0.020469  0.000205  -0.15811  -0.197678  0.000114  3.98975  0.0
C  C284  1  0.08410577  0.73091577  0.38643233  1  0.305792  0.00031  -0.056489  -0.038521  0.000397  3.930197  0.0
C  C285  1  0.41589291  0.76908160  0.88643185  1  0.306031  0.00031  -0.056542  -0.038497  0.000397  3.930195  0.0
C  C286  1  0.91589563  0.26908355  0.61356869  1  0.306146  0.00031  -0.056513  -0.038568  0.000397  3.930162  0.0
C  C287  1  0.58410453  0.23091772  0.11356808  1  0.306218  0.00031  -0.056554  -0.038533  0.000397  3.930256  0.0
C  C288  1  0.95224880  0.98377119  0.82149093  1  1.808429  0.012786  0.335827  0.504563  0.013113  4.188052  0.012
C  C289  1  0.54774839  0.51622715  0.32148965  1  1.808085  0.012785  0.33574  0.504373  0.013113  4.187929  0.012
C  C290  1  0.04775272  0.01622871  0.17850791  1  1.808592  0.012787  0.335786  0.504424  0.013114  4.188115  0.012
C  C291  1  0.45225221  0.48377217  0.67851246  1  1.807733  0.012783  0.335813  0.504596  0.013111  4.187764  0.012
C  C292  1  0.79039036  0.98795853  0.75073378  1  0.239927  0.00054  -0.141967  -0.266385  0.000395  3.936606  0.0
C  C293  1  0.70960702  0.51204072  0.25073413  1  0.239847  0.00054  -0.141925  -0.266274  0.000395  3.936524  0.0
C  C294  1  0.20960890  0.01204196  0.24926669  1  0.239796  0.00054  -0.141901  -0.266269  0.000395  3.936493  0.0
C  C295  1  0.29039004  0.48795685  0.74926579  1  0.239906  0.000539  -0.14191  -0.266262  0.000394  3.936464  0.0
C  C296  1  0.12653629  0.98745840  0.87949653  1  0.249731  0.000477  -0.137895  -0.263881  0.000229  3.914277  0.0
C  C297  1  0.37346141  0.51254187  0.37949635  1  0.249713  0.000477  -0.137968  -0.264042  0.000229  3.914408  0.0
C  C298  1  0.87346377  0.01254209  0.12050339  1  0.249755  0.000477  -0.137886  -0.263896  0.000229  3.914198  0.0
C  C299  1  0.62653981  0.48746037  0.62050467  1  0.249696  0.000477  -0.137904  -0.263845  0.000229  3.914335  0.0
C  C300  1  0.84059550  0.08593721  0.84815217  1  0.301055  0.000422  -0.057335  -0.045087  0.000392  3.913478  0.0
C  C301  1  0.65940313  0.41406431  0.34815269  1  0.301105  0.000422  -0.057384  -0.045044  0.000392  3.913394  0.0
C  C302  1  0.15940388  0.91406386  0.15184503  1  0.301077  0.000422  -0.057352  -0.045035  0.000392  3.913255  0.0
C  C303  1  0.34059534  0.58593618  0.65184833  1  0.301072  0.000422  -0.057351  -0.045009  0.000392  3.913405  0.0
C  C304  1  0.89021145  0.08965768  0.92364418  1  -0.024675  0.000261  -0.161281  -0.206535  0.000169  3.979579  0.0
C  C305  1  0.60978792  0.41034353  0.42364523  1  -0.024852  0.000261  -0.161271  -0.20662  0.000169  3.979558  0.0
C  C306  1  0.10978885  0.91034397  0.07635411  1  -0.024683  0.00026  -0.161225  -0.206522  0.000169  3.979487  0.0
C  C307  1  0.39021214  0.58965696  0.57635579  1  -0.024811  0.000261  -0.161235  -0.20651  0.000169  3.979601  0.0
C  C308  1  0.00776783  0.08086522  0.91833879  1  0.317086  0.000336  -0.06011  -0.041414  0.000421  3.930441  0.0
C  C309  1  0.49222979  0.41913478  0.41833933  1  0.317294  0.000336  -0.060116  -0.041432  0.000421  3.930424  0.0
C  C310  1  0.99223223  0.91913527  0.08166223  1  0.317074  0.000336  -0.060174  -0.041506  0.000421  3.930335  0.0
C  C311  1  0.50776880  0.58086630  0.58166278  1  0.31699  0.000336  -0.060164  -0.041462  0.000421  3.930452  0.0
N  N312  1  0.80461422  0.60325098  0.83809749  1  -1.186791  0.010384  -0.287453  -0.105992  0.006963  3.651031  0.008
N  N313  1  0.69538415  0.89674917  0.33809741  1  -1.186794  0.010384  -0.287412  -0.105806  0.006963  3.650842  0.008
N  N314  1  0.19538480  0.39674834  0.16190189  1  -1.186752  0.010384  -0.28744  -0.105861  0.006964  3.65086  0.008
N  N315  1  0.30461591  0.10325132  0.66190197  1  -1.18669  0.010383  -0.287472  -0.105921  0.006963  3.650885  0.008
N  N316  1  0.98386250  0.60417265  0.87165053  1  -1.198245  0.009424  -0.28626  -0.102567  0.006235  3.647994  0.007
N  N317  1  0.51613730  0.89583055  0.37164989  1  -1.198184  0.009423  -0.286307  -0.102836  0.006235  3.648253  0.007
N  N318  1  0.01613756  0.39582784  0.12835104  1  -1.198272  0.009424  -0.286223  -0.102622  0.006235  3.647972  0.007
N  N319  1  0.48386495  0.10417286  0.62835058  1  -1.198268  0.009424  -0.286223  -0.102568  0.006235  3.648054  0.007
N  N320  1  0.09997728  0.70037424  0.45905643  1  -1.183231  0.007492  -0.290775  -0.108018  0.005301  3.632658  0.005
N  N321  1  0.40002291  0.79962281  0.95905604  1  -1.182988  0.007491  -0.290739  -0.108014  0.005301  3.632604  0.005
N  N322  1  0.90002265  0.29962566  0.54094513  1  -1.183224  0.007491  -0.290787  -0.108096  0.0053  3.632679  0.005
N  N323  1  0.59997440  0.20037593  0.04094334  1  -1.18311  0.007491  -0.290694  -0.108091  0.0053  3.632655  0.005
N  N324  1  0.93126853  0.62123778  0.45870179  1  -1.194693  0.007976  -0.285892  -0.101925  0.005544  3.642392  0.006
N  N325  1  0.56873036  0.87876106  0.95870055  1  -1.194675  0.007976  -0.285912  -0.101919  0.005545  3.6426  0.006
N  N326  1  0.06873098  0.37876388  0.54129977  1  -1.19472  0.007976  -0.285876  -0.101813  0.005544  3.642359  0.006
N  N327  1  0.43126775  0.12123768  0.04129829  1  -1.194727  0.007976  -0.285879  -0.101933  0.005544  3.642493  0.006
N  N328  1  0.02131015  0.01195684  0.87590392  1  -1.171915  0.007633  -0.295646  -0.124084  0.005369  3.653454  0.005
N  N329  1  0.47868744  0.48804300  0.37590358  1  -1.171496  0.007633  -0.295579  -0.123874  0.005369  3.653355  0.005
N  N330  1  0.97869003  0.98804423  0.12409819  1  -1.172041  0.007633  -0.295549  -0.123904  0.005369  3.653424  0.005
N  N331  1  0.52131378  0.51195924  0.62409853  1  -1.171438  0.007633  -0.29563  -0.124179  0.005369  3.653493  0.005
N  N332  1  0.86003861  0.01463879  0.81167282  1  -1.176946  0.008046  -0.294169  -0.112657  0.005672  3.641766  0.006
N  N333  1  0.63995987  0.48536202  0.31167410  1  -1.17692  0.008046  -0.294199  -0.112728  0.005672  3.641813  0.006
N  N334  1  0.13996193  0.98536403  0.18832711  1  -1.176881  0.008046  -0.29424  -0.112697  0.005671  3.641671  0.006
N  N335  1  0.36003860  0.51463847  0.68832746  1  -1.176612  0.008045  -0.294222  -0.112722  0.005671  3.641677  0.006
O  O336  1  0.85544221  0.80223796  0.69920701  1  -1.199686  0.072281  -0.307103  -0.559116  0.050572  2.379192  0.03
O  O337  1  0.64455568  0.69776753  0.19920739  1  -1.200083  0.072291  -0.307047  -0.559051  0.05057  2.379169  0.03
O  O338  1  0.14455632  0.19776661  0.30079129  1  -1.199656  0.07229  -0.307051  -0.559063  0.050574  2.379133  0.03
O  O339  1  0.35544687  0.30223354  0.80079254  1  -1.199658  0.072286  -0.307093  -0.559089  0.050571  2.379162  0.03
O  O340  1  0.89400939  0.71558324  0.61415244  1  -1.196509  0.068366  -0.308634  -0.562929  0.047483  2.311783  0.029
O  O341  1  0.60599325  0.78441844  0.11414928  1  -1.196474  0.068373  -0.308721  -0.563045  0.047486  2.311707  0.029
O  O342  1  0.10598908  0.28441725  0.38584857  1  -1.196514  0.068364  -0.308683  -0.562966  0.047484  2.311752  0.029
O  O343  1  0.39401144  0.21558146  0.88585010  1  -1.196599  0.068382  -0.308683  -0.562976  0.047484  2.311639  0.029
O  O344  1  0.48524239  0.70801247  0.40591114  1  -1.180275  0.044601  -0.314359  -0.556577  0.031406  2.181938  0.022
O  O345  1  0.01475826  0.79198673  0.90591126  1  -1.18028  0.04459  -0.314364  -0.556593  0.031404  2.182034  0.022
O  O346  1  0.51475804  0.29198977  0.59408716  1  -1.180244  0.044595  -0.314388  -0.556656  0.031406  2.181858  0.022
O  O347  1  0.98524351  0.20801434  0.09408649  1  -1.180234  0.044598  -0.314363  -0.556623  0.031403  2.181882  0.022
O  O348  1  0.65950946  0.71054805  0.38206344  1  -1.197993  0.048905  -0.31934  -0.568899  0.03437  2.174285  0.022
O  O349  1  0.84049016  0.78945051  0.88206411  1  -1.197911  0.048905  -0.319354  -0.568937  0.034374  2.174181  0.022
O  O350  1  0.34049072  0.28945302  0.61793703  1  -1.198027  0.048911  -0.319356  -0.56899  0.034374  2.174231  0.022
O  O351  1  0.15951215  0.21054940  0.11793310  1  -1.197832  0.048891  -0.319347  -0.568947  0.034371  2.174057  0.022
O  O352  1  0.15257227  0.72252028  0.67386034  1  -1.207531  0.06922  -0.308092  -0.565576  0.048235  2.321511  0.029
O  O353  1  0.34743094  0.77747983  0.17385879  1  -1.207607  0.069232  -0.308123  -0.565621  0.048234  2.321403  0.029
O  O354  1  0.84742919  0.27747554  0.32613850  1  -1.207425  0.069221  -0.308106  -0.565585  0.048236  2.321698  0.029
O  O355  1  0.65257656  0.22251832  0.82614277  1  -1.207644  0.069222  -0.30814  -0.565635  0.048235  2.321422  0.029
O  O356  1  0.11535977  0.81465711  0.75353481  1  -1.20901  0.070983  -0.306434  -0.556711  0.049239  2.39134  0.029
O  O357  1  0.38463862  0.68534271  0.25353244  1  -1.209081  0.070981  -0.30644  -0.556721  0.049244  2.391332  0.029
O  O358  1  0.88463851  0.18533871  0.24646511  1  -1.208931  0.070987  -0.306401  -0.556668  0.049242  2.391121  0.029
O  O359  1  0.61536125  0.31465311  0.74646803  1  -1.209304  0.070998  -0.306474  -0.556776  0.049245  2.39133  0.029
O  O360  1  0.38361369  0.03676036  0.82218704  1  -1.191543  0.045637  -0.308268  -0.553124  0.032066  2.201617  0.024
O  O361  1  0.11638665  0.46323754  0.32218553  1  -1.191525  0.045638  -0.308317  -0.553134  0.032067  2.201571  0.024
O  O362  1  0.61638899  0.96324130  0.17781616  1  -1.191678  0.045643  -0.308266  -0.55312  0.032069  2.201649  0.024
O  O363  1  0.88360925  0.53675828  0.67781440  1  -1.191728  0.045635  -0.308317  -0.553118  0.032065  2.201649  0.024
O  O364  1  0.55391088  0.04099942  0.78702883  1  -1.186307  0.048423  -0.314702  -0.5632  0.034165  2.207745  0.024
O  O365  1  0.94609051  0.45900014  0.28702840  1  -1.186301  0.048423  -0.314709  -0.563176  0.034166  2.207792  0.024
O  O366  1  0.44609064  0.95900049  0.21297219  1  -1.18625  0.048419  -0.314682  -0.56314  0.034165  2.207726  0.024
O  O367  1  0.05390881  0.54099685  0.71297098  1  -1.186212  0.048422  -0.314685  -0.563187  0.034165  2.207737  0.024
O  O368  1  0.94103179  0.67531692  0.77367941  1  -1.232207  0.083879  -0.298438  -0.606205  0.066057  2.493821  0.031
O  O369  1  0.55896677  0.82468417  0.27367855  1  -1.232206  0.083878  -0.29849  -0.606275  0.066058  2.49382  0.031
O  O370  1  0.05896789  0.32468182  0.22631998  1  -1.232204  0.083885  -0.298425  -0.606194  0.066056  2.493793  0.031
O  O371  1  0.44103445  0.17531807  0.72631974  1  -1.232239  0.083886  -0.298421  -0.606198  0.06606  2.493785  0.031
O  O372  1  0.04815937  0.61730394  0.55385860  1  -1.213281  0.063207  -0.31849  -0.570177  0.044445  2.354225  0.027
O  O373  1  0.45184257  0.88269399  0.05385903  1  -1.213356  0.063208  -0.318508  -0.570193  0.044443  2.354261  0.027
O  O374  1  0.95183959  0.38269888  0.44614460  1  -1.213784  0.063213  -0.318544  -0.570257  0.044442  2.354043  0.027
O  O375  1  0.54815779  0.11730416  0.94614199  1  -1.213294  0.063201  -0.318537  -0.570212  0.044442  2.354126  0.027
O  O376  1  0.97298734  0.92908658  0.78058382  1  -1.218879  0.062702  -0.321313  -0.568509  0.043978  2.377607  0.025
O  O377  1  0.52700720  0.57091045  0.28058108  1  -1.218866  0.06269  -0.321277  -0.568412  0.043975  2.377369  0.025
O  O378  1  0.02701358  0.07091800  0.21941720  1  -1.21889  0.062691  -0.321327  -0.568533  0.043981  2.377334  0.025
O  O379  1  0.47299298  0.42909062  0.71941994  1  -1.218909  0.062684  -0.321289  -0.56846  0.043971  2.377346  0.025
