# generated using pymatgen
data_ZnH40C54(N2O3)2
_symmetry_space_group_name_H-M   'P 1'
_cell_length_a   15.73003454
_cell_length_b   15.73006158
_cell_length_c   20.02819102
_cell_angle_alpha   102.98930506
_cell_angle_beta   102.98916747
_cell_angle_gamma   113.37345276
_symmetry_Int_Tables_number   1
_chemical_formula_structural   ZnH40C54(N2O3)2
_chemical_formula_sum   'Zn4 H160 C216 N16 O24'
_cell_volume   4150.59976993
_cell_formula_units_Z   4
loop_
 _symmetry_equiv_pos_site_id
 _symmetry_equiv_pos_as_xyz
  1  'x, y, z'
loop_
 _atom_site_type_symbol
 _atom_site_label
 _atom_site_symmetry_multiplicity
 _atom_site_fract_x
 _atom_site_fract_y
 _atom_site_fract_z
 _atom_site_occupancy
 _atom_site_pbe_bader_charge
 _atom_site_pbe_bader_spin_density
 _atom_site_pbe_cm5_charge
 _atom_site_pbe_ddec_charge
 _atom_site_pbe_ddec_spin_density
 _atom_site_pbe_ddec_sum_bond_order
 _atom_site_pbe_magmom
Zn  Zn0  1  0.39812613  0.43008486  0.38618467  1  1.319499  0  0.68716  0.820756  0  2.346396  0
Zn  Zn1  1  0.56991360  0.60187120  0.11381545  1  1.319547  0  0.687153  0.820778  0  2.346407  0
Zn  Zn2  1  0.60187139  0.56991446  0.61381514  1  1.319581  0  0.687152  0.82079  0  2.346403  0
Zn  Zn3  1  0.43008540  0.39812751  0.88618352  1  1.319498  0  0.687136  0.82074  0  2.346443  0
H  H4  1  0.39148698  0.25647961  0.27382909  1  0.118634  0  0.116281  0.0891  0  1.031951  0
H  H5  1  0.74352069  0.60851293  0.22617014  1  0.118648  0  0.116279  0.089098  0  1.031973  0
H  H6  1  0.60850981  0.74352198  0.72617150  1  0.118526  0  0.116288  0.08911  0  1.031965  0
H  H7  1  0.25648056  0.39149140  0.77382823  1  0.118486  0  0.116288  0.089168  0  1.031987  0
H  H8  1  0.26840639  0.96198667  0.65906402  1  0.032464  0  0.102745  0.073741  0  0.997547  0
H  H9  1  0.03801522  0.73159193  0.84093818  1  0.032545  0  0.102749  0.07376  0  0.997498  0
H  H10  1  0.73159482  0.03801503  0.34093937  1  0.032288  0  0.102734  0.073751  0  0.997547  0
H  H11  1  0.96198598  0.26840390  0.15906217  1  0.03224  0  0.102734  0.073738  0  0.997587  0
H  H12  1  0.38022784  0.99391515  0.64005818  1  0.060344  0  0.098938  0.071044  0  1.004713  0
H  H13  1  0.00608673  0.61977106  0.85994403  1  0.060373  0  0.098941  0.071036  0  1.004746  0
H  H14  1  0.61977411  0.00608559  0.35994567  1  0.060322  0  0.098933  0.071052  0  1.004727  0
H  H15  1  0.99391373  0.38022442  0.14005613  1  0.060421  0  0.098925  0.071039  0  1.004768  0
H  H16  1  0.49784027  0.75172326  0.32172416  1  0.093211  0  0.102575  0.11119  0  1.032982  0
H  H17  1  0.24827519  0.50216061  0.17827733  1  0.093165  0  0.102593  0.111196  0  1.033021  0
H  H18  1  0.50216241  0.24827261  0.67827596  1  0.093246  0  0.102604  0.111191  0  1.033022  0
H  H19  1  0.75172823  0.49783821  0.82172544  1  0.093266  0  0.102586  0.111105  0  1.032979  0
H  H20  1  0.12914161  0.81005469  0.50467728  1  0.085538  0  0.105069  0.113015  0  1.021237  0
H  H21  1  0.18994766  0.87085862  0.99532383  1  0.085557  0  0.105059  0.112962  0  1.021285  0
H  H22  1  0.87085962  0.18994898  0.49532497  1  0.085543  0  0.10509  0.113054  0  1.021218  0
H  H23  1  0.81005281  0.12913882  0.00467618  1  0.085494  0  0.105087  0.113042  0  1.021153  0
H  H24  1  0.33178583  0.11680800  0.69828662  1  0.074806  0  0.09989  0.108334  0  1.070531  0
H  H25  1  0.88319709  0.66821650  0.80171288  1  0.074706  0  0.099949  0.108409  0  1.070524  0
H  H26  1  0.66821762  0.88319605  0.30171608  1  0.074825  0  0.099907  0.108357  0  1.070512  0
H  H27  1  0.11680414  0.33178522  0.19828502  1  0.07477  0  0.099902  0.108342  0  1.070523  0
H  H28  1  0.58823291  0.45597600  0.32356447  1  0.076431  0  0.107788  0.123773  0  1.013023  0
H  H29  1  0.54402127  0.41176527  0.17643141  1  0.076713  0  0.107756  0.123755  0  1.012926  0
H  H30  1  0.41176980  0.54402706  0.67643692  1  0.076385  0  0.10783  0.123804  0  1.01309  0
H  H31  1  0.45597477  0.58822880  0.82356371  1  0.07663  0  0.107783  0.123765  0  1.013036  0
H  H32  1  0.83313158  0.62293325  0.52779173  1  0.118774  0  0.104421  0.119547  0  1.040958  0
H  H33  1  0.37706821  0.16686610  0.97220382  1  0.118675  0  0.104369  0.119473  0  1.041038  0
H  H34  1  0.16686668  0.37706772  0.47221001  1  0.118848  0  0.104407  0.119516  0  1.040941  0
H  H35  1  0.62293227  0.83313071  0.02779108  1  0.118791  0  0.104407  0.119521  0  1.040951  0
H  H36  1  0.88551234  0.52739656  0.32857022  1  0.099868  0  0.101117  0.10698  0  1.074013  0
H  H37  1  0.47260031  0.11448616  0.17142741  1  0.099912  0  0.101139  0.107032  0  1.07403  0
H  H38  1  0.11448963  0.47260941  0.67143356  1  0.099583  0  0.101103  0.106947  0  1.073998  0
H  H39  1  0.52739204  0.88550944  0.82856932  1  0.09968  0  0.101115  0.106976  0  1.074009  0
H  H40  1  0.27755312  0.69762485  0.42563898  1  0.107414  0  0.104157  0.111662  0  1.035133  0
H  H41  1  0.30237864  0.72244927  0.07436335  1  0.10751  0  0.104134  0.111599  0  1.035148  0
H  H42  1  0.72244959  0.30237756  0.57436081  1  0.107573  0  0.104146  0.111621  0  1.035126  0
H  H43  1  0.69762331  0.27754951  0.92563815  1  0.107545  0  0.104139  0.111628  0  1.035153  0
H  H44  1  0.33997260  0.66873288  0.60249642  1  0.073516  0  0.095375  0.094236  0  1.028356  0
H  H45  1  0.33126978  0.66002773  0.89750138  1  0.07344  0  0.095371  0.09423  0  1.028457  0
H  H46  1  0.66002714  0.33126488  0.39750001  1  0.07351  0  0.095342  0.094165  0  1.028476  0
H  H47  1  0.66873291  0.33997010  0.10249709  1  0.073547  0  0.095372  0.094206  0  1.028436  0
H  H48  1  0.28728975  0.54463639  0.42928695  1  0.123156  0  0.116011  0.089382  0  1.022812  0
H  H49  1  0.45536602  0.71270880  0.07071433  1  0.123097  0  0.116022  0.089383  0  1.022807  0
H  H50  1  0.71270925  0.45536623  0.57071571  1  0.12311  0  0.116017  0.089368  0  1.022846  0
H  H51  1  0.54463667  0.28729228  0.92928872  1  0.123082  0  0.116002  0.089381  0  1.022799  0
H  H52  1  0.49511814  0.59459113  0.32755816  1  0.156689  0  0.122438  0.105768  0  1.005034  0
H  H53  1  0.40540866  0.50488143  0.17244516  1  0.156659  0  0.122498  0.10587  0  1.004853  0
H  H54  1  0.50488231  0.40540629  0.67244683  1  0.156685  0  0.122457  0.105775  0  1.005014  0
H  H55  1  0.59459403  0.49511704  0.82755542  1  0.156748  0  0.122403  0.105733  0  1.005078  0
H  H56  1  0.20491965  0.05175656  0.46677393  1  0.08713  0  0.097313  0.107439  0  1.05644  0
H  H57  1  0.94824278  0.79508285  0.03322457  1  0.087449  0  0.097335  0.107475  0  1.05644  0
H  H58  1  0.79508748  0.94824530  0.53322754  1  0.087385  0  0.097373  0.107486  0  1.056398  0
H  H59  1  0.05175769  0.20491394  0.96677432  1  0.087394  0  0.09736  0.10749  0  1.056402  0
H  H60  1  0.28888109  0.33596936  0.62305439  1  0.105614  0  0.096773  0.101447  0  1.075394  0
H  H61  1  0.66403541  0.71112526  0.87694256  1  0.105187  0  0.096805  0.101473  0  1.075468  0
H  H62  1  0.71112162  0.66403370  0.37694551  1  0.10517  0  0.096795  0.101443  0  1.075453  0
H  H63  1  0.33596729  0.28887518  0.12305737  1  0.105102  0  0.096774  0.101429  0  1.075454  0
H  H64  1  0.41906422  0.82864077  0.27277495  1  0.073352  0  0.098799  0.095554  0  1.030182  0
H  H65  1  0.17135841  0.58093276  0.22722414  1  0.073288  0  0.098817  0.095579  0  1.030116  0
H  H66  1  0.58093406  0.17135826  0.72722194  1  0.073382  0  0.098825  0.095593  0  1.030114  0
H  H67  1  0.82864058  0.41906464  0.77277560  1  0.073313  0  0.098815  0.095583  0  1.030124  0
H  H68  1  0.03191810  0.63027615  0.39559349  1  0.110038  0  0.098358  0.065711  0  1.059815  0
H  H69  1  0.36972506  0.96808319  0.10440493  1  0.110083  0  0.098368  0.065705  0  1.059821  0
H  H70  1  0.96808090  0.36972517  0.60440843  1  0.110024  0  0.098356  0.065667  0  1.059892  0
H  H71  1  0.63027395  0.03191553  0.89559204  1  0.110038  0  0.098385  0.065731  0  1.059858  0
H  H72  1  0.01937124  0.53253446  0.43159239  1  0.053617  0  0.101725  0.081208  0  0.987127  0
H  H73  1  0.46746806  0.98063192  0.06840850  1  0.053591  0  0.101738  0.081206  0  0.987179  0
H  H74  1  0.98062702  0.46746977  0.56841142  1  0.053837  0  0.101729  0.081217  0  0.987307  0
H  H75  1  0.53253169  0.01937106  0.93159136  1  0.053895  0  0.101738  0.081223  0  0.987258  0
H  H76  1  0.35714920  0.86264108  0.47351554  1  0.076376  0  0.101509  0.103603  0  1.023167  0
H  H77  1  0.13735983  0.64285396  0.02648556  1  0.076273  0  0.101512  0.103587  0  1.023171  0
H  H78  1  0.64284759  0.13735529  0.52648012  1  0.076432  0  0.1015  0.103611  0  1.023202  0
H  H79  1  0.86264287  0.35714778  0.97351560  1  0.076376  0  0.101528  0.103618  0  1.023155  0
H  H80  1  0.39907046  0.85058319  0.65205855  1  0.035635  0  0.095342  0.098265  0  1.043612  0
H  H81  1  0.14941863  0.60092975  0.84794171  1  0.03566  0  0.095344  0.098261  0  1.04363  0
H  H82  1  0.60092778  0.14941320  0.34794237  1  0.035623  0  0.095362  0.098283  0  1.043625  0
H  H83  1  0.85058406  0.39906874  0.15205838  1  0.035663  0  0.095354  0.098291  0  1.043592  0
H  H84  1  0.43346710  0.17348059  0.49660125  1  0.085684  0  0.103049  0.108793  0  1.031437  0
H  H85  1  0.82651766  0.56653016  0.00339701  1  0.08573  0  0.103057  0.108797  0  1.031421  0
H  H86  1  0.56652672  0.82651244  0.50339529  1  0.085629  0  0.103034  0.108771  0  1.031482  0
H  H87  1  0.17348653  0.43347424  0.99660290  1  0.085663  0  0.103065  0.108796  0  1.031444  0
H  H88  1  0.21393835  0.21874654  0.49284476  1  0.083531  0  0.100628  0.104659  0  1.007219  0
H  H89  1  0.78125375  0.78606710  0.00715260  1  0.083533  0  0.100663  0.104695  0  1.007266  0
H  H90  1  0.78606804  0.78125367  0.50715529  1  0.083447  0  0.100628  0.104637  0  1.007265  0
H  H91  1  0.21874746  0.21393069  0.99284709  1  0.083471  0  0.100647  0.104668  0  1.007298  0
H  H92  1  0.36295840  0.02023760  0.47566467  1  0.100902  0  0.102461  0.103776  0  1.036399  0
H  H93  1  0.97976329  0.63704326  0.02433725  1  0.100693  0  0.102442  0.10374  0  1.036361  0
H  H94  1  0.63703764  0.97975973  0.52433303  1  0.100861  0  0.102439  0.103672  0  1.036452  0
H  H95  1  0.02024090  0.36296245  0.97566439  1  0.100882  0  0.102468  0.103757  0  1.036438  0
H  H96  1  0.70618414  0.44788620  0.25955971  1  0.090637  0  0.098322  0.092794  0  1.021522  0
H  H97  1  0.55210939  0.29381457  0.24043783  1  0.091087  0  0.098229  0.092658  0  1.021464  0
H  H98  1  0.29381930  0.55211915  0.74044273  1  0.090716  0  0.098331  0.092785  0  1.021608  0
H  H99  1  0.44788222  0.70618068  0.75955920  1  0.091059  0  0.098307  0.092766  0  1.021584  0
H  H100  1  0.42958553  0.98950430  0.27600584  1  0.097871  0  0.102912  0.100578  0  1.048465  0
H  H101  1  0.01049232  0.57040755  0.22399127  1  0.098007  0  0.102941  0.100555  0  1.048533  0
H  H102  1  0.57040830  0.01049265  0.72399040  1  0.098044  0  0.102957  0.1006  0  1.048522  0
H  H103  1  0.98950743  0.42959346  0.77600874  1  0.097944  0  0.102942  0.100554  0  1.048528  0
H  H104  1  0.37902026  0.09155676  0.26373689  1  0.114609  0  0.105132  0.111838  0  1.056578  0
H  H105  1  0.90844418  0.62097940  0.23626275  1  0.114606  0  0.10514  0.111849  0  1.05653  0
H  H106  1  0.62097876  0.90844523  0.73626117  1  0.114626  0  0.10512  0.11184  0  1.056478  0
H  H107  1  0.09155929  0.37902989  0.76373840  1  0.114465  0  0.105141  0.111802  0  1.056425  0
H  H108  1  0.17263284  0.55807489  0.50887417  1  0.075431  0  0.095878  0.097052  0  1.054154  0
H  H109  1  0.44192735  0.82736622  0.99112589  1  0.075387  0  0.095874  0.097041  0  1.054155  0
H  H110  1  0.82736619  0.44192645  0.49112227  1  0.075458  0  0.095863  0.097011  0  1.054207  0
H  H111  1  0.55807459  0.17263061  0.00887477  1  0.075417  0  0.095881  0.096999  0  1.054213  0
H  H112  1  0.43828538  0.33222896  0.49542739  1  0.14598  0  0.115256  0.090921  0  1.036119  0
H  H113  1  0.66777062  0.56171506  0.00457184  1  0.14598  0  0.115243  0.090922  0  1.036098  0
H  H114  1  0.56171065  0.66776639  0.50457295  1  0.145793  0  0.11524  0.09089  0  1.036159  0
H  H115  1  0.33223432  0.43829036  0.99542738  1  0.145812  0  0.115226  0.090865  0  1.036115  0
H  H116  1  0.14764565  0.77797472  0.67858621  1  0.0784  0  0.10212  0.105584  0  1.036828  0
H  H117  1  0.22202738  0.85235613  0.82141707  1  0.078392  0  0.102132  0.105594  0  1.036854  0
H  H118  1  0.85235187  0.22202395  0.32141399  1  0.078325  0  0.102135  0.105645  0  1.036845  0
H  H119  1  0.77797457  0.14764461  0.17858528  1  0.078396  0  0.102119  0.105593  0  1.036822  0
H  H120  1  0.82701092  0.02888806  0.66991715  1  0.076293  0  0.100968  0.10412  0  1.033253  0
H  H121  1  0.97111016  0.17298855  0.83008399  1  0.07638  0  0.100968  0.104123  0  1.033284  0
H  H122  1  0.17298882  0.97110969  0.33008178  1  0.076304  0  0.100944  0.104067  0  1.033307  0
H  H123  1  0.02889032  0.82701281  0.16991820  1  0.076332  0  0.100947  0.104114  0  1.033298  0
H  H124  1  0.86050112  0.77094645  0.70130756  1  0.132454  0  0.102886  0.12007  0  1.044418  0
H  H125  1  0.22905517  0.13949983  0.79869721  1  0.132116  0  0.102868  0.120062  0  1.044383  0
H  H126  1  0.13949936  0.22905361  0.29869291  1  0.132459  0  0.102879  0.120075  0  1.044418  0
H  H127  1  0.77094603  0.86050121  0.20130705  1  0.132462  0  0.102873  0.120059  0  1.044456  0
H  H128  1  0.84921185  0.91843159  0.69267390  1  0.04172  0  0.098914  0.096798  0  1.023502  0
H  H129  1  0.08156857  0.15078615  0.80732676  1  0.041761  0  0.098918  0.096801  0  1.023572  0
H  H130  1  0.15078863  0.08156846  0.30732756  1  0.04174  0  0.098915  0.096798  0  1.023497  0
H  H131  1  0.91843338  0.84921525  0.19267521  1  0.041685  0  0.098902  0.096749  0  1.023611  0
H  H132  1  0.83814626  0.19091544  0.67540401  1  0.074356  0  0.105374  0.074284  0  0.998617  0
H  H133  1  0.80908276  0.16185357  0.82459686  1  0.074773  0  0.105385  0.07431  0  0.998576  0
H  H134  1  0.16185348  0.80908231  0.32459542  1  0.074741  0  0.105398  0.074331  0  0.998633  0
H  H135  1  0.19091773  0.83814844  0.17540396  1  0.074777  0  0.1054  0.074323  0  0.998622  0
H  H136  1  0.17570615  0.64877094  0.71483350  1  0.058279  0  0.1079  0.076456  0  1.003203  0
H  H137  1  0.35123030  0.82429664  0.78516914  1  0.058429  0  0.107917  0.076447  0  1.003197  0
H  H138  1  0.82429284  0.35122906  0.28516919  1  0.058213  0  0.107854  0.076384  0  1.003238  0
H  H139  1  0.64877019  0.17570472  0.21483157  1  0.058405  0  0.107903  0.076453  0  1.003186  0
H  H140  1  0.84327049  0.61975200  0.66262459  1  0.139434  0  0.109147  0.130979  0  1.042458  0
H  H141  1  0.38024944  0.15673042  0.83737800  1  0.139467  0  0.109135  0.130967  0  1.042447  0
H  H142  1  0.15672482  0.38024303  0.33737057  1  0.139446  0  0.10915  0.131017  0  1.042444  0
H  H143  1  0.61975251  0.84327163  0.16262409  1  0.139444  0  0.109161  0.131006  0  1.042476  0
H  H144  1  0.08242183  0.83292702  0.60025987  1  0.05434  0  0.097805  0.094922  0  1.060837  0
H  H145  1  0.16707115  0.91757815  0.89974252  1  0.054317  0  0.097827  0.094933  0  1.060771  0
H  H146  1  0.91757716  0.16706974  0.39973875  1  0.054286  0  0.097795  0.0949  0  1.060794  0
H  H147  1  0.83292784  0.08242120  0.10025906  1  0.054344  0  0.097812  0.094942  0  1.060797  0
H  H148  1  0.06969892  0.97967572  0.58951219  1  0.065949  0  0.099384  0.100265  0  1.027084  0
H  H149  1  0.02032229  0.93030136  0.91048840  1  0.066014  0  0.09939  0.100272  0  1.027084  0
H  H150  1  0.93030081  0.02032203  0.41048824  1  0.066026  0  0.099385  0.100243  0  1.027095  0
H  H151  1  0.97967745  0.06969965  0.08951261  1  0.066037  0  0.099366  0.100232  0  1.027106  0
H  H152  1  0.88331899  0.49381573  0.69561598  1  0.063842  0  0.102935  0.067279  0  1.013771  0
H  H153  1  0.50618531  0.11668193  0.80438636  1  0.064009  0  0.102919  0.06727  0  1.013821  0
H  H154  1  0.11667927  0.50618264  0.30438380  1  0.063893  0  0.102914  0.06725  0  1.013785  0
H  H155  1  0.49381443  0.88331778  0.19561391  1  0.064007  0  0.102934  0.067284  0  1.013795  0
H  H156  1  0.09372650  0.27709605  0.62479186  1  0.082122  0  0.104301  0.07057  0  1.032041  0
H  H157  1  0.72290169  0.90627320  0.87520879  1  0.082273  0  0.104294  0.070554  0  1.032041  0
H  H158  1  0.90627397  0.72290204  0.37520876  1  0.082302  0  0.104286  0.070539  0  1.03203  0
H  H159  1  0.27709880  0.09372817  0.12479191  1  0.082256  0  0.10429  0.070553  0  1.032067  0
H  H160  1  0.09668350  0.12123867  0.61960483  1  0.10277  0  0.101718  0.108361  0  1.045066  0
H  H161  1  0.87875882  0.90331636  0.88039464  1  0.102742  0  0.101716  0.108313  0  1.045154  0
H  H162  1  0.90331771  0.87875977  0.38039549  1  0.102782  0  0.101725  0.108319  0  1.045141  0
H  H163  1  0.12124092  0.09668465  0.11960636  1  0.10241  0  0.101725  0.108334  0  1.045124  0
C  C164  1  0.39931144  0.23418105  0.32165258  1  0.439407  0  0.045107  0.097232  0  3.93411  0
C  C165  1  0.76581902  0.60068722  0.17834736  1  0.439405  0  0.045103  0.097227  0  3.934173  0
C  C166  1  0.60068386  0.76581919  0.67834800  1  0.439907  0  0.045063  0.097197  0  3.934167  0
C  C167  1  0.23418372  0.39932174  0.82165160  1  0.440066  0  0.045047  0.097017  0  3.934416  0
C  C168  1  0.35696373  0.30237798  0.74415825  1  1.54885  0  0.190353  0.538527  0  4.242248  0
C  C169  1  0.69762196  0.64303828  0.75583946  1  1.548675  0  0.190293  0.538461  0  4.242282  0
C  C170  1  0.64303602  0.69762304  0.25584226  1  1.548233  0  0.190283  0.538438  0  4.242294  0
C  C171  1  0.30237779  0.35696209  0.24415944  1  1.548497  0  0.190318  0.538491  0  4.242219  0
C  C172  1  0.29905667  0.94998456  0.61535312  1  0.420444  0  -0.060759  -0.010047  0  3.902503  0
C  C173  1  0.05001783  0.70094167  0.88464812  1  0.420368  0  -0.060755  -0.010021  0  3.902484  0
C  C174  1  0.70094602  0.05001652  0.38464992  1  0.420611  0  -0.060754  -0.010108  0  3.902511  0
C  C175  1  0.94998263  0.29905381  0.11535153  1  0.420607  0  -0.060756  -0.010049  0  3.90264  0
C  C176  1  0.44792066  0.70750470  0.34470129  1  -0.027692  0  -0.086942  -0.180665  0  3.936433  0
C  C177  1  0.29249657  0.55207936  0.15530055  1  -0.028447  0  -0.086921  -0.180656  0  3.936446  0
C  C178  1  0.55207834  0.29249400  0.65529868  1  -0.027851  0  -0.086941  -0.180608  0  3.936571  0
C  C179  1  0.70750611  0.44791912  0.84470153  1  -0.028547  0  -0.087015  -0.180618  0  3.936593  0
C  C180  1  0.17461435  0.77907454  0.52739499  1  -0.07483  0  -0.091433  -0.184206  0  3.945801  0
C  C181  1  0.22092582  0.82538332  0.97260672  1  -0.074761  0  -0.091423  -0.184179  0  3.945839  0
C  C182  1  0.82538761  0.22092816  0.47260771  1  -0.074778  0  -0.091377  -0.18415  0  3.945747  0
C  C183  1  0.77907168  0.17460946  0.02739392  1  -0.074946  0  -0.091413  -0.184137  0  3.945559  0
C  C184  1  0.30670118  0.13777673  0.65247541  1  -0.047705  0  -0.113509  -0.257235  0  3.996916  0
C  C185  1  0.86222580  0.69330187  0.84752332  1  -0.047727  0  -0.113552  -0.257329  0  3.996994  0
C  C186  1  0.69330077  0.86222402  0.34752594  1  -0.047937  0  -0.113521  -0.257269  0  3.996945  0
C  C187  1  0.13777691  0.30670054  0.15247597  1  -0.047709  0  -0.113513  -0.257238  0  3.99697  0
C  C188  1  0.40500846  0.11616730  0.37968929  1  -0.083737  0  0.010369  0.106307  0  3.983945  0
C  C189  1  0.88383161  0.59498974  0.12030972  1  -0.083741  0  0.010384  0.106302  0  3.983913  0
C  C190  1  0.59498759  0.88382938  0.62030779  1  -0.083912  0  0.010326  0.106236  0  3.983943  0
C  C191  1  0.11617260  0.40501989  0.87969212  1  -0.084709  0  0.010267  0.106158  0  3.984024  0
C  C192  1  0.87137033  0.58096951  0.43318907  1  0.437569  0  0.079093  0.250605  0  4.076677  0
C  C193  1  0.41903298  0.12862745  0.06680800  1  0.439887  0  0.079095  0.250659  0  4.076654  0
C  C194  1  0.12863017  0.41903773  0.56681318  1  0.437388  0  0.079073  0.250607  0  4.076675  0
C  C195  1  0.58096454  0.87136861  0.93318873  1  0.437416  0  0.079014  0.250503  0  4.076772  0
C  C196  1  0.38734624  0.73935916  0.37303550  1  -0.01658  0  0.009128  0.105088  0  3.998352  0
C  C197  1  0.26064208  0.61265374  0.12696593  1  -0.016545  0  0.009101  0.105058  0  3.998114  0
C  C198  1  0.61265129  0.26063886  0.62696208  1  -0.016456  0  0.009138  0.105073  0  3.998182  0
C  C199  1  0.73936134  0.38734508  0.87303634  1  -0.01657  0  0.009206  0.105186  0  3.998246  0
C  C200  1  0.26701368  0.84169810  0.58237704  1  0.006481  0  -0.02004  0.073439  0  4.006179  0
C  C201  1  0.15830355  0.73298512  0.91762407  1  0.00639  0  -0.020056  0.073433  0  4.006232  0
C  C202  1  0.73298902  0.15830298  0.41762551  1  0.006423  0  -0.020104  0.073408  0  4.006214  0
C  C203  1  0.84169691  0.26700971  0.08237497  1  0.00641  0  -0.020086  0.073349  0  4.006067  0
C  C204  1  0.66712756  0.48847608  0.35374761  1  -0.05428  0  -0.096447  -0.131322  0  3.981973  0
C  C205  1  0.51152242  0.33286981  0.14624681  1  -0.055086  0  -0.096386  -0.131185  0  3.981481  0
C  C206  1  0.33287589  0.51152732  0.64625299  1  -0.053865  0  -0.096484  -0.131331  0  3.981792  0
C  C207  1  0.48847288  0.66712391  0.85374861  1  -0.054449  0  -0.096417  -0.131239  0  3.981692  0
C  C208  1  0.70391203  0.53777351  0.42977866  1  0.000502  0  -0.021959  -0.028595  0  4.004456  0
C  C209  1  0.46222626  0.29608431  0.07021532  1  0.000842  0  -0.021998  -0.028764  0  4.00462  0
C  C210  1  0.29608845  0.46222916  0.57022228  1  0.000424  0  -0.021951  -0.028589  0  4.004369  0
C  C211  1  0.53777200  0.70391080  0.92977988  1  0.000629  0  -0.021966  -0.028659  0  4.004558  0
C  C212  1  0.80528592  0.58426360  0.46899581  1  -0.091293  0  -0.097819  -0.215641  0  3.952246  0
C  C213  1  0.41573887  0.19471011  0.03099952  1  -0.093293  0  -0.097757  -0.215539  0  3.952269  0
C  C214  1  0.19471309  0.41574099  0.53100570  1  -0.091497  0  -0.097774  -0.215613  0  3.952186  0
C  C215  1  0.58426161  0.80528604  0.96899626  1  -0.091269  0  -0.097798  -0.215584  0  3.95221  0
C  C216  1  0.83529225  0.53131952  0.35730833  1  -0.013889  0  -0.107137  -0.218477  0  3.982732  0
C  C217  1  0.46868280  0.16470643  0.14268986  1  -0.013691  0  -0.107149  -0.218608  0  3.982701  0
C  C218  1  0.16471121  0.46868976  0.64269531  1  -0.013849  0  -0.107062  -0.218365  0  3.982794  0
C  C219  1  0.53131176  0.83528825  0.85730710  1  -0.013828  0  -0.107075  -0.218385  0  3.982778  0
C  C220  1  0.32730578  0.67850167  0.40325451  1  -0.077337  0  -0.089269  -0.187356  0  3.957178  0
C  C221  1  0.32150131  0.67269476  0.09674782  1  -0.077623  0  -0.089286  -0.187346  0  3.957035  0
C  C222  1  0.67269471  0.32150035  0.59674631  1  -0.077662  0  -0.089289  -0.187335  0  3.957125  0
C  C223  1  0.67850064  0.32730402  0.90325418  1  -0.077629  0  -0.089246  -0.187321  0  3.95721  0
C  C224  1  0.29348622  0.70004866  0.58201482  1  -0.083259  0  -0.094494  -0.067733  0  4.023128  0
C  C225  1  0.29995389  0.70651416  0.91798455  1  -0.082994  0  -0.094508  -0.067756  0  4.023241  0
C  C226  1  0.70651353  0.29995041  0.41798285  1  -0.082965  0  -0.094485  -0.067668  0  4.023241  0
C  C227  1  0.70004732  0.29348297  0.08201453  1  -0.08323  0  -0.094541  -0.06781  0  4.023351  0
C  C228  1  0.33179235  0.59259760  0.40520967  1  0.452021  0  0.04388  0.09014  0  3.953098  0
C  C229  1  0.40740298  0.66820660  0.09479186  1  0.452386  0  0.043894  0.090217  0  3.953033  0
C  C230  1  0.66820590  0.40740076  0.59479060  1  0.452297  0  0.043847  0.090146  0  3.95316  0
C  C231  1  0.59259971  0.33179449  0.90521018  1  0.45232  0  0.043867  0.090133  0  3.953148  0
C  C232  1  0.44809357  0.62035133  0.34866236  1  0.460827  0  0.051284  0.103088  0  3.909692  0
C  C233  1  0.37964873  0.55190550  0.15133850  1  0.460787  0  0.051226  0.103044  0  3.909613  0
C  C234  1  0.55190616  0.37964707  0.65133868  1  0.461115  0  0.05127  0.103089  0  3.909793  0
C  C235  1  0.62035470  0.44809332  0.84866177  1  0.46108  0  0.051352  0.103157  0  3.909802  0
C  C236  1  0.38889315  0.83381190  0.37327986  1  -0.043851  0  -0.010039  0.054587  0  3.999069  0
C  C237  1  0.16618957  0.61110868  0.12672154  1  -0.04391  0  -0.010013  0.054621  0  3.998995  0
C  C238  1  0.61110586  0.16618486  0.62671677  1  -0.043343  0  -0.010062  0.054465  0  3.999196  0
C  C239  1  0.83381386  0.38889211  0.87328008  1  -0.043772  0  -0.010041  0.054485  0  3.999101  0
C  C240  1  0.23518134  0.10351302  0.52254567  1  -0.041709  0  -0.106825  -0.205401  0  3.999138  0
C  C241  1  0.89648792  0.76482212  0.97745239  1  -0.042054  0  -0.106851  -0.205497  0  3.999148  0
C  C242  1  0.76482432  0.89648880  0.47745553  1  -0.042039  0  -0.10683  -0.205401  0  3.99911  0
C  C243  1  0.10351404  0.23517537  0.02254589  1  -0.041984  0  -0.106741  -0.205266  0  3.999113  0
C  C244  1  0.63528722  0.54365821  0.46970006  1  1.556232  0  0.221936  0.598693  0  4.179202  0
C  C245  1  0.45633929  0.36470920  0.03029460  1  1.556386  0  0.221926  0.598613  0  4.179138  0
C  C246  1  0.36470956  0.45633816  0.53029710  1  1.556184  0  0.221731  0.598368  0  4.179491  0
C  C247  1  0.54366045  0.63528856  0.96970284  1  1.556059  0  0.221889  0.598583  0  4.179295  0
C  C248  1  0.28139403  0.26193887  0.60987499  1  -0.041032  0  -0.101343  -0.134477  0  3.989459  0
C  C249  1  0.73806511  0.71861248  0.89012078  1  -0.040409  0  -0.101406  -0.134549  0  3.989747  0
C  C250  1  0.71860942  0.73806323  0.39012388  1  -0.040538  0  -0.101336  -0.134418  0  3.98944  0
C  C251  1  0.26193687  0.28138959  0.10987782  1  -0.040572  0  -0.10138  -0.134492  0  3.989531  0
C  C252  1  0.39850565  0.01900440  0.37682928  1  -0.007795  0  -0.005499  0.058486  0  3.975255  0
C  C253  1  0.98099486  0.60149378  0.12317092  1  -0.007779  0  -0.00551  0.058488  0  3.975245  0
C  C254  1  0.60149040  0.98099358  0.62316854  1  -0.007029  0  -0.005461  0.058542  0  3.975196  0
C  C255  1  0.01900786  0.39851254  0.87683106  1  -0.006452  0  -0.005498  0.058531  0  3.975311  0
C  C256  1  0.40839811  0.87166344  0.31800672  1  -0.079729  0  -0.089941  -0.125972  0  3.983746  0
C  C257  1  0.12833489  0.59159888  0.18199228  1  -0.079556  0  -0.089943  -0.125959  0  3.983721  0
C  C258  1  0.59159794  0.12833390  0.68198898  1  -0.079761  0  -0.08994  -0.125899  0  3.98376  0
C  C259  1  0.87166485  0.40840082  0.81800850  1  -0.079783  0  -0.089938  -0.125906  0  3.983713  0
C  C260  1  0.13936892  0.67668090  0.50144671  1  0.004257  0  -0.01575  0.090784  0  3.993503  0
C  C261  1  0.32331931  0.86062853  0.99855337  1  0.004326  0  -0.015725  0.090798  0  3.993526  0
C  C262  1  0.86063157  0.32332242  0.49855435  1  0.003917  0  -0.015774  0.090671  0  3.993595  0
C  C263  1  0.67667744  0.13936391  0.00144558  1  0.004162  0  -0.015775  0.090654  0  3.993638  0
C  C264  1  0.03765446  0.61094743  0.44546465  1  0.371876  0  -0.069263  -0.028963  0  3.886721  0
C  C265  1  0.38905251  0.96234371  0.05453346  1  0.37161  0  -0.069279  -0.028937  0  3.886707  0
C  C266  1  0.96234454  0.38905584  0.55453812  1  0.371818  0  -0.069265  -0.028889  0  3.887062  0
C  C267  1  0.61094427  0.03765136  0.94546246  1  0.371768  0  -0.069274  -0.028934  0  3.88707  0
C  C268  1  0.37257158  0.88959734  0.42972172  1  -0.036157  0  -0.082509  -0.108382  0  3.952993  0
C  C269  1  0.11040490  0.62743205  0.07028022  1  -0.036047  0  -0.082501  -0.108374  0  3.952941  0
C  C270  1  0.62742595  0.11039938  0.57027414  1  -0.036674  0  -0.082549  -0.108468  0  3.953121  0
C  C271  1  0.88959928  0.37257038  0.92972183  1  -0.036158  0  -0.082531  -0.108386  0  3.952938  0
C  C272  1  0.31349659  0.23217748  0.66689387  1  -0.037715  0  -0.019392  -0.002071  0  4.011656  0
C  C273  1  0.76782580  0.68650655  0.83310211  1  -0.037735  0  -0.019355  -0.00204  0  4.011768  0
C  C274  1  0.68650464  0.76782489  0.33310615  1  -0.037651  0  -0.01939  -0.002086  0  4.011717  0
C  C275  1  0.23217618  0.31349552  0.16689599  1  -0.037877  0  -0.019352  -0.002014  0  4.011716  0
C  C276  1  0.32686314  0.80173443  0.60927690  1  -0.025765  0  -0.098266  -0.15064  0  3.988789  0
C  C277  1  0.19826807  0.67313747  0.89072308  1  -0.025945  0  -0.098254  -0.150616  0  3.988776  0
C  C278  1  0.67313659  0.19826462  0.39072475  1  -0.025936  0  -0.098279  -0.150704  0  3.98883  0
C  C279  1  0.80173315  0.32686032  0.10927662  1  -0.025665  0  -0.098269  -0.150608  0  3.988695  0
C  C280  1  0.42227993  0.18695710  0.44515023  1  -0.015442  0  -0.08511  -0.172929  0  3.936988  0
C  C281  1  0.81304117  0.57771680  0.05484846  1  -0.015551  0  -0.085142  -0.172932  0  3.936894  0
C  C282  1  0.57771462  0.81303627  0.55484650  1  -0.01549  0  -0.085013  -0.172766  0  3.93684  0
C  C283  1  0.18696451  0.42229027  0.94515168  1  -0.01539  0  -0.085069  -0.17282  0  3.937029  0
C  C284  1  0.24078035  0.19674756  0.53769232  1  -0.030291  0  -0.09176  -0.058375  0  4.021756  0
C  C285  1  0.80325192  0.75922287  0.96230453  1  -0.030426  0  -0.091818  -0.058415  0  4.021929  0
C  C286  1  0.75922309  0.80325323  0.46230830  1  -0.030247  0  -0.091828  -0.058451  0  4.021769  0
C  C287  1  0.19674930  0.24077558  0.03769429  1  -0.030169  0  -0.091848  -0.058504  0  4.021971  0
C  C288  1  0.37738506  0.98023913  0.43140359  1  -0.020046  0  -0.084112  -0.117438  0  3.962491  0
C  C289  1  0.01976262  0.62261609  0.06859740  1  -0.019857  0  -0.084099  -0.117383  0  3.96239  0
C  C290  1  0.62261026  0.01975721  0.56859180  1  -0.020726  0  -0.084134  -0.117286  0  3.962323  0
C  C291  1  0.98024157  0.37738896  0.93140461  1  -0.020659  0  -0.084122  -0.117401  0  3.962406  0
C  C292  1  0.26904503  0.07431733  0.57989550  1  0.385338  0  0.074329  0.242444  0  4.090237  0
C  C293  1  0.92568361  0.73095548  0.92010446  1  0.385467  0  0.074357  0.242593  0  4.090125  0
C  C294  1  0.73095766  0.92568376  0.42010605  1  0.38563  0  0.074305  0.242443  0  4.090187  0
C  C295  1  0.07431909  0.26904431  0.07989486  1  0.385494  0  0.074279  0.242379  0  4.090308  0
C  C296  1  0.73350802  0.48576376  0.31860278  1  -0.067916  0  -0.093862  -0.066449  0  4.037316  0
C  C297  1  0.51423431  0.26649027  0.18139215  1  -0.068025  0  -0.093774  -0.066273  0  4.036932  0
C  C298  1  0.26649543  0.51424291  0.68139940  1  -0.067839  0  -0.093919  -0.06653  0  4.037313  0
C  C299  1  0.48575878  0.73350437  0.81860255  1  -0.067802  0  -0.093861  -0.066501  0  4.037237  0
C  C300  1  0.41298030  0.96224888  0.31945920  1  -0.080136  0  -0.085362  -0.119472  0  3.963474  0
C  C301  1  0.03774956  0.58701600  0.18053979  1  -0.080297  0  -0.085415  -0.119529  0  3.963555  0
C  C302  1  0.58701796  0.03774884  0.68053747  1  -0.08038  0  -0.085369  -0.11954  0  3.963682  0
C  C303  1  0.96225240  0.41298540  0.81946168  1  -0.080437  0  -0.085417  -0.119561  0  3.963697  0
C  C304  1  0.39419679  0.14269289  0.31693259  1  0.027331  0  -0.086402  -0.179857  0  3.930182  0
C  C305  1  0.85730758  0.60580293  0.18306751  1  0.027341  0  -0.086409  -0.179837  0  3.93014  0
C  C306  1  0.60579853  0.85730606  0.68306427  1  0.027248  0  -0.086375  -0.179834  0  3.930219  0
C  C307  1  0.14269738  0.39420901  0.81693487  1  0.027577  0  -0.086308  -0.179623  0  3.930186  0
C  C308  1  0.19944676  0.63766222  0.52897017  1  -0.054714  0  -0.095552  -0.144146  0  3.977673  0
C  C309  1  0.36233968  0.80055314  0.97102953  1  -0.054712  0  -0.09555  -0.144147  0  3.977657  0
C  C310  1  0.80055226  0.36233781  0.47102753  1  -0.054802  0  -0.095506  -0.144045  0  3.977629  0
C  C311  1  0.63766153  0.19944400  0.02897005  1  -0.054794  0  -0.095507  -0.143995  0  3.977814  0
C  C312  1  0.42566525  0.27664897  0.44529273  1  0.439017  0  0.047019  0.10125  0  3.921565  0
C  C313  1  0.72335112  0.57433450  0.05470741  1  0.43906  0  0.04706  0.101281  0  3.921526  0
C  C314  1  0.57433004  0.72334734  0.55470814  1  0.439441  0  0.0469  0.101137  0  3.921759  0
C  C315  1  0.27665308  0.42567188  0.94529185  1  0.439438  0  0.046974  0.101237  0  3.921724  0
C  C316  1  0.99283515  0.71225945  0.66887111  1  -0.033997  0  0.01229  0.111276  0  3.97609  0
C  C317  1  0.28774361  0.00716750  0.83113451  1  -0.033717  0  0.012224  0.111202  0  3.976011  0
C  C318  1  0.00716163  0.28773757  0.33112816  1  -0.033958  0  0.012225  0.111256  0  3.976094  0
C  C319  1  0.71225760  0.99283420  0.16886888  1  -0.033631  0  0.012279  0.111251  0  3.976092  0
C  C320  1  0.97639922  0.79355091  0.65479827  1  -0.048244  0  -0.004988  0.064895  0  3.978832  0
C  C321  1  0.20644814  0.02359990  0.84520462  1  -0.048067  0  -0.004908  0.064965  0  3.978824  0
C  C322  1  0.02359829  0.20644645  0.34520120  1  -0.048283  0  -0.004939  0.064947  0  3.978855  0
C  C323  1  0.79355159  0.97640045  0.15479826  1  -0.048202  0  -0.004893  0.065026  0  3.978724  0
C  C324  1  0.08635695  0.71674481  0.68203766  1  -0.038724  0  -0.084963  -0.17141  0  3.94348  0
C  C325  1  0.28325649  0.91364426  0.81796538  1  -0.038518  0  -0.084902  -0.171353  0  3.943548  0
C  C326  1  0.91363983  0.28325221  0.31796112  1  -0.038805  0  -0.085031  -0.171606  0  3.943671  0
C  C327  1  0.71674472  0.08635613  0.18203578  1  -0.038533  0  -0.084983  -0.171461  0  3.9435  0
C  C328  1  0.96126789  0.96390520  0.64299632  1  -0.071387  0  -0.007055  0.053222  0  3.992673  0
C  C329  1  0.03609343  0.03873171  0.85700378  1  -0.071444  0  -0.007043  0.053237  0  3.992546  0
C  C330  1  0.03873185  0.03609255  0.35700211  1  -0.071378  0  -0.007007  0.053279  0  3.992577  0
C  C331  1  0.96390631  0.96126865  0.14299761  1  -0.07138  0  -0.007079  0.053234  0  3.992642  0
C  C332  1  0.88861496  0.08131204  0.65993818  1  -0.089473  0  -0.091595  -0.190675  0  3.973487  0
C  C333  1  0.91868612  0.11138404  0.84006236  1  -0.08963  0  -0.091628  -0.190784  0  3.973592  0
C  C334  1  0.11138478  0.91868506  0.34006064  1  -0.089601  0  -0.091595  -0.190656  0  3.973545  0
C  C335  1  0.08131436  0.88861731  0.15993983  1  -0.089771  0  -0.091555  -0.190679  0  3.973467  0
C  C336  1  0.90747349  0.81693747  0.67734758  1  0.00469  0  -0.083451  -0.110232  0  3.923058  0
C  C337  1  0.18306341  0.09252541  0.82265320  1  0.005167  0  -0.083512  -0.110292  0  3.923051  0
C  C338  1  0.09252551  0.18306255  0.32265212  1  0.004725  0  -0.083469  -0.110282  0  3.923144  0
C  C339  1  0.81693632  0.90747429  0.17734808  1  0.00467  0  -0.083496  -0.110307  0  3.923154  0
C  C340  1  0.90063088  0.90067839  0.67167776  1  -0.042679  0  -0.085809  -0.111147  0  3.959999  0
C  C341  1  0.09932356  0.09936959  0.82832508  1  -0.042542  0  -0.085832  -0.111207  0  3.960048  0
C  C342  1  0.09936887  0.09932198  0.32832163  1  -0.042683  0  -0.085805  -0.111129  0  3.960001  0
C  C343  1  0.90067840  0.90063311  0.17167812  1  -0.042675  0  -0.085771  -0.111083  0  3.960151  0
C  C344  1  0.89443194  0.17280330  0.66283237  1  0.51709  0  0.036699  0.087514  0  4.010996  0
C  C345  1  0.82719409  0.10556680  0.83716758  1  0.516983  0  0.036736  0.087551  0  4.01098  0
C  C346  1  0.10556780  0.82719380  0.33716644  1  0.516946  0  0.036701  0.087465  0  4.011082  0
C  C347  1  0.17280639  0.89443391  0.16283350  1  0.516998  0  0.036664  0.087428  0  4.011024  0
C  C348  1  0.10234790  0.64411278  0.70273820  1  0.47938  0  0.035753  0.080462  0  4.012046  0
C  C349  1  0.35588828  0.89765284  0.79726411  1  0.478965  0  0.035805  0.080556  0  4.0121  0
C  C350  1  0.89764962  0.35588719  0.29726422  1  0.479415  0  0.035953  0.080757  0  4.011883  0
C  C351  1  0.64411146  0.10234688  0.20273517  1  0.478962  0  0.035845  0.080589  0  4.011951  0
C  C352  1  0.91808048  0.62909507  0.67320895  1  -0.062858  0  -0.090292  -0.193447  0  3.938772  0
C  C353  1  0.37090659  0.08192071  0.82679365  1  -0.062916  0  -0.090303  -0.193438  0  3.938701  0
C  C354  1  0.08191556  0.37090095  0.32678801  1  -0.062804  0  -0.090273  -0.193426  0  3.938601  0
C  C355  1  0.62909462  0.91808034  0.17320812  1  -0.062887  0  -0.090342  -0.193511  0  3.938824  0
C  C356  1  0.03289367  0.85312210  0.62205205  1  0.003037  0  -0.087853  -0.118054  0  3.969361  0
C  C357  1  0.14687579  0.96710522  0.87794916  1  0.002825  0  -0.087893  -0.11802  0  3.96939  0
C  C358  1  0.96710458  0.14687431  0.37794637  1  0.00299  0  -0.087842  -0.117987  0  3.969318  0
C  C359  1  0.85312321  0.03289479  0.12205253  1  0.002859  0  -0.087885  -0.118105  0  3.969248  0
C  C360  1  0.02504946  0.93601633  0.61576842  1  -0.024798  0  -0.087591  -0.115938  0  3.964808  0
C  C361  1  0.06398084  0.97494847  0.88423160  1  -0.024935  0  -0.087565  -0.115951  0  3.964786  0
C  C362  1  0.97494953  0.06398042  0.38423070  1  -0.024811  0  -0.087642  -0.116024  0  3.964782  0
C  C363  1  0.93601890  0.02505124  0.11576918  1  -0.024813  0  -0.087538  -0.115881  0  3.964699  0
C  C364  1  0.94117877  0.55923004  0.69280818  1  0.484964  0  0.032919  0.078332  0  4.02754  0
C  C365  1  0.44077129  0.05882207  0.80719421  1  0.484796  0  0.032927  0.078316  0  4.027734  0
C  C366  1  0.05881801  0.44076632  0.30718998  1  0.484956  0  0.032951  0.078334  0  4.027395  0
C  C367  1  0.55922845  0.94117764  0.19280607  1  0.484791  0  0.032934  0.078319  0  4.027629  0
C  C368  1  0.96134844  0.05813061  0.64415556  1  -0.007095  0  0.009079  0.102331  0  3.987844  0
C  C369  1  0.94186625  0.03865048  0.85584463  1  -0.007065  0  0.009095  0.102412  0  3.987857  0
C  C370  1  0.03865129  0.94186648  0.35584375  1  -0.006868  0  0.009068  0.102328  0  3.987856  0
C  C371  1  0.05813423  0.96135088  0.14415707  1  -0.006877  0  0.009036  0.102292  0  3.98784  0
C  C372  1  0.03524793  0.22019088  0.63463557  1  0.486283  0  0.037083  0.091992  0  3.989721  0
C  C373  1  0.77980600  0.96475090  0.86536478  1  0.486125  0  0.037106  0.092068  0  3.98964  0
C  C374  1  0.96475255  0.77980786  0.36536517  1  0.486194  0  0.037145  0.092093  0  3.989728  0
C  C375  1  0.22019374  0.03524946  0.13463611  1  0.486152  0  0.037097  0.092005  0  3.989706  0
C  C376  1  0.03622521  0.13133633  0.63114837  1  -0.083021  0  -0.087236  -0.175591  0  3.927601  0
C  C377  1  0.86866083  0.96377361  0.86885193  1  -0.082912  0  -0.087293  -0.175632  0  3.927753  0
C  C378  1  0.96377452  0.86866142  0.36885155  1  -0.083177  0  -0.087279  -0.175581  0  3.927788  0
C  C379  1  0.13133965  0.03622774  0.13115027  1  -0.082776  0  -0.087269  -0.175576  0  3.92777  0
N  N380  1  0.39137081  0.56375623  0.37895779  1  -1.216319  0  -0.317678  -0.22628  0  3.504529  0
N  N381  1  0.43624422  0.60862761  0.12104403  1  -1.216389  0  -0.317692  -0.22635  0  3.504469  0
N  N382  1  0.60862745  0.43624278  0.62104410  1  -1.216666  0  -0.317679  -0.226289  0  3.504402  0
N  N383  1  0.56375920  0.39137252  0.87895798  1  -1.216616  0  -0.317703  -0.226345  0  3.504506  0
N  N384  1  0.41388964  0.30049057  0.38453452  1  -1.229213  0  -0.3185  -0.229892  0  3.5134  0
N  N385  1  0.69950947  0.58611070  0.11546526  1  -1.229187  0  -0.318494  -0.22991  0  3.513453  0
N  N386  1  0.58610713  0.69950840  0.61546759  1  -1.229543  0  -0.318357  -0.229788  0  3.513446  0
N  N387  1  0.30049400  0.41389534  0.88453281  1  -1.229685  0  -0.318392  -0.229756  0  3.513453  0
N  N388  1  0.03192340  0.56612832  0.70928321  1  -1.212939  0  -0.331618  -0.293534  0  3.382709  0
N  N389  1  0.43387217  0.96807806  0.79072012  1  -1.212905  0  -0.331689  -0.293589  0  3.382877  0
N  N390  1  0.96807411  0.43386969  0.29071837  1  -1.212895  0  -0.331729  -0.293657  0  3.382556  0
N  N391  1  0.56612832  0.03192330  0.20928058  1  -1.212899  0  -0.331708  -0.293596  0  3.382725  0
N  N392  1  0.96650566  0.24273974  0.65085286  1  -1.216637  0  -0.325812  -0.276641  0  3.352909  0
N  N393  1  0.75725813  0.03349437  0.84914740  1  -1.216703  0  -0.325783  -0.276622  0  3.352888  0
N  N394  1  0.03349408  0.75725867  0.34914669  1  -1.216675  0  -0.325798  -0.276615  0  3.352927  0
N  N395  1  0.24274087  0.96650630  0.15085291  1  -1.216684  0  -0.325775  -0.276544  0  3.352857  0
O  O396  1  0.39852803  0.39467027  0.75769578  1  -1.162783  0  -0.315522  -0.541054  0  2.153107  0
O  O397  1  0.60532968  0.60147164  0.74230556  1  -1.162648  0  -0.315521  -0.541066  0  2.153035  0
O  O398  1  0.60147097  0.60533039  0.24230603  1  -1.162637  0  -0.315499  -0.541029  0  2.153071  0
O  O399  1  0.39467006  0.39852741  0.25769410  1  -1.162638  0  -0.315496  -0.541036  0  2.153016  0
O  O400  1  0.34980072  0.26472326  0.79471017  1  -1.166559  0  -0.322774  -0.554287  0  2.309471  0
O  O401  1  0.73527263  0.65019934  0.70528494  1  -1.166499  0  -0.322737  -0.55421  0  2.309499  0
O  O402  1  0.65020124  0.73527553  0.20528884  1  -1.166207  0  -0.322735  -0.554218  0  2.30952  0
O  O403  1  0.26472490  0.34979934  0.29471326  1  -1.166266  0  -0.32279  -0.554316  0  2.309563  0
O  O404  1  0.54805481  0.52163326  0.43271616  1  -1.211949  0  -0.322232  -0.57619  0  2.442981  0
O  O405  1  0.47836720  0.45194338  0.06727891  1  -1.212102  0  -0.322276  -0.576184  0  2.443024  0
O  O406  1  0.45194348  0.47837099  0.56728167  1  -1.211847  0  -0.322182  -0.576104  0  2.443135  0
O  O407  1  0.52163106  0.54805498  0.93272036  1  -1.211876  0  -0.322276  -0.576188  0  2.443078  0
O  O408  1  0.67155673  0.57412230  0.53948542  1  -1.163165  0  -0.316868  -0.546537  0  2.364435  0
O  O409  1  0.42587454  0.32843952  0.96050917  1  -1.163126  0  -0.31683  -0.54642  0  2.364296  0
O  O410  1  0.32843637  0.42587887  0.46051344  1  -1.163127  0  -0.31675  -0.546303  0  2.364441  0
O  O411  1  0.57412079  0.67156139  0.03948704  1  -1.163056  0  -0.316812  -0.546427  0  2.364316  0
O  O412  1  0.96871164  0.62748283  0.47705763  1  -1.063416  0  -0.183073  -0.205741  0  2.522186  0
O  O413  1  0.37251671  0.03128711  0.02294004  1  -1.063352  0  -0.183077  -0.205755  0  2.522281  0
O  O414  1  0.03128886  0.37252441  0.52294561  1  -1.063231  0  -0.183086  -0.205751  0  2.522223  0
O  O415  1  0.62747637  0.96870884  0.97705689  1  -1.063338  0  -0.183047  -0.205696  0  2.522249  0
O  O416  1  0.26177717  0.98179125  0.55896311  1  -1.074332  0  -0.181476  -0.200085  0  2.555695  0
O  O417  1  0.01820939  0.73822173  0.94103749  1  -1.074429  0  -0.181489  -0.200167  0  2.55568  0
O  O418  1  0.73822700  0.01820987  0.44103970  1  -1.074291  0  -0.181467  -0.200035  0  2.555582  0
O  O419  1  0.98179033  0.26177341  0.05896197  1  -1.074396  0  -0.18146  -0.200079  0  2.555681  0
