# generated using pymatgen
data_MnH10C17S2O5
_symmetry_space_group_name_H-M   'P 1'
_cell_length_a   19.49552931
_cell_length_b   19.49790468
_cell_length_c   20.36583470
_cell_angle_alpha   89.99996464
_cell_angle_beta   90.00003625
_cell_angle_gamma   120.00257205
_symmetry_Int_Tables_number   1
_chemical_formula_structural   MnH10C17S2O5
_chemical_formula_sum   'Mn12 H120 C204 S24 O60'
_cell_volume   6704.16297990
_cell_formula_units_Z   12
loop_
 _symmetry_equiv_pos_site_id
 _symmetry_equiv_pos_as_xyz
  1  'x, y, z'
loop_
 _atom_site_type_symbol
 _atom_site_label
 _atom_site_symmetry_multiplicity
 _atom_site_fract_x
 _atom_site_fract_y
 _atom_site_fract_z
 _atom_site_occupancy
 _atom_site_pbe_bader_charge
 _atom_site_pbe_bader_spin_density
 _atom_site_pbe_cm5_charge
 _atom_site_pbe_ddec_charge
 _atom_site_pbe_ddec_spin_density
 _atom_site_pbe_ddec_sum_bond_order
 _atom_site_pbe_magmom
Mn  Mn0  1  0.26688312  0.64208211  0.02588835  1  1.54931  4.537575  0.609769  1.081121  4.671242  2.249837  4.464
Mn  Mn1  1  0.35797813  0.62487510  0.69260596  1  1.548347  4.537313  0.609986  1.081373  4.670062  2.250115  4.464
Mn  Mn2  1  0.37520851  0.73306065  0.35930606  1  1.548481  4.537404  0.609776  1.081366  4.67434  2.249126  4.464
Mn  Mn3  1  0.73311689  0.35791698  0.52588919  1  1.549302  4.537574  0.609767  1.081132  4.671229  2.249881  4.464
Mn  Mn4  1  0.64202759  0.37512955  0.19260107  1  1.548292  4.537317  0.61  1.081364  4.670011  2.250147  4.464
Mn  Mn5  1  0.62479497  0.26693805  0.85930591  1  1.548402  4.537433  0.609771  1.081315  4.674355  2.24924  4.464
Mn  Mn6  1  0.55433177  0.28474572  0.02517509  1  1.489302  4.51352  0.626131  0.995465  4.643118  2.337166  4.416
Mn  Mn7  1  0.71527235  0.26954194  0.69175081  1  1.489595  4.51291  0.626103  0.995271  4.637532  2.338977  4.416
Mn  Mn8  1  0.73044848  0.44568533  0.35830310  1  1.496527  4.51116  0.626414  0.995817  4.638034  2.339901  4.416
Mn  Mn9  1  0.44567007  0.71525460  0.52517849  1  1.489344  4.513512  0.626158  0.995505  4.643104  2.337059  4.416
Mn  Mn10  1  0.28472972  0.73045610  0.19175435  1  1.48953  4.512912  0.626133  0.995317  4.637505  2.33893  4.416
Mn  Mn11  1  0.26954895  0.55431326  0.85830306  1  1.496508  4.511166  0.626405  0.995815  4.638041  2.339837  4.416
H  H12  1  0.78330558  0.28403799  0.92612816  1  0.126267  0.000611  0.114926  0.122541  -1.8e-05  0.991687  0.0
H  H13  1  0.71607636  0.49932090  0.59287829  1  0.097512  0.000626  0.115011  0.123012  -2.4e-05  0.991392  0.0
H  H14  1  0.50082110  0.21658476  0.25956813  1  0.114836  0.000614  0.115042  0.122813  -2.2e-05  0.991373  0.0
H  H15  1  0.21669607  0.71596357  0.42612774  1  0.126324  0.000611  0.114904  0.122504  -1.8e-05  0.991677  0.0
H  H16  1  0.28391940  0.50068038  0.09287754  1  0.097429  0.000626  0.11502  0.123047  -2.4e-05  0.991415  0.0
H  H17  1  0.49917783  0.78341541  0.75956957  1  0.114836  0.000615  0.115053  0.122795  -2.2e-05  0.991401  0.0
H  H18  1  0.87275408  0.22799157  0.91895933  1  0.073209  5.3e-05  0.108179  0.116403  -2.9e-05  0.985008  0.0
H  H19  1  0.77218646  0.64480579  0.58578060  1  0.080721  5.4e-05  0.107957  0.116387  -2.8e-05  0.984823  0.0
H  H20  1  0.35529784  0.12716327  0.25243509  1  0.094705  5.4e-05  0.108016  0.116343  -2.8e-05  0.985242  0.0
H  H21  1  0.12724663  0.77200786  0.41895833  1  0.073188  5.3e-05  0.108168  0.116386  -2.9e-05  0.985009  0.0
H  H22  1  0.22781061  0.35519622  0.08577990  1  0.080823  5.4e-05  0.107929  0.116412  -2.8e-05  0.984849  0.0
H  H23  1  0.64470109  0.87283690  0.75243656  1  0.094734  5.4e-05  0.108022  0.116325  -2.8e-05  0.985271  0.0
H  H24  1  0.73726229  0.05834528  0.06955050  1  0.05297  1.6e-05  0.088929  0.08642  -4.8e-05  1.062505  0.0
H  H25  1  0.94168903  0.67881011  0.73646535  1  0.077942  1.9e-05  0.08907  0.086854  -4.7e-05  1.062798  0.0
H  H26  1  0.32118688  0.26283562  0.40285559  1  0.063021  1.7e-05  0.089229  0.086788  -4.8e-05  1.062791  0.0
H  H27  1  0.26273757  0.94165599  0.56954827  1  0.053003  1.6e-05  0.088946  0.086422  -4.8e-05  1.06252  0.0
H  H28  1  0.05831210  0.32118991  0.23646850  1  0.077883  1.9e-05  0.089099  0.086867  -4.7e-05  1.062671  0.0
H  H29  1  0.67881387  0.73716684  0.90285765  1  0.063405  1.7e-05  0.089246  0.08683  -4.8e-05  1.062771  0.0
H  H30  1  0.64649496  0.11376646  0.07548736  1  0.099486  0.000655  0.107399  0.112177  0.000156  0.992761  0.0
H  H31  1  0.88622690  0.53259740  0.74229475  1  0.080723  0.000672  0.107521  0.11216  0.000156  0.992508  0.0
H  H32  1  0.46739374  0.35355539  0.40879398  1  0.079123  0.000672  0.107411  0.11215  0.000157  0.992103  0.0
H  H33  1  0.35350572  0.88623503  0.57548767  1  0.099483  0.000655  0.107388  0.112185  0.000156  0.992685  0.0
H  H34  1  0.11377283  0.46740299  0.24229785  1  0.080661  0.000672  0.107518  0.112167  0.000156  0.992507  0.0
H  H35  1  0.53260687  0.64644516  0.90879552  1  0.078807  0.000672  0.107405  0.112126  0.000157  0.992102  0.0
H  H36  1  0.17087347  0.36415338  0.90697676  1  0.082884  2e-06  0.107871  0.109566  -0.000701  1.020876  0.0
H  H37  1  0.63607712  0.80706369  0.57377216  1  0.088536  -1e-06  0.107896  0.109609  -0.000701  1.020827  0.0
H  H38  1  0.19335574  0.82920230  0.24045350  1  0.108968  -1.1e-05  0.108138  0.109949  -0.000704  1.021219  0.0
H  H39  1  0.82912502  0.63584622  0.40697920  1  0.082945  2e-06  0.107871  0.109569  -0.000701  1.020877  0.0
H  H40  1  0.36392466  0.19293772  0.07377360  1  0.088297  -1e-06  0.107913  0.109645  -0.000701  1.020843  0.0
H  H41  1  0.80664552  0.17079963  0.74045351  1  0.108932  -1.1e-05  0.10811  0.109876  -0.000704  1.021246  0.0
H  H42  1  0.07146511  0.21997517  0.90865557  1  0.065716  4.4e-05  0.09479  0.100572  -1.5e-05  1.018794  0.0
H  H43  1  0.78020958  0.85161118  0.57541759  1  0.065135  4.3e-05  0.094792  0.100336  -1.5e-05  1.01958  0.0
H  H44  1  0.14859450  0.92859628  0.24218724  1  0.064151  4.3e-05  0.09502  0.101042  -1.5e-05  1.01849  0.0
H  H45  1  0.92853368  0.78002412  0.40865798  1  0.065781  4.4e-05  0.094772  0.100571  -1.5e-05  1.018813  0.0
H  H46  1  0.21979271  0.14839074  0.07541849  1  0.065183  4.3e-05  0.0948  0.100362  -1.5e-05  1.019611  0.0
H  H47  1  0.85140707  0.07140535  0.74218439  1  0.064085  4.3e-05  0.095007  0.101013  -1.5e-05  1.018544  0.0
H  H48  1  0.94034533  0.26201826  0.05834694  1  0.067894  8e-05  0.098402  0.102401  1.9e-05  1.014743  0.0
H  H49  1  0.73782158  0.67809555  0.72486400  1  0.061205  7.9e-05  0.098511  0.102535  1.9e-05  1.014519  0.0
H  H50  1  0.32184177  0.05965590  0.39184063  1  0.082257  8.2e-05  0.098442  0.102786  1.9e-05  1.014413  0.0
H  H51  1  0.05965690  0.73798065  0.55834667  1  0.067708  8e-05  0.0984  0.102381  1.9e-05  1.014735  0.0
H  H52  1  0.26218152  0.32190764  0.22486481  1  0.061141  7.9e-05  0.098499  0.102547  1.9e-05  1.014483  0.0
H  H53  1  0.67816105  0.94034449  0.89183816  1  0.082333  8.2e-05  0.098462  0.102837  1.9e-05  1.014397  0.0
H  H54  1  0.03972631  0.40633993  0.05518103  1  0.101297  0.000397  0.107693  0.113975  -1.4e-05  0.987468  0.0
H  H55  1  0.59353829  0.63328650  0.72162963  1  0.108753  0.000391  0.107581  0.114068  -1.5e-05  0.988139  0.0
H  H56  1  0.36682521  0.96031906  0.38857707  1  0.095001  0.000403  0.107504  0.113857  -1.4e-05  0.987223  0.0
H  H57  1  0.96027511  0.59365876  0.55518089  1  0.101246  0.000398  0.107689  0.113959  -1.4e-05  0.987485  0.0
H  H58  1  0.40646407  0.36671536  0.22163051  1  0.109052  0.000391  0.107558  0.114055  -1.5e-05  0.98814  0.0
H  H59  1  0.63317599  0.03968090  0.88857706  1  0.095027  0.000403  0.107519  0.113845  -1.4e-05  0.987203  0.0
H  H60  1  0.06309894  0.66451092  0.99926699  1  0.097706  0.000236  0.110271  0.117631  -0.000177  0.984715  0.0
H  H61  1  0.33557509  0.39859195  0.66589560  1  0.112324  0.000233  0.110509  0.118379  -0.000176  0.98444  0.0
H  H62  1  0.60134935  0.93695112  0.33282986  1  0.104284  0.000235  0.110395  0.117968  -0.000177  0.984892  0.0
H  H63  1  0.93690026  0.33548694  0.49927115  1  0.097891  0.000236  0.110304  0.117696  -0.000177  0.984647  0.0
H  H64  1  0.66442504  0.60141009  0.16589698  1  0.112385  0.000233  0.110517  0.118388  -0.000176  0.984395  0.0
H  H65  1  0.39864881  0.06304880  0.83282823  1  0.104311  0.000235  0.11042  0.118021  -0.000177  0.984817  0.0
H  H66  1  0.96001295  0.70119567  0.97481649  1  0.054836  8.1e-05  0.101756  0.106701  4.2e-05  1.001791  0.0
H  H67  1  0.29870190  0.25875389  0.64151558  1  0.0603  8.1e-05  0.10163  0.106441  4.2e-05  1.001834  0.0
H  H68  1  0.74112476  0.03997176  0.30832344  1  0.080038  8.2e-05  0.101787  0.106618  4.2e-05  1.001649  0.0
H  H69  1  0.03998448  0.29879985  0.47482014  1  0.055004  8.1e-05  0.10175  0.106665  4.2e-05  1.001819  0.0
H  H70  1  0.70129932  0.74124809  0.14151641  1  0.060311  8.1e-05  0.101654  0.106457  4.2e-05  1.00184  0.0
H  H71  1  0.25887339  0.96002817  0.80832267  1  0.080024  8.2e-05  0.101763  0.10659  4.2e-05  1.001694  0.0
H  H72  1  0.07667410  0.89999928  0.10655518  1  0.073909  7e-05  0.093338  0.098122  2.1e-05  1.025871  0.0
H  H73  1  0.10002403  0.17687119  0.77337560  1  0.058799  6.9e-05  0.093532  0.09813  2.1e-05  1.025185  0.0
H  H74  1  0.82332445  0.92330739  0.44000993  1  0.096139  7.1e-05  0.09317  0.097446  2.1e-05  1.026262  0.0
H  H75  1  0.92332103  0.09999544  0.60655726  1  0.074168  7e-05  0.09337  0.09816  2.1e-05  1.025818  0.0
H  H76  1  0.89997755  0.82313043  0.27337551  1  0.058751  6.9e-05  0.093497  0.098078  2.1e-05  1.025264  0.0
H  H77  1  0.17667546  0.07669182  0.94001159  1  0.096203  7.1e-05  0.093213  0.097556  2.1e-05  1.026198  0.0
H  H78  1  0.17903173  0.86231827  0.13069515  1  0.077754  0.000282  0.105636  0.110237  -0.000216  1.012875  0.0
H  H79  1  0.13779815  0.31696044  0.79736329  1  0.090403  0.00028  0.105598  0.110398  -0.000217  1.013077  0.0
H  H80  1  0.68327595  0.82092670  0.46412187  1  0.092826  0.00028  0.105472  0.110122  -0.000215  1.012981  0.0
H  H81  1  0.82096333  0.13767756  0.63069716  1  0.077595  0.000282  0.10563  0.110309  -0.000216  1.012826  0.0
H  H82  1  0.86220344  0.68304117  0.29736376  1  0.090521  0.00028  0.105597  0.110402  -0.000217  1.013061  0.0
H  H83  1  0.31672448  0.17907301  0.96412257  1  0.092893  0.00028  0.105481  0.110136  -0.000214  1.012937  0.0
H  H84  1  0.65128724  0.54237342  0.97063199  1  0.060555  0.000691  0.104554  0.106042  7.9e-05  1.001493  0.0
H  H85  1  0.45767157  0.10899296  0.63735625  1  0.064198  0.000691  0.104417  0.105787  7.6e-05  1.001731  0.0
H  H86  1  0.89114432  0.34880127  0.30406725  1  0.089813  0.000672  0.104384  0.105583  7.8e-05  1.00137  0.0
H  H87  1  0.34871246  0.45762497  0.47063229  1  0.060557  0.000691  0.104564  0.106035  7.9e-05  1.001497  0.0
H  H88  1  0.54232870  0.89100688  0.13735690  1  0.064224  0.000691  0.104409  0.105768  7.6e-05  1.001742  0.0
H  H89  1  0.10885266  0.65119573  0.80406853  1  0.089748  0.000672  0.104404  0.105628  7.8e-05  1.001466  0.0
H  H90  1  0.73778888  0.68772189  0.95951286  1  0.038043  2.2e-05  0.08987  0.088664  -4.2e-05  1.059222  0.0
H  H91  1  0.31233828  0.05021290  0.62619832  1  0.063902  2.7e-05  0.089752  0.088816  -4.2e-05  1.059161  0.0
H  H92  1  0.95008237  0.26238190  0.29298058  1  0.070933  2.7e-05  0.089961  0.089307  -4.2e-05  1.058929  0.0
H  H93  1  0.26220853  0.31227777  0.45951074  1  0.038205  2.2e-05  0.089861  0.088634  -4.2e-05  1.059202  0.0
H  H94  1  0.68766169  0.94978725  0.12619853  1  0.063897  2.7e-05  0.089747  0.088809  -4.2e-05  1.05916  0.0
H  H95  1  0.04991593  0.73761583  0.79297982  1  0.070879  2.7e-05  0.089978  0.089325  -4.2e-05  1.058897  0.0
H  H96  1  0.89223437  0.68434638  0.10945592  1  0.092254  5.2e-05  0.104777  0.111859  -2e-06  0.996122  0.0
H  H97  1  0.31574086  0.20812647  0.77604826  1  0.091151  5.2e-05  0.1045  0.111815  -2e-06  0.996253  0.0
H  H98  1  0.79209804  0.10778719  0.44275986  1  0.08496  5.1e-05  0.104528  0.111609  -2e-06  0.996431  0.0
H  H99  1  0.10776427  0.31565304  0.60945544  1  0.09243  5.2e-05  0.104777  0.111863  -2e-06  0.996106  0.0
H  H100  1  0.68425978  0.79187302  0.27604807  1  0.091129  5.2e-05  0.10455  0.111923  -2e-06  0.99621  0.0
H  H101  1  0.20790068  0.89221320  0.94275713  1  0.084991  5.1e-05  0.104518  0.111558  -2e-06  0.996515  0.0
H  H102  1  0.80727174  0.53866656  0.11777429  1  0.079555  0.000112  0.106442  0.103661  -0.000455  1.003161  0.0
H  H103  1  0.46143284  0.26873273  0.78445158  1  0.071565  0.000116  0.106256  0.103245  -0.000455  1.003031  0.0
H  H104  1  0.73130053  0.19269606  0.45107325  1  0.079033  0.000111  0.106434  0.103757  -0.000457  1.002991  0.0
H  H105  1  0.19272809  0.46133167  0.61777475  1  0.079684  0.000112  0.106455  0.103677  -0.000455  1.003151  0.0
H  H106  1  0.53856831  0.73126727  0.28445183  1  0.071557  0.000116  0.106255  0.103231  -0.000455  1.003068  0.0
H  H107  1  0.26869820  0.80730433  0.95107208  1  0.079069  0.000111  0.106435  0.103754  -0.000457  1.00306  0.0
H  H108  1  0.39325396  0.81835457  0.02564380  1  0.620413  0.001181  0.330387  0.406399  0.000336  0.873765  0.001
H  H109  1  0.18166303  0.57488997  0.69221949  1  0.590796  0.001266  0.330362  0.406474  0.000339  0.874226  0.001
H  H110  1  0.42525799  0.60683531  0.35893245  1  0.600988  0.001259  0.330602  0.406387  0.000351  0.872891  0.001
H  H111  1  0.60674686  0.18164473  0.52564418  1  0.620374  0.001182  0.330384  0.406369  0.000336  0.873786  0.001
H  H112  1  0.81833770  0.42511147  0.19221812  1  0.590707  0.001267  0.330379  0.406497  0.00034  0.874244  0.001
H  H113  1  0.57474451  0.39316539  0.85893269  1  0.600933  0.00126  0.330566  0.406299  0.000351  0.873018  0.001
H  H114  1  0.40392078  0.78815124  0.09495156  1  0.64312  0.000976  0.29625  0.385186  0.00057  0.956501  0.001
H  H115  1  0.21192172  0.61583755  0.76149089  1  0.634016  0.001014  0.296409  0.385819  0.000565  0.955726  0.001
H  H116  1  0.38433097  0.59616643  0.42820974  1  0.657545  0.000955  0.29635  0.385289  0.000565  0.956305  0.001
H  H117  1  0.59607918  0.21184891  0.59495093  1  0.643129  0.000976  0.296237  0.385192  0.00057  0.956498  0.001
H  H118  1  0.78807823  0.38416364  0.26148952  1  0.633947  0.001014  0.296389  0.385836  0.000565  0.9557  0.001
H  H119  1  0.61567025  0.40383351  0.92820950  1  0.657485  0.000955  0.296351  0.385282  0.000566  0.956319  0.001
H  H120  1  0.38463640  0.62041395  0.96768087  1  0.649189  0.001312  0.299398  0.39139  0.000392  0.943993  0.002
H  H121  1  0.37967234  0.76434456  0.63448849  1  0.657669  0.001294  0.299071  0.390659  0.000396  0.944912  0.002
H  H122  1  0.23580009  0.61537622  0.30101726  1  0.640997  0.001345  0.29905  0.391255  0.000398  0.944278  0.002
H  H123  1  0.61536373  0.37958605  0.46768088  1  0.649194  0.001312  0.299409  0.391416  0.000392  0.943954  0.002
H  H124  1  0.62032764  0.23565558  0.13448809  1  0.657662  0.001294  0.299073  0.390677  0.000396  0.944883  0.002
H  H125  1  0.76419997  0.38462385  0.80101565  1  0.640965  0.001345  0.299048  0.391255  0.000398  0.94428  0.002
H  H126  1  0.41398603  0.68859362  0.02036589  1  0.594129  0.001202  0.309997  0.398098  0.000549  0.908815  0.001
H  H127  1  0.31142106  0.72542031  0.68709423  1  0.634208  0.001041  0.310031  0.398331  0.000547  0.908064  0.001
H  H128  1  0.27460074  0.58597044  0.35367360  1  0.63115  0.00106  0.310076  0.398392  0.00055  0.908008  0.001
H  H129  1  0.58601368  0.31140576  0.52036569  1  0.594128  0.001202  0.309992  0.398089  0.000549  0.908822  0.001
H  H130  1  0.68857894  0.27457981  0.18709336  1  0.634205  0.001041  0.310046  0.398364  0.000547  0.90799  0.001
H  H131  1  0.72539912  0.41402880  0.85367343  1  0.631176  0.00106  0.310052  0.398301  0.00055  0.908055  0.001
C  C132  1  0.90534403  0.92827418  0.00260828  1  -0.228589  0.000557  -0.047696  -0.094759  0.000437  4.104498  0.0
C  C133  1  0.07180776  0.97713216  0.66920530  1  -0.253303  0.000561  -0.048155  -0.095501  0.000439  4.104751  0.0
C  C134  1  0.02295302  0.09470878  0.33585707  1  -0.238251  0.000558  -0.047914  -0.095454  0.000437  4.105174  0.0
C  C135  1  0.09465537  0.07172550  0.50260843  1  -0.228263  0.000557  -0.047719  -0.09489  0.000437  4.104662  0.0
C  C136  1  0.92819274  0.02286848  0.16920521  1  -0.253029  0.000562  -0.048151  -0.095543  0.000439  4.104742  0.0
C  C137  1  0.97704705  0.90529127  0.83585773  1  -0.238264  0.000558  -0.0479  -0.095434  0.000437  4.105119  0.0
C  C138  1  0.90334571  0.99641718  0.99434812  1  -0.246821  0.000396  -0.049322  -0.096488  0.000303  4.108845  0.0
C  C139  1  0.00367805  0.90692988  0.66105882  1  -0.233241  0.000392  -0.049202  -0.096237  0.000301  4.108156  0.0
C  C140  1  0.09312732  0.09671262  0.32769440  1  -0.244172  0.000394  -0.04936  -0.095897  0.000301  4.107126  0.0
C  C141  1  0.09665422  0.00358200  0.49434755  1  -0.246853  0.000396  -0.049363  -0.096482  0.000303  4.108751  0.0
C  C142  1  0.99632267  0.09307158  0.16105873  1  -0.233233  0.000393  -0.049211  -0.096207  0.000301  4.108068  0.0
C  C143  1  0.90687275  0.90328744  0.82769453  1  -0.244111  0.000394  -0.049352  -0.095905  0.000301  4.107246  0.0
C  C144  1  0.86353357  0.10547140  0.99141159  1  -0.020345  0.001668  -0.015174  -0.05074  0.001359  4.0026  0.001
C  C145  1  0.89462314  0.75802522  0.65826474  1  -0.150493  0.001716  -0.015219  -0.05043  0.001375  4.002678  0.001
C  C146  1  0.24202403  0.13649394  0.32485242  1  -0.153549  0.001706  -0.014933  -0.050278  0.001362  4.00228  0.001
C  C147  1  0.13646628  0.89452889  0.49141052  1  -0.020367  0.001668  -0.015174  -0.050813  0.001359  4.002654  0.001
C  C148  1  0.10537787  0.24197593  0.15826404  1  -0.150476  0.001715  -0.015205  -0.050365  0.001374  4.002625  0.001
C  C149  1  0.75797595  0.86350723  0.82485200  1  -0.153371  0.001706  -0.014973  -0.050373  0.001362  4.002324  0.001
C  C150  1  0.94419577  0.14525247  0.98620140  1  -0.175637  0.00249  -0.013897  -0.048122  0.001965  4.026812  0.001
C  C151  1  0.85480916  0.79886447  0.65293324  1  -0.146345  0.002485  -0.01357  -0.047695  0.001957  4.024481  0.001
C  C152  1  0.20114279  0.05583587  0.31970165  1  -0.11606  0.002481  -0.013947  -0.048229  0.00197  4.025367  0.001
C  C153  1  0.05580445  0.85474642  0.48620130  1  -0.175626  0.00249  -0.013895  -0.04807  0.001964  4.0268  0.001
C  C154  1  0.14519207  0.20113750  0.15293258  1  -0.146262  0.002485  -0.013549  -0.047729  0.001957  4.024484  0.001
C  C155  1  0.79885860  0.94416493  0.81969924  1  -0.116068  0.002481  -0.013938  -0.048119  0.00197  4.02538  0.001
C  C156  1  0.95236088  0.82731340  0.02646004  1  -0.115504  0.003599  -0.013298  -0.050344  0.002844  4.031661  0.002
C  C157  1  0.17266916  0.12513375  0.69318889  1  -0.127935  0.003614  -0.013629  -0.04997  0.00285  4.031032  0.002
C  C158  1  0.87493704  0.04766775  0.35986764  1  -0.032038  0.003568  -0.013373  -0.0496  0.002846  4.029357  0.002
C  C159  1  0.04763523  0.17268238  0.52646157  1  -0.115636  0.003598  -0.013307  -0.050293  0.002843  4.031475  0.002
C  C160  1  0.82733268  0.87486761  0.19318824  1  -0.127825  0.003615  -0.01359  -0.049916  0.00285  4.030967  0.002
C  C161  1  0.12506231  0.95233098  0.85986729  1  -0.032125  0.003568  -0.013373  -0.049527  0.002846  4.02949  0.002
C  C162  1  0.87155045  0.78279498  0.02510187  1  -0.134197  0.000103  -0.015493  -0.053628  2e-05  4.007914  0.0
C  C163  1  0.21726287  0.08893111  0.69171536  1  -0.118952  9.5e-05  -0.015503  -0.05444  2.5e-05  4.008712  0.0
C  C164  1  0.91123046  0.12847318  0.35843189  1  -0.213711  0.000136  -0.015831  -0.054907  2e-05  4.00851  0.0
C  C165  1  0.12844632  0.21720323  0.52510097  1  -0.134048  0.000104  -0.015501  -0.053688  2.1e-05  4.007936  0.0
C  C166  1  0.78273875  0.91106944  0.19171418  1  -0.118836  9.5e-05  -0.015484  -0.05442  2.4e-05  4.008778  0.0
C  C167  1  0.08876779  0.87152563  0.85842911  1  -0.213583  0.000136  -0.015814  -0.054967  2e-05  4.008621  0.0
C  C168  1  0.70934555  0.20223743  0.00140103  1  -0.010967  -0.003517  -0.018375  -0.04689  -0.005035  4.004636  -0.004
C  C169  1  0.79778885  0.50707596  0.66818483  1  -0.035884  -0.003503  -0.01795  -0.045768  -0.005037  4.004222  -0.004
C  C170  1  0.49298186  0.29059596  0.33479557  1  0.024679  -0.003543  -0.018275  -0.04689  -0.005042  4.00435  -0.004
C  C171  1  0.29065539  0.79776379  0.50140037  1  -0.010733  -0.003517  -0.01838  -0.046977  -0.005034  4.00473  -0.004
C  C172  1  0.20220922  0.49292403  0.16818453  1  -0.03578  -0.003504  -0.017957  -0.045678  -0.005037  4.004119  -0.004
C  C173  1  0.50701814  0.70940521  0.83479754  1  0.024676  -0.003542  -0.01825  -0.046968  -0.005042  4.004479  -0.004
C  C174  1  0.77377869  0.23482113  0.95767807  1  -0.056309  0.007996  -0.072529  -0.07415  0.005829  3.941563  0.005
C  C175  1  0.76525053  0.53897347  0.62447533  1  -0.066632  0.007988  -0.072921  -0.075391  0.005819  3.943526  0.005
C  C176  1  0.46112946  0.22612775  0.29111114  1  -0.16041  0.008048  -0.072812  -0.075201  0.005839  3.942708  0.005
C  C177  1  0.22622268  0.76518071  0.45767762  1  -0.056455  0.007995  -0.072514  -0.074086  0.005829  3.941523  0.005
C  C178  1  0.23474655  0.46102853  0.12447507  1  -0.06655  0.007988  -0.072931  -0.075449  0.00582  3.943629  0.005
C  C179  1  0.53887000  0.77387292  0.79111310  1  -0.160403  0.008048  -0.072831  -0.075128  0.005839  3.942641  0.005
C  C180  1  0.82399234  0.20367775  0.95398612  1  0.030675  -0.001859  -0.081471  -0.116254  -0.001915  3.944016  -0.001
C  C181  1  0.79642762  0.62032641  0.62083196  1  0.061172  -0.001868  -0.081597  -0.11667  -0.001912  3.945809  -0.001
C  C182  1  0.37976125  0.17593362  0.28743095  1  0.077478  -0.001891  -0.081422  -0.115771  -0.00192  3.944683  -0.001
C  C183  1  0.17600749  0.79632256  0.45398563  1  0.030785  -0.001859  -0.08151  -0.116325  -0.001915  3.944008  -0.001
C  C184  1  0.20356998  0.37967610  0.12083173  1  0.061211  -0.001868  -0.081581  -0.116745  -0.001912  3.945912  -0.001
C  C185  1  0.62023791  0.82406735  0.78743293  1  0.077644  -0.001891  -0.081453  -0.115764  -0.00192  3.944637  -0.001
C  C186  1  0.81156931  0.13967790  0.99431643  1  -0.05722  0.007768  -0.004269  0.096086  0.006096  4.010996  0.005
C  C187  1  0.86040517  0.67186150  0.66120497  1  -0.061737  0.007774  -0.004104  0.095679  0.006102  4.014219  0.005
C  C188  1  0.32819240  0.18842605  0.32771998  1  -0.037938  0.007791  -0.004053  0.095773  0.006115  4.011491  0.005
C  C189  1  0.18843003  0.86032188  0.49431492  1  -0.057387  0.007767  -0.004257  0.096173  0.006095  4.01095  0.005
C  C190  1  0.13959444  0.32814004  0.16120571  1  -0.061823  0.007774  -0.004158  0.09566  0.006102  4.0141  0.005
C  C191  1  0.67180832  0.81157644  0.82772150  1  -0.0381  0.007791  -0.00404  0.095819  0.006115  4.011463  0.005
C  C192  1  0.74671834  0.10737345  0.03782236  1  -0.031916  -0.001848  -0.097541  -0.140299  -0.001876  3.983932  -0.001
C  C193  1  0.89264732  0.63926512  0.70472935  1  0.010583  -0.001884  -0.097595  -0.140272  -0.001878  3.984156  -0.001
C  C194  1  0.36075305  0.25332884  0.37117755  1  -0.05186  -0.001856  -0.097807  -0.140509  -0.001881  3.985003  -0.001
C  C195  1  0.25328180  0.89262754  0.53782113  1  -0.031888  -0.001848  -0.097539  -0.140288  -0.001876  3.983991  -0.001
C  C196  1  0.10735210  0.36073558  0.20473202  1  0.010644  -0.001884  -0.097548  -0.140168  -0.001878  3.983954  -0.001
C  C197  1  0.63924688  0.74667341  0.87117958  1  -0.052244  -0.001856  -0.097831  -0.14064  -0.001881  3.984966  -0.001
C  C198  1  0.69652327  0.13849929  0.04167290  1  -0.064851  0.008786  -0.082324  -0.083307  0.006603  3.983132  0.005
C  C199  1  0.86149949  0.55793729  0.70852199  1  -0.079869  0.008795  -0.082639  -0.083868  0.00661  3.982185  0.005
C  C200  1  0.44207522  0.30349412  0.37502862  1  -0.032695  0.008787  -0.082492  -0.083199  0.006615  3.981904  0.005
C  C201  1  0.30347688  0.86150170  0.54167221  1  -0.064974  0.008785  -0.082297  -0.083283  0.006602  3.983087  0.005
C  C202  1  0.13850022  0.44206312  0.20852365  1  -0.079891  0.008794  -0.082651  -0.083967  0.006609  3.982205  0.005
C  C203  1  0.55792530  0.69650754  0.87503014  1  -0.032386  0.008787  -0.082467  -0.083074  0.006615  3.981925  0.005
C  C204  1  0.65397387  0.23283248  0.00477970  1  1.51179  0.034808  0.22542  0.581261  0.03486  4.139171  0.028
C  C205  1  0.76717499  0.42110010  0.67143588  1  1.514383  0.034711  0.2257  0.582775  0.034866  4.137234  0.028
C  C206  1  0.57893310  0.34602952  0.33810553  1  1.497103  0.034909  0.226004  0.583614  0.034893  4.138546  0.028
C  C207  1  0.34602736  0.76716845  0.50477909  1  1.511808  0.034806  0.22538  0.581259  0.034858  4.139244  0.028
C  C208  1  0.23282147  0.57889946  0.17143653  1  1.513862  0.034714  0.225672  0.582648  0.034866  4.13723  0.028
C  C209  1  0.42106668  0.65397083  0.83810798  1  1.497222  0.034909  0.2259  0.583473  0.034896  4.138718  0.028
C  C210  1  0.11106107  0.39377016  0.98080381  1  -0.010978  -0.000183  -0.018933  -0.044715  -0.001358  3.988673  -0.001
C  C211  1  0.60629266  0.71742454  0.64741856  1  -0.016187  -0.000203  -0.018596  -0.043819  -0.001374  3.988938  -0.001
C  C212  1  0.28285726  0.88899894  0.31421429  1  0.012488  -0.000215  -0.018878  -0.043803  -0.001372  3.987733  -0.001
C  C213  1  0.88893966  0.60622925  0.48080483  1  -0.010499  -0.000183  -0.018881  -0.04455  -0.001358  3.988454  -0.001
C  C214  1  0.39370916  0.28257684  0.14741898  1  -0.016272  -0.000202  -0.018572  -0.043831  -0.001373  3.988899  -0.001
C  C215  1  0.71714391  0.11100105  0.81421380  1  0.012491  -0.000215  -0.018876  -0.043858  -0.001372  3.987605  -0.001
C  C216  1  0.11990080  0.34104474  0.93968153  1  -0.022824  0.007063  -0.081123  -0.079685  0.005176  3.974241  0.004
C  C217  1  0.65911251  0.77905298  0.60638218  1  -0.090894  0.007109  -0.081762  -0.081322  0.005184  3.974863  0.004
C  C218  1  0.22123268  0.88015940  0.27315139  1  -0.047004  0.007086  -0.081661  -0.081078  0.005189  3.97541  0.004
C  C219  1  0.88009830  0.65895425  0.43968300  1  -0.023319  0.007063  -0.081217  -0.079802  0.005176  3.974245  0.004
C  C220  1  0.34088958  0.22094812  0.10638261  1  -0.090671  0.007108  -0.081783  -0.081328  0.005183  3.97492  0.004
C  C221  1  0.77876787  0.11984119  0.77315093  1  -0.046784  0.007086  -0.081672  -0.080997  0.005188  3.975282  0.004
C  C222  1  0.06451973  0.26075457  0.94101809  1  -0.073429  -0.00129  -0.097713  -0.138777  -0.001284  3.971321  -0.001
C  C223  1  0.73938524  0.80384160  0.60772170  1  -0.014104  -0.001315  -0.09753  -0.137332  -0.001287  3.969778  -0.001
C  C224  1  0.19630890  0.93551868  0.27454881  1  -0.050352  -0.001289  -0.097871  -0.138579  -0.001286  3.970994  -0.001
C  C225  1  0.93547966  0.73924412  0.44102004  1  -0.073389  -0.00129  -0.097707  -0.138835  -0.001283  3.971247  -0.001
C  C226  1  0.26061729  0.19616112  0.10772210  1  -0.014224  -0.001315  -0.097572  -0.137461  -0.001287  3.969869  -0.001
C  C227  1  0.80369298  0.06448264  0.77454691  1  -0.050622  -0.001289  -0.09783  -0.13855  -0.001286  3.971016  -0.001
C  C228  1  0.99892752  0.23110401  0.98359360  1  -0.011056  0.007208  -0.009208  0.087652  0.005672  4.030312  0.005
C  C229  1  0.76894307  0.76774682  0.65022673  1  0.037316  0.007185  -0.009276  0.08735  0.005675  4.027848  0.005
C  C230  1  0.23228093  0.00110638  0.31711548  1  -0.01858  0.007213  -0.008715  0.088354  0.005687  4.029519  0.005
C  C231  1  0.00107270  0.76889488  0.48359498  1  -0.011072  0.007207  -0.009168  0.087749  0.005671  4.030249  0.005
C  C232  1  0.23105918  0.23225618  0.15022659  1  0.037513  0.007184  -0.00923  0.087494  0.005674  4.027778  0.005
C  C233  1  0.76772075  0.99889412  0.81711302  1  -0.018584  0.007212  -0.008694  0.088304  0.005686  4.029583  0.005
C  C234  1  0.99013648  0.28451105  0.02446176  1  -0.020414  -0.001838  -0.091199  -0.134824  -0.001844  3.994027  -0.001
C  C235  1  0.71542769  0.70547620  0.69099010  1  -0.022804  -0.001838  -0.09096  -0.134095  -0.001846  3.994447  -0.001
C  C236  1  0.29452339  0.00989335  0.35793582  1  -0.040407  -0.001841  -0.091918  -0.136565  -0.001848  3.995984  -0.001
C  C237  1  0.00986433  0.71548824  0.52446148  1  -0.020288  -0.001838  -0.091205  -0.134835  -0.001844  3.994174  -0.001
C  C238  1  0.28457488  0.29452648  0.19098996  1  -0.022732  -0.001837  -0.091013  -0.134203  -0.001846  3.99445  -0.001
C  C239  1  0.70547802  0.99010743  0.85793431  1  -0.040348  -0.00184  -0.091955  -0.136658  -0.001847  3.995988  -0.001
C  C240  1  0.04537983  0.36491550  0.02281213  1  -0.034725  0.007198  -0.079918  -0.07703  0.005328  3.962438  0.004
C  C241  1  0.63503811  0.68039308  0.68931472  1  -0.02617  0.007188  -0.080073  -0.07812  0.005325  3.965036  0.004
C  C242  1  0.31973039  0.95468303  0.35622091  1  -0.040194  0.007206  -0.079369  -0.076631  0.00533  3.962018  0.004
C  C243  1  0.95462157  0.63508321  0.52281196  1  -0.03476  0.007198  -0.079893  -0.077032  0.005328  3.962467  0.004
C  C244  1  0.36496424  0.31960879  0.18931511  1  -0.026466  0.007186  -0.08002  -0.078084  0.005325  3.965068  0.004
C  C245  1  0.68027028  0.04531643  0.85622043  1  -0.040272  0.007204  -0.07941  -0.076568  0.00533  3.961896  0.004
C  C246  1  0.17340000  0.47874823  0.98073752  1  1.533441  0.03282  0.224193  0.582976  0.034099  4.1915  0.028
C  C247  1  0.52134762  0.69492023  0.64741805  1  1.545283  0.032666  0.223767  0.581564  0.034108  4.193546  0.028
C  C248  1  0.30543114  0.82661792  0.31409500  1  1.53955  0.032722  0.223248  0.581746  0.034114  4.193024  0.028
C  C249  1  0.82660000  0.52124985  0.48073806  1  1.533525  0.032821  0.224188  0.582959  0.0341  4.191508  0.028
C  C250  1  0.47865531  0.30508107  0.14741851  1  1.545125  0.032664  0.223747  0.581669  0.034105  4.193466  0.028
C  C251  1  0.69457083  0.17338229  0.81409397  1  1.539534  0.032719  0.223324  0.581786  0.034112  4.192939  0.028
C  C252  1  0.12636349  0.76029380  0.06731697  1  -0.043682  0.00171  -0.018805  -0.04411  0.00047  3.979136  0.0
C  C253  1  0.23977938  0.36618005  0.73393551  1  -0.02751  0.00173  -0.019206  -0.04397  0.000461  3.979271  0.0
C  C254  1  0.63389580  0.87362125  0.40081090  1  -0.030012  0.00174  -0.019182  -0.043872  0.000477  3.978915  0.0
C  C255  1  0.87363346  0.23970219  0.56731796  1  -0.043857  0.001709  -0.018973  -0.044216  0.000469  3.978895  0.0
C  C256  1  0.76022240  0.63382240  0.23393594  1  -0.027678  0.00173  -0.01925  -0.043984  0.000461  3.979342  0.0
C  C257  1  0.36610459  0.12637848  0.90080970  1  -0.029971  0.00174  -0.019138  -0.043773  0.000476  3.978852  0.0
C  C258  1  0.06453636  0.71513980  0.02331042  1  0.013496  0.004328  -0.077784  -0.076727  0.003148  3.961984  0.003
C  C259  1  0.28489716  0.34943363  0.68994126  1  -0.015536  0.004356  -0.078056  -0.077973  0.003155  3.963103  0.003
C  C260  1  0.65056315  0.93547441  0.35682595  1  0.05875  0.004314  -0.077788  -0.077165  0.003138  3.96158  0.003
C  C261  1  0.93546108  0.28485671  0.52331339  1  0.013325  0.00433  -0.077691  -0.076765  0.00315  3.961716  0.003
C  C262  1  0.71510438  0.65056803  0.18994215  1  -0.015511  0.004356  -0.078035  -0.077952  0.003155  3.963065  0.003
C  C263  1  0.34943663  0.06452594  0.85682477  1  0.05873  0.004314  -0.077801  -0.077203  0.003138  3.961522  0.003
C  C264  1  0.00731240  0.73575388  0.00968071  1  -0.005592  -0.000622  -0.087599  -0.127385  -0.000624  3.972401  -0.001
C  C265  1  0.26419733  0.27157538  0.67637149  1  -0.035046  -0.000627  -0.087389  -0.126564  -0.000629  3.973819  -0.001
C  C266  1  0.72840778  0.99267259  0.34318055  1  -0.104198  -0.000608  -0.087589  -0.127174  -0.000622  3.97275  -0.001
C  C267  1  0.99268379  0.26424081  0.50968323  1  -0.005674  -0.000623  -0.087656  -0.127328  -0.000624  3.972544  -0.001
C  C268  1  0.73580421  0.72842628  0.17637136  1  -0.035054  -0.000627  -0.087349  -0.126514  -0.000629  3.973866  -0.001
C  C269  1  0.27159200  0.00732776  0.84317986  1  -0.104205  -0.000608  -0.087595  -0.127196  -0.000622  3.972761  -0.001
C  C270  1  0.01071908  0.80224733  0.03995541  1  -0.028487  0.003808  -0.0084  0.089561  0.002996  4.016983  0.002
C  C271  1  0.19770982  0.20854948  0.70670170  1  -0.040553  0.003823  -0.008281  0.089106  0.003007  4.018965  0.002
C  C272  1  0.79152300  0.98929272  0.37343222  1  -0.019437  0.003792  -0.008106  0.089128  0.00299  4.017764  0.002
C  C273  1  0.98927674  0.19774875  0.53995699  1  -0.028483  0.003809  -0.008427  0.089426  0.002997  4.017182  0.002
C  C274  1  0.80229092  0.79145196  0.20670206  1  -0.04097  0.003824  -0.008328  0.089053  0.003007  4.018938  0.002
C  C275  1  0.20847627  0.01070711  0.87343246  1  -0.019462  0.003792  -0.008163  0.089047  0.002991  4.017838  0.002
C  C276  1  0.07362474  0.84813449  0.08323574  1  -0.042572  -0.00048  -0.096483  -0.137212  -0.000471  3.969825  0.0
C  C277  1  0.15188085  0.22562945  0.74997857  1  -0.013085  -0.00048  -0.096403  -0.136425  -0.000473  3.970329  0.0
C  C278  1  0.77451142  0.92639179  0.41668850  1  -0.089928  -0.000468  -0.09652  -0.136475  -0.00047  3.970503  0.0
C  C279  1  0.92636854  0.15185900  0.58323731  1  -0.042888  -0.000481  -0.096482  -0.137151  -0.000472  3.969921  0.0
C  C280  1  0.84812021  0.77437167  0.24997996  1  -0.012907  -0.00048  -0.096427  -0.136437  -0.000473  3.970381  0.0
C  C281  1  0.22548818  0.07360772  0.91668970  1  -0.090013  -0.000468  -0.096492  -0.136495  -0.00047  3.970409  0.0
C  C282  1  0.13047659  0.82706365  0.09706677  1  -0.045133  0.004465  -0.084911  -0.084555  0.003193  3.976396  0.003
C  C283  1  0.17299490  0.30358029  0.76373394  1  -0.051186  0.00449  -0.084806  -0.085452  0.003206  3.976852  0.003
C  C284  1  0.69657587  0.86951428  0.43052490  1  -0.038132  0.004466  -0.084652  -0.084493  0.003195  3.97594  0.003
C  C285  1  0.86951934  0.17293130  0.59706878  1  -0.044712  0.004465  -0.084899  -0.084701  0.003193  3.976404  0.003
C  C286  1  0.82700557  0.69642142  0.26373536  1  -0.051216  0.00449  -0.084746  -0.085416  0.003206  3.976836  0.003
C  C287  1  0.30342455  0.13048544  0.93052464  1  -0.03816  0.004467  -0.08474  -0.084642  0.003195  3.975985  0.003
C  C288  1  0.18818614  0.73845886  0.08154671  1  1.541296  0.024789  0.227721  0.593782  0.025125  4.18775  0.022
C  C289  1  0.26170641  0.44986636  0.74811414  1  1.575961  0.024725  0.227917  0.594491  0.025171  4.188494  0.022
C  C290  1  0.55022832  0.81175848  0.41499151  1  1.5582  0.024817  0.227339  0.592609  0.025132  4.189118  0.022
C  C291  1  0.81181206  0.26153895  0.58154765  1  1.540656  0.024798  0.227936  0.594153  0.02513  4.187209  0.022
C  C292  1  0.73829530  0.55013719  0.24811510  1  1.575595  0.024732  0.227903  0.59449  0.025171  4.188303  0.022
C  C293  1  0.44977208  0.18824125  0.91498934  1  1.558006  0.024818  0.227431  0.592732  0.02513  4.188933  0.022
C  C294  1  0.72431486  0.53061597  0.04421234  1  -0.02587  -0.002679  -0.019584  -0.049752  -0.004044  3.986278  -0.003
C  C295  1  0.46943788  0.19378341  0.71093141  1  -0.013193  -0.00268  -0.019172  -0.050907  -0.004042  3.985909  -0.003
C  C296  1  0.80628743  0.27570092  0.37756877  1  -0.066231  -0.00265  -0.01959  -0.050889  -0.004032  3.98674  -0.003
C  C297  1  0.27568566  0.46938362  0.54421235  1  -0.026027  -0.002678  -0.019553  -0.049717  -0.004044  3.986275  -0.003
C  C298  1  0.53056140  0.80621537  0.21093161  1  -0.013224  -0.002682  -0.01923  -0.051002  -0.004044  3.985951  -0.003
C  C299  1  0.19371112  0.72429758  0.87757006  1  -0.066219  -0.00265  -0.019671  -0.050992  -0.004033  3.986627  -0.003
C  C300  1  0.70477205  0.57361756  0.00024653  1  -0.026538  0.009276  -0.08382  -0.082104  0.00691  3.983754  0.006
C  C301  1  0.42644055  0.13124330  0.66696219  1  0.037732  0.009263  -0.083892  -0.081133  0.00691  3.983535  0.006
C  C302  1  0.86892043  0.29532405  0.33367468  1  -0.04298  0.009275  -0.083375  -0.080088  0.006896  3.983375  0.006
C  C303  1  0.29522713  0.42638131  0.50024609  1  -0.026524  0.009274  -0.083833  -0.082089  0.006909  3.983754  0.006
C  C304  1  0.57355901  0.86875521  0.16696238  1  0.037771  0.009265  -0.083887  -0.081094  0.006912  3.983469  0.006
C  C305  1  0.13107605  0.70467242  0.83367546  1  -0.042676  0.009275  -0.083343  -0.079995  0.006897  3.983231  0.006
C  C306  1  0.75277549  0.65518973  0.99480924  1  -0.032548  -0.002408  -0.09695  -0.13756  -0.002415  3.970946  -0.002
C  C307  1  0.34487620  0.09771539  0.66148978  1  -0.080624  -0.002411  -0.096888  -0.13842  -0.002416  3.971417  -0.002
C  C308  1  0.90252344  0.24735877  0.32824748  1  -0.076618  -0.002401  -0.097491  -0.139855  -0.002408  3.972129  -0.002
C  C309  1  0.24722223  0.34480961  0.49480758  1  -0.032913  -0.002407  -0.096971  -0.137529  -0.002415  3.970973  -0.002
C  C310  1  0.65512387  0.90228364  0.16148999  1  -0.080718  -0.002412  -0.096873  -0.138392  -0.002417  3.971419  -0.002
C  C311  1  0.09747385  0.75263792  0.82824723  1  -0.076948  -0.002401  -0.097486  -0.139942  -0.002408  3.972172  -0.002
C  C312  1  0.82201687  0.69672235  0.03296898  1  0.030709  0.008433  -0.004478  0.095899  0.00666  4.008974  0.005
C  C313  1  0.30334055  0.12546538  0.69961096  1  -0.036925  0.008469  -0.004074  0.097572  0.006666  4.007122  0.005
C  C314  1  0.87475491  0.17805994  0.36635347  1  -0.008706  0.008434  -0.00403  0.09783  0.006653  4.006776  0.005
C  C315  1  0.17798064  0.30327718  0.53296658  1  0.030883  0.008431  -0.004513  0.095832  0.006659  4.009029  0.005
C  C316  1  0.69666034  0.87453384  0.19961023  1  -0.036779  0.008471  -0.004121  0.097494  0.006668  4.007193  0.005
C  C317  1  0.12524305  0.82193916  0.86635172  1  -0.008829  0.008435  -0.004054  0.097855  0.006654  4.006897  0.005
C  C318  1  0.84074785  0.65334665  0.07766100  1  -0.110051  -0.00206  -0.08483  -0.121279  -0.002082  3.957772  -0.002
C  C319  1  0.34672827  0.18757622  0.74430983  1  -0.039107  -0.00209  -0.084474  -0.122212  -0.002081  3.957136  -0.002
C  C320  1  0.81260713  0.15929746  0.41100618  1  -0.00948  -0.002089  -0.084924  -0.121698  -0.002077  3.957063  -0.002
C  C321  1  0.15925099  0.34665360  0.57765955  1  -0.110071  -0.00206  -0.084799  -0.121232  -0.002081  3.957861  -0.002
C  C322  1  0.65327213  0.81242248  0.24430961  1  -0.039108  -0.00209  -0.084561  -0.122386  -0.002081  3.957257  -0.002
C  C323  1  0.18739165  0.84070184  0.91100494  1  -0.009524  -0.002089  -0.084918  -0.121663  -0.002077  3.957088  -0.002
C  C324  1  0.79301000  0.57176541  0.08264338  1  0.072055  0.00758  -0.07645  -0.072035  0.005465  3.968253  0.005
C  C325  1  0.42831086  0.22136695  0.74933591  1  0.002867  0.007611  -0.076699  -0.070894  0.005466  3.966792  0.005
C  C326  1  0.77873185  0.20701182  0.41598361  1  0.038203  0.007589  -0.076294  -0.071886  0.005456  3.968493  0.005
C  C327  1  0.20698973  0.42823395  0.58264288  1  0.071959  0.007578  -0.076479  -0.072074  0.005464  3.96838  0.005
C  C328  1  0.57168925  0.77863204  0.24933566  1  0.002882  0.007613  -0.076619  -0.070746  0.005468  3.966768  0.005
C  C329  1  0.22126672  0.79298667  0.91598389  1  0.038323  0.00759  -0.07625  -0.071828  0.005456  3.968482  0.005
C  C330  1  0.67238498  0.44379006  0.05117843  1  1.517017  0.03847  0.230609  0.600041  0.037527  4.129285  0.032
C  C331  1  0.55627632  0.22868935  0.71788327  1  1.520793  0.038389  0.230115  0.599865  0.037567  4.128974  0.032
C  C332  1  0.77131134  0.32756224  0.38446363  1  1.529166  0.038313  0.231027  0.601522  0.037506  4.12579  0.032
C  C333  1  0.32761716  0.55620996  0.55117990  1  1.517023  0.038464  0.230588  0.600063  0.037521  4.129326  0.032
C  C334  1  0.44372429  0.77131016  0.21788393  1  1.520802  0.038394  0.230143  0.59983  0.037574  4.128915  0.032
C  C335  1  0.22868824  0.67243729  0.88446497  1  1.529122  0.038314  0.231002  0.60151  0.037508  4.125766  0.032
S  S336  1  0.81637016  0.00145554  0.99247761  1  0.165831  0.001407  0.055327  0.073398  0.001066  2.894239  0.001
S  S337  1  0.99865786  0.81492601  0.65931013  1  0.213195  0.001411  0.055296  0.073324  0.001073  2.891791  0.001
S  S338  1  0.18517518  0.18366760  0.32582362  1  0.19593  0.001407  0.055132  0.073112  0.001067  2.892231  0.001
S  S339  1  0.18362896  0.99854343  0.49247552  1  0.165896  0.001407  0.055343  0.073447  0.001067  2.894261  0.001
S  S340  1  0.00134345  0.18507485  0.15931038  1  0.213193  0.001411  0.0553  0.073307  0.001073  2.891797  0.001
S  S341  1  0.81482399  0.81633335  0.82582473  1  0.19582  0.001407  0.055171  0.073154  0.001067  2.892226  0.001
S  S342  1  0.98970689  0.08746216  0.98206460  1  0.195433  0.001987  0.045876  0.054726  0.001537  2.952262  0.001
S  S343  1  0.91259368  0.90215598  0.64877528  1  0.20866  0.001981  0.045878  0.054577  0.001534  2.952606  0.001
S  S344  1  0.09783082  0.01035508  0.31549065  1  0.21109  0.001988  0.045856  0.054445  0.001539  2.95161  0.001
S  S345  1  0.01029200  0.91253601  0.48206640  1  0.195403  0.001987  0.045902  0.054703  0.001537  2.952264  0.001
S  S346  1  0.08740835  0.09784621  0.14877416  1  0.208658  0.001981  0.045892  0.054588  0.001534  2.952523  0.001
S  S347  1  0.90216983  0.98964439  0.81548730  1  0.210995  0.001989  0.045867  0.054435  0.001539  2.951732  0.001
S  S348  1  0.99462241  0.92763948  0.00713010  1  0.202813  0.002138  0.053584  0.066826  0.001658  2.987325  0.001
S  S349  1  0.07233637  0.06699368  0.67383391  1  0.19697  0.002143  0.053591  0.066606  0.001661  2.985882  0.001
S  S350  1  0.93302631  0.00542988  0.34044495  1  0.200794  0.002137  0.053685  0.066849  0.001657  2.985872  0.001
S  S351  1  0.00537591  0.07235616  0.50713313  1  0.202894  0.002138  0.053618  0.066925  0.001658  2.987271  0.001
S  S352  1  0.92766494  0.93300717  0.17383378  1  0.196923  0.002143  0.053601  0.066637  0.001662  2.985951  0.001
S  S353  1  0.06697244  0.99456944  0.84044601  1  0.200941  0.002137  0.053711  0.066868  0.001657  2.985878  0.001
S  S354  1  0.82087603  0.83444586  0.00827562  1  0.169672  0.000825  0.049249  0.064583  0.000605  2.878265  0.0
S  S355  1  0.16570863  0.98665685  0.67469099  1  0.184496  0.00083  0.049267  0.064723  0.000609  2.879186  0.0
S  S356  1  0.01352566  0.17913103  0.34140948  1  0.171247  0.000828  0.049509  0.065023  0.000607  2.878877  0.0
S  S357  1  0.17912065  0.16555347  0.50827330  1  0.16936  0.000825  0.0493  0.064657  0.000605  2.878379  0.0
S  S358  1  0.83429217  0.01334349  0.17469085  1  0.184254  0.000829  0.049229  0.064685  0.000609  2.879256  0.0
S  S359  1  0.98647471  0.82086873  0.84140873  1  0.171224  0.000828  0.049508  0.065053  0.000607  2.878886  0.0
O  O360  1  0.60322723  0.21126931  0.05176770  1  -1.19594  0.073612  -0.303646  -0.55198  0.04889  2.262383  0.034
O  O361  1  0.78870975  0.39183761  0.71837725  1  -1.196868  0.073797  -0.303926  -0.552631  0.048926  2.263095  0.034
O  O362  1  0.60811642  0.39684374  0.38503854  1  -1.186424  0.073721  -0.303953  -0.553063  0.048977  2.26295  0.034
O  O363  1  0.39677271  0.78873087  0.55176809  1  -1.195958  0.073612  -0.303658  -0.551986  0.048889  2.262372  0.034
O  O364  1  0.21128805  0.60816265  0.21837885  1  -1.196617  0.073799  -0.303907  -0.55257  0.048928  2.263091  0.034
O  O365  1  0.39188257  0.60315638  0.88503953  1  -1.186462  0.073716  -0.303888  -0.552956  0.048976  2.262956  0.034
O  O366  1  0.65514980  0.28148574  0.96150895  1  -1.21242  0.091715  -0.300298  -0.575163  0.065447  2.36602  0.035
O  O367  1  0.71858356  0.37371662  0.62808730  1  -1.220249  0.09216  -0.300139  -0.575919  0.065434  2.364701  0.035
O  O368  1  0.62639344  0.34488829  0.29479183  1  -1.215371  0.092059  -0.30073  -0.57654  0.065601  2.367477  0.036
O  O369  1  0.34485084  0.71851478  0.46150909  1  -1.212436  0.091715  -0.300218  -0.575111  0.065441  2.366029  0.035
O  O370  1  0.28141280  0.62628406  0.12808844  1  -1.220116  0.092154  -0.300153  -0.575898  0.065434  2.364653  0.035
O  O371  1  0.37360726  0.65511422  0.79479376  1  -1.215471  0.092077  -0.300681  -0.576508  0.065605  2.36758  0.036
O  O372  1  0.23490187  0.49858111  0.94509745  1  -1.21331  0.088632  -0.32563  -0.580639  0.060027  2.376113  0.037
O  O373  1  0.50158917  0.73679062  0.61196847  1  -1.213277  0.088555  -0.325683  -0.580216  0.059895  2.374228  0.037
O  O374  1  0.26356536  0.76505646  0.27856884  1  -1.217505  0.088654  -0.324992  -0.579808  0.059972  2.374472  0.037
O  O375  1  0.76509782  0.50141728  0.44509747  1  -1.213315  0.088627  -0.325618  -0.58062  0.060025  2.376101  0.037
O  O376  1  0.49841315  0.26321128  0.11196749  1  -1.213323  0.088543  -0.325683  -0.580265  0.059891  2.374259  0.037
O  O377  1  0.73643690  0.23494346  0.77856779  1  -1.217625  0.088664  -0.325043  -0.579817  0.059971  2.374445  0.037
O  O378  1  0.16546092  0.52804375  0.01625162  1  -1.179558  0.084446  -0.303797  -0.551853  0.059004  2.267542  0.045
O  O379  1  0.47200841  0.63758291  0.68282244  1  -1.189619  0.084469  -0.303255  -0.550798  0.059026  2.2697  0.045
O  O380  1  0.36277275  0.83455227  0.34946406  1  -1.178316  0.08426  -0.303392  -0.551488  0.058955  2.268457  0.045
O  O381  1  0.83453886  0.47195452  0.51625246  1  -1.179635  0.084445  -0.303802  -0.551884  0.059005  2.267632  0.045
O  O382  1  0.52799525  0.36241970  0.18282192  1  -1.189497  0.084468  -0.303232  -0.550821  0.059024  2.269691  0.045
O  O383  1  0.63723005  0.16544814  0.84946299  1  -1.178214  0.084264  -0.30339  -0.551478  0.058954  2.26855  0.045
O  O384  1  0.19020663  0.68615764  0.04594298  1  -1.193791  0.071683  -0.300338  -0.565684  0.051243  2.354198  0.035
O  O385  1  0.31424886  0.50417352  0.71265082  1  -1.199888  0.07169  -0.300491  -0.566087  0.05117  2.35439  0.035
O  O386  1  0.49590627  0.80985429  0.37945453  1  -1.194498  0.071698  -0.300012  -0.565083  0.051279  2.353886  0.035
O  O387  1  0.80979257  0.31384122  0.54594487  1  -1.193755  0.071689  -0.300412  -0.565864  0.051249  2.354106  0.035
O  O388  1  0.68575431  0.49582856  0.21265130  1  -1.199764  0.071697  -0.300476  -0.566048  0.051168  2.354178  0.035
O  O389  1  0.50409412  0.19014545  0.87945288  1  -1.194425  0.07169  -0.300056  -0.565123  0.051281  2.353956  0.035
O  O390  1  0.23567877  0.77469777  0.12937436  1  -1.204481  0.083034  -0.325999  -0.580402  0.055414  2.334393  0.032
O  O391  1  0.22530828  0.46117347  0.79578661  1  -1.213003  0.084649  -0.326121  -0.58062  0.055466  2.333573  0.032
O  O392  1  0.53893908  0.76413020  0.46271409  1  -1.199868  0.082988  -0.325952  -0.579887  0.055365  2.333524  0.032
O  O393  1  0.76431739  0.22529798  0.62937480  1  -1.204117  0.083044  -0.32607  -0.580476  0.05542  2.334297  0.032
O  O394  1  0.77469161  0.53882881  0.29578858  1  -1.212709  0.084643  -0.326124  -0.580661  0.055468  2.333558  0.032
O  O395  1  0.46106245  0.23586943  0.96271239  1  -1.199773  0.082991  -0.325993  -0.579975  0.055366  2.333406  0.032
O  O396  1  0.61302325  0.40765123  0.01121099  1  -1.193539  0.081359  -0.314273  -0.57396  0.054689  2.313138  0.035
O  O397  1  0.59237948  0.20543710  0.67791733  1  -1.203176  0.081578  -0.313968  -0.573598  0.054721  2.313231  0.035
O  O398  1  0.79452438  0.38687882  0.34444414  1  -1.202345  0.081572  -0.314419  -0.574343  0.054772  2.311825  0.035
O  O399  1  0.38697748  0.59234918  0.51121149  1  -1.193535  0.081349  -0.314295  -0.574026  0.054688  2.313153  0.035
O  O400  1  0.40761949  0.79456199  0.17791796  1  -1.203179  0.081587  -0.313967  -0.573562  0.054724  2.313219  0.035
O  O401  1  0.20547540  0.61312153  0.84444550  1  -1.202323  0.081574  -0.314389  -0.574301  0.054773  2.311843  0.035
O  O402  1  0.68591583  0.40591787  0.09540349  1  -1.215148  0.068851  -0.306115  -0.585805  0.048002  2.331305  0.023
O  O403  1  0.59416014  0.28013315  0.76207247  1  -1.210648  0.068806  -0.306052  -0.585419  0.047811  2.331316  0.023
O  O404  1  0.71986396  0.31402538  0.42865626  1  -1.213233  0.068672  -0.306495  -0.586497  0.047816  2.329961  0.023
O  O405  1  0.31408693  0.59408154  0.59540542  1  -1.215211  0.068866  -0.306075  -0.585805  0.047998  2.331255  0.023
O  O406  1  0.40583946  0.71986532  0.26207313  1  -1.21071  0.068816  -0.306062  -0.585419  0.047816  2.331311  0.023
O  O407  1  0.28013637  0.68597545  0.92865713  1  -1.213238  0.068673  -0.30651  -0.586544  0.047817  2.329998  0.023
O  O408  1  0.39091865  0.77315499  0.04783097  1  -1.268297  0.034657  -0.552945  -0.77157  0.025999  2.023984  0.016
O  O409  1  0.22689286  0.61776381  0.71437473  1  -1.228687  0.034553  -0.552931  -0.772282  0.026037  2.024766  0.016
O  O410  1  0.38241055  0.60923296  0.38109995  1  -1.258771  0.034704  -0.55309  -0.771506  0.026028  2.024034  0.016
O  O411  1  0.60908320  0.22684532  0.54783035  1  -1.268277  0.034659  -0.552932  -0.771552  0.026001  2.024025  0.016
O  O412  1  0.77310602  0.38224050  0.21437385  1  -1.228565  0.034559  -0.552928  -0.772318  0.026041  2.024798  0.016
O  O413  1  0.61759145  0.39076721  0.88109973  1  -1.258646  0.034698  -0.553067  -0.771416  0.026026  2.024128  0.016
O  O414  1  0.37543935  0.63258130  0.01308851  1  -1.223291  0.050281  -0.56614  -0.751707  0.035377  2.057133  0.021
O  O415  1  0.36746398  0.74294707  0.67987922  1  -1.271352  0.050354  -0.56588  -0.751156  0.035404  2.057082  0.021
O  O416  1  0.25714978  0.62452972  0.34643057  1  -1.252158  0.050374  -0.565812  -0.752151  0.035379  2.055915  0.021
O  O417  1  0.62456087  0.36741860  0.51308879  1  -1.223284  0.05028  -0.566138  -0.751712  0.035376  2.05712  0.021
O  O418  1  0.63253696  0.25705518  0.17987784  1  -1.271354  0.050356  -0.565893  -0.751211  0.035405  2.056989  0.021
O  O419  1  0.74285088  0.37546974  0.84642994  1  -1.252089  0.050362  -0.565781  -0.752043  0.035378  2.05597  0.021
