# generated using pymatgen
data_CdH19C24N3O4
_symmetry_space_group_name_H-M   'P 1'
_cell_length_a   14.62191071
_cell_length_b   15.89411566
_cell_length_c   22.58726720
_cell_angle_alpha   90.00050406
_cell_angle_beta   90.00010785
_cell_angle_gamma   90.00009859
_symmetry_Int_Tables_number   1
_chemical_formula_structural   CdH19C24N3O4
_chemical_formula_sum   'Cd8 H152 C192 N24 O32'
_cell_volume   5249.33375151
_cell_formula_units_Z   8
loop_
 _symmetry_equiv_pos_site_id
 _symmetry_equiv_pos_as_xyz
  1  'x, y, z'
loop_
 _atom_site_type_symbol
 _atom_site_label
 _atom_site_symmetry_multiplicity
 _atom_site_fract_x
 _atom_site_fract_y
 _atom_site_fract_z
 _atom_site_occupancy
 _atom_site_pbe_bader_charge
 _atom_site_pbe_bader_spin_density
 _atom_site_pbe_cm5_charge
 _atom_site_pbe_ddec_charge
 _atom_site_pbe_ddec_spin_density
 _atom_site_pbe_ddec_sum_bond_order
 _atom_site_pbe_magmom
Cd  Cd0  1  0.35494581  0.24103168  0.11503968  1  1.239617  0  0.755883  0.782211  0  2.253303  0
Cd  Cd1  1  0.14506565  0.25896324  0.61503635  1  1.239804  0  0.755916  0.782283  0  2.25331  0
Cd  Cd2  1  0.85493155  0.25895976  0.88495522  1  1.239636  0  0.755901  0.782141  0  2.253332  0
Cd  Cd3  1  0.64507108  0.24103985  0.38496937  1  1.239758  0  0.7559  0.782209  0  2.253257  0
Cd  Cd4  1  0.64506071  0.75897296  0.88496198  1  1.23967  0  0.755868  0.782255  0  2.253189  0
Cd  Cd5  1  0.85493061  0.74104140  0.38495956  1  1.239881  0  0.755921  0.782308  0  2.253275  0
Cd  Cd6  1  0.14507086  0.74104110  0.11503670  1  1.23986  0  0.755907  0.782196  0  2.253257  0
Cd  Cd7  1  0.35493544  0.75896479  0.61504115  1  1.239625  0  0.755896  0.782193  0  2.253327  0
H  H8  1  0.14166247  0.26266965  0.10395461  1  0.107432  0  0.120915  0.098665  0  0.974688  0
H  H9  1  0.35834964  0.23733394  0.60395539  1  0.10752  0  0.120979  0.098748  0  0.97474  0
H  H10  1  0.64165846  0.23733909  0.89604446  1  0.107555  0  0.120934  0.098703  0  0.97476  0
H  H11  1  0.85834968  0.26266757  0.39605324  1  0.10747  0  0.120932  0.098698  0  0.974779  0
H  H12  1  0.85835020  0.73734128  0.89604838  1  0.107676  0  0.12085  0.098571  0  0.974907  0
H  H13  1  0.64164730  0.76268391  0.39606221  1  0.107283  0  0.120954  0.098677  0  0.974854  0
H  H14  1  0.35834669  0.76266303  0.10395676  1  0.107585  0  0.120946  0.098746  0  0.974684  0
H  H15  1  0.14165479  0.73732511  0.60394532  1  0.107309  0  0.120945  0.098714  0  0.974718  0
H  H16  1  0.45962681  0.12174614  0.01864125  1  0.147625  0  0.115844  0.10036  0  1.030267  0
H  H17  1  0.04036727  0.37823879  0.51864696  1  0.14752  0  0.11586  0.100349  0  1.030379  0
H  H18  1  0.95963017  0.37825490  0.98134359  1  0.148  0  0.115865  0.100276  0  1.030423  0
H  H19  1  0.54035976  0.12176351  0.48135907  1  0.147067  0  0.115858  0.100435  0  1.030068  0
H  H20  1  0.54035851  0.87824277  0.98135333  1  0.147703  0  0.115886  0.100392  0  1.030309  0
H  H21  1  0.95964472  0.62175767  0.48135116  1  0.14743  0  0.115847  0.100373  0  1.030244  0
H  H22  1  0.04035720  0.62176232  0.01863903  1  0.147096  0  0.115868  0.100405  0  1.030062  0
H  H23  1  0.45963582  0.87824490  0.51865366  1  0.147796  0  0.115863  0.100326  0  1.030392  0
H  H24  1  0.95642577  0.76808401  0.04915281  1  0.110461  0  0.11509  0.084128  0  1.017618  0
H  H25  1  0.54358781  0.73191112  0.54915672  1  0.110667  0  0.115052  0.0841  0  1.017513  0
H  H26  1  0.45639597  0.73191415  0.95084094  1  0.110715  0  0.115081  0.08411  0  1.0175  0
H  H27  1  0.04357781  0.76808454  0.45083476  1  0.110712  0  0.11512  0.084241  0  1.017483  0
H  H28  1  0.04358622  0.23192440  0.95084310  1  0.110371  0  0.11506  0.084119  0  1.017608  0
H  H29  1  0.45641324  0.26809603  0.45083831  1  0.110907  0  0.115132  0.084185  0  1.017522  0
H  H30  1  0.54359756  0.26808420  0.04916294  1  0.110696  0  0.115133  0.084202  0  1.017488  0
H  H31  1  0.95641298  0.23191758  0.54916380  1  0.110586  0  0.115088  0.084214  0  1.017436  0
H  H32  1  0.59609656  0.02684503  0.01078218  1  0.090144  0  0.10864  0.114481  0  1.007313  0
H  H33  1  0.90389609  0.47313928  0.51078893  1  0.090047  0  0.108606  0.114463  0  1.00727  0
H  H34  1  0.09609607  0.47315987  0.98919780  1  0.090676  0  0.108635  0.114484  0  1.007405  0
H  H35  1  0.40389324  0.02685852  0.48921356  1  0.090045  0  0.108593  0.114396  0  1.007357  0
H  H36  1  0.40389013  0.97314262  0.98920930  1  0.090213  0  0.10858  0.114443  0  1.007247  0
H  H37  1  0.09610770  0.52684900  0.48920034  1  0.090565  0  0.108587  0.114375  0  1.007362  0
H  H38  1  0.90388720  0.52685987  0.01078660  1  0.090033  0  0.108623  0.114433  0  1.007309  0
H  H39  1  0.59609686  0.97315178  0.51079873  1  0.09032  0  0.108631  0.11448  0  1.007388  0
H  H40  1  0.28258546  0.15603041  0.32800891  1  0.068037  0  0.096542  0.092985  0  1.036818  0
H  H41  1  0.21742458  0.34395769  0.82801019  1  0.0685  0  0.096574  0.093085  0  1.036592  0
H  H42  1  0.78258578  0.34395338  0.67200450  1  0.068343  0  0.096611  0.093132  0  1.036518  0
H  H43  1  0.71742785  0.15603166  0.17199163  1  0.068298  0  0.096554  0.093034  0  1.036622  0
H  H44  1  0.71741422  0.84395724  0.67199275  1  0.068313  0  0.096572  0.093106  0  1.036688  0
H  H45  1  0.78256758  0.65602555  0.17198970  1  0.068385  0  0.096533  0.093072  0  1.036425  0
H  H46  1  0.21741595  0.65603301  0.32800868  1  0.068125  0  0.096523  0.092935  0  1.036704  0
H  H47  1  0.28256636  0.84396794  0.82800251  1  0.068336  0  0.096582  0.093106  0  1.036574  0
H  H48  1  0.75988454  0.00006900  0.18200565  1  0.089298  0  0.111527  0.111925  0  0.98921  0
H  H49  1  0.74011271  0.49992497  0.68201503  1  0.089051  0  0.111555  0.111896  0  0.988969  0
H  H50  1  0.25989523  0.49992104  0.81797098  1  0.088588  0  0.111507  0.111844  0  0.988986  0
H  H51  1  0.24011615  0.00006882  0.31798239  1  0.08908  0  0.111531  0.111933  0  0.988996  0
H  H52  1  0.24010283  0.99993438  0.81798140  1  0.089047  0  0.111555  0.111919  0  0.989039  0
H  H53  1  0.25989176  0.50007652  0.31796893  1  0.088558  0  0.11153  0.111901  0  0.988903  0
H  H54  1  0.74011813  0.50007793  0.18202271  1  0.08877  0  0.111515  0.111826  0  0.98905  0
H  H55  1  0.75989995  0.99992197  0.68202148  1  0.088828  0  0.111562  0.111897  0  0.989019  0
H  H56  1  0.61089587  0.03085714  0.20228877  1  0.106577  0  0.11393  0.123677  0  0.991878  0
H  H57  1  0.88910623  0.46913142  0.70229636  1  0.106042  0  0.113922  0.123589  0  0.992055  0
H  H58  1  0.11090917  0.46910689  0.79769256  1  0.105712  0  0.11386  0.123699  0  0.992002  0
H  H59  1  0.38911104  0.03086511  0.29770655  1  0.106106  0  0.113957  0.123666  0  0.992019  0
H  H60  1  0.38910792  0.96913366  0.79770050  1  0.111273  0  0.11395  0.12384  0  0.992022  0
H  H61  1  0.11088456  0.53087385  0.29769335  1  0.111135  0  0.113924  0.123673  0  0.992088  0
H  H62  1  0.88911445  0.53086818  0.20229361  1  0.111376  0  0.113958  0.12365  0  0.992001  0
H  H63  1  0.61089548  0.96912631  0.70230618  1  0.111309  0  0.11388  0.12369  0  0.992017  0
H  H64  1  0.18913197  0.31951701  0.28708676  1  0.093915  0  0.097771  0.112297  0  1.006174  0
H  H65  1  0.31089231  0.18047751  0.78707959  1  0.093374  0  0.097815  0.112269  0  1.006177  0
H  H66  1  0.68907943  0.18047860  0.71291281  1  0.092549  0  0.097807  0.112333  0  1.00606  0
H  H67  1  0.81088781  0.31951638  0.21292234  1  0.093027  0  0.09785  0.112304  0  1.006141  0
H  H68  1  0.81088617  0.68047694  0.71292066  1  0.093326  0  0.09786  0.112306  0  1.006199  0
H  H69  1  0.68910259  0.81951328  0.21291366  1  0.092647  0  0.097779  0.11226  0  1.006192  0
H  H70  1  0.31088742  0.81951535  0.28709195  1  0.09344  0  0.097795  0.112371  0  1.006238  0
H  H71  1  0.18909956  0.68048196  0.78708065  1  0.092857  0  0.097799  0.112279  0  1.00616  0
H  H72  1  0.81001339  0.84585360  0.05455291  1  0.098012  0  0.109005  0.117772  0  1.013511  0
H  H73  1  0.68999337  0.65413216  0.55455872  1  0.098702  0  0.108978  0.117769  0  1.013583  0
H  H74  1  0.30999710  0.65412988  0.94543225  1  0.099118  0  0.109013  0.117832  0  1.013385  0
H  H75  1  0.18998487  0.84586120  0.44543648  1  0.098921  0  0.108933  0.117792  0  1.013397  0
H  H76  1  0.18998903  0.15414223  0.94544034  1  0.098716  0  0.10895  0.117778  0  1.01343  0
H  H77  1  0.31000631  0.34586870  0.44542834  1  0.098922  0  0.109025  0.117804  0  1.013293  0
H  H78  1  0.69000122  0.34586595  0.05456986  1  0.098761  0  0.109019  0.11783  0  1.013511  0
H  H79  1  0.81000728  0.15414155  0.55456961  1  0.098919  0  0.108984  0.117852  0  1.01329  0
H  H80  1  0.00248491  0.19105411  0.06296041  1  0.109383  0  0.10514  0.119171  0  1.027177  0
H  H81  1  0.49752230  0.30895212  0.56295428  1  0.109556  0  0.105183  0.119213  0  1.026997  0
H  H82  1  0.50248390  0.30895631  0.93704513  1  0.109587  0  0.105178  0.119273  0  1.027023  0
H  H83  1  0.99752231  0.19104079  0.43704788  1  0.109685  0  0.105166  0.119297  0  1.026973  0
H  H84  1  0.99752298  0.80896814  0.93704524  1  0.109696  0  0.105189  0.119322  0  1.027056  0
H  H85  1  0.50247807  0.69105755  0.43706111  1  0.109369  0  0.105157  0.119207  0  1.02709  0
H  H86  1  0.49751852  0.69104203  0.06295697  1  0.109513  0  0.105152  0.119242  0  1.027096  0
H  H87  1  0.00247327  0.80894497  0.56295467  1  0.109358  0  0.105172  0.119172  0  1.027095  0
H  H88  1  0.70497933  0.93565784  0.05809052  1  0.079747  0  0.106507  0.105903  0  1.012229  0
H  H89  1  0.79501991  0.56433047  0.55809899  1  0.079717  0  0.106575  0.106061  0  1.012366  0
H  H90  1  0.20498747  0.56432862  0.94188743  1  0.079947  0  0.106608  0.106017  0  1.012343  0
H  H91  1  0.29501296  0.93566745  0.44190165  1  0.079754  0  0.106561  0.106038  0  1.012386  0
H  H92  1  0.29501419  0.06433547  0.94189786  1  0.079902  0  0.106524  0.105972  0  1.012493  0
H  H93  1  0.20498729  0.43566598  0.44188364  1  0.079922  0  0.106606  0.105997  0  1.012355  0
H  H94  1  0.79500742  0.43567036  0.05810361  1  0.079935  0  0.10654  0.105983  0  1.012415  0
H  H95  1  0.70497920  0.06433719  0.55811108  1  0.080037  0  0.106637  0.106022  0  1.012404  0
H  H96  1  0.47303094  0.12408461  0.20106263  1  0.120757  0  0.1188  0.102075  0  1.018473  0
H  H97  1  0.02696984  0.37590256  0.70106653  1  0.120895  0  0.118864  0.101999  0  1.018697  0
H  H98  1  0.97303512  0.37589065  0.79892400  1  0.120426  0  0.118826  0.101926  0  1.018668  0
H  H99  1  0.52697684  0.12408840  0.29893816  1  0.121014  0  0.118859  0.102137  0  1.018604  0
H  H100  1  0.52697763  0.87591247  0.79893284  1  0.120976  0  0.11884  0.102036  0  1.018513  0
H  H101  1  0.97302164  0.62410271  0.29893114  1  0.120765  0  0.118857  0.101948  0  1.018663  0
H  H102  1  0.02697755  0.62409826  0.20106039  1  0.121243  0  0.118909  0.102024  0  1.018645  0
H  H103  1  0.47303105  0.87589673  0.70107325  1  0.120497  0  0.118862  0.101969  0  1.018665  0
H  H104  1  0.16808097  0.96530608  0.04557882  1  0.167154  0  0.105136  0.129714  0  1.04844  0
H  H105  1  0.33191008  0.53469267  0.54556943  1  0.167053  0  0.105142  0.129772  0  1.048323  0
H  H106  1  0.66809109  0.53469983  0.95443140  1  0.166884  0  0.105144  0.129706  0  1.048338  0
H  H107  1  0.83189906  0.96530845  0.45443877  1  0.166873  0  0.105229  0.129741  0  1.048335  0
H  H108  1  0.83191118  0.03470359  0.95443258  1  0.166773  0  0.105155  0.129742  0  1.048247  0
H  H109  1  0.66809234  0.46531763  0.45443134  1  0.167085  0  0.105158  0.129826  0  1.048481  0
H  H110  1  0.33190654  0.46530229  0.04556539  1  0.166734  0  0.105183  0.12975  0  1.048305  0
H  H111  1  0.16807532  0.03469115  0.54557351  1  0.167165  0  0.105184  0.129758  0  1.048409  0
H  H112  1  0.25517330  0.12678626  0.43594528  1  0.064075  0  0.092199  0.107221  0  1.053401  0
H  H113  1  0.24483432  0.37318366  0.93595209  1  0.064785  0  0.092101  0.106961  0  1.053475  0
H  H114  1  0.75519115  0.37321007  0.56406943  1  0.063763  0  0.092271  0.107367  0  1.053385  0
H  H115  1  0.74483858  0.12680574  0.06405508  1  0.064539  0  0.092107  0.106953  0  1.053448  0
H  H116  1  0.74482022  0.87320390  0.56406125  1  0.064177  0  0.092169  0.107105  0  1.053512  0
H  H117  1  0.75516604  0.62680273  0.06405533  1  0.064479  0  0.092106  0.106943  0  1.053384  0
H  H118  1  0.24482836  0.62679017  0.43595128  1  0.064058  0  0.092165  0.107078  0  1.053412  0
H  H119  1  0.25517888  0.87320079  0.93593552  1  0.064072  0  0.092164  0.107062  0  1.053535  0
H  H120  1  0.91546029  0.97205165  0.21005514  1  0.068808  0  0.111971  0.118342  0  0.986279  0
H  H121  1  0.58452641  0.52794168  0.71005781  1  0.086754  0  0.111943  0.118396  0  0.986357  0
H  H122  1  0.41547885  0.52795086  0.78993059  1  0.086612  0  0.111908  0.118265  0  0.986242  0
H  H123  1  0.08453207  0.97204712  0.28993062  1  0.086727  0  0.111947  0.118296  0  0.986345  0
H  H124  1  0.08451819  0.02795047  0.78994077  1  0.08684  0  0.111918  0.118362  0  0.986301  0
H  H125  1  0.41547874  0.47204785  0.28992658  1  0.086511  0  0.111901  0.118275  0  0.986258  0
H  H126  1  0.58452288  0.47206196  0.21006399  1  0.086541  0  0.111926  0.118311  0  0.986395  0
H  H127  1  0.91549087  0.02794305  0.71006175  1  0.086623  0  0.111906  0.118356  0  0.986391  0
H  H128  1  0.14773326  0.28067871  0.39091768  1  0.091275  0  0.101112  0.097239  0  1.001411  0
H  H129  1  0.35228381  0.21930324  0.89090948  1  0.090942  0  0.101156  0.09724  0  1.001431  0
H  H130  1  0.64771263  0.21932941  0.60908317  1  0.091502  0  0.101124  0.097184  0  1.001442  0
H  H131  1  0.85228782  0.28068505  0.10909560  1  0.091551  0  0.101193  0.097269  0  1.00161  0
H  H132  1  0.85229173  0.71932782  0.60908310  1  0.091356  0  0.101109  0.097239  0  1.001446  0
H  H133  1  0.64771040  0.78068315  0.10909219  1  0.091216  0  0.101124  0.097129  0  1.00155  0
H  H134  1  0.35227269  0.78067837  0.39092159  1  0.091393  0  0.101132  0.097264  0  1.001345  0
H  H135  1  0.14771049  0.71931896  0.89091314  1  0.091265  0  0.101158  0.097239  0  1.001392  0
H  H136  1  0.05991468  0.88723086  0.19721261  1  0.090203  0  0.11612  0.085242  0  1.013044  0
H  H137  1  0.44007818  0.61276786  0.69720916  1  0.09014  0  0.116127  0.085223  0  1.013082  0
H  H138  1  0.55992177  0.61278810  0.80278420  1  0.09019  0  0.11616  0.085301  0  1.012996  0
H  H139  1  0.94007888  0.88722399  0.30277660  1  0.089993  0  0.116179  0.085343  0  1.013094  0
H  H140  1  0.94007132  0.11278195  0.80278994  1  0.089869  0  0.116091  0.08522  0  1.012978  0
H  H141  1  0.55992765  0.38722294  0.30278055  1  0.08994  0  0.116163  0.085257  0  1.013142  0
H  H142  1  0.44007859  0.38722723  0.19721525  1  0.090055  0  0.116127  0.085258  0  1.013155  0
H  H143  1  0.05993311  0.11277310  0.69721046  1  0.08993  0  0.116147  0.085209  0  1.013222  0
H  H144  1  0.29703865  0.04656013  0.08753814  1  0.086619  0  0.115356  0.084243  0  0.99422  0
H  H145  1  0.20295906  0.45343257  0.58753168  1  0.086728  0  0.115353  0.08426  0  0.994176  0
H  H146  1  0.79704195  0.45344193  0.91246732  1  0.086522  0  0.115325  0.084224  0  0.994209  0
H  H147  1  0.70295051  0.04657186  0.41247366  1  0.086641  0  0.115314  0.084239  0  0.994105  0
H  H148  1  0.70295967  0.95344388  0.91246884  1  0.086582  0  0.115353  0.084203  0  0.99422  0
H  H149  1  0.79703925  0.54658025  0.41246644  1  0.086576  0  0.115374  0.084303  0  0.994102  0
H  H150  1  0.20295500  0.54656397  0.08752948  1  0.086575  0  0.115317  0.084187  0  0.994177  0
H  H151  1  0.29703208  0.95343592  0.58753066  1  0.086372  0  0.115352  0.084283  0  0.99428  0
H  H152  1  0.93028413  0.06393142  0.02452343  1  0.082139  0  0.10416  0.106618  0  1.015764  0
H  H153  1  0.56971061  0.43607006  0.52451006  1  0.082525  0  0.104185  0.106628  0  1.015876  0
H  H154  1  0.43029310  0.43607335  0.97548662  1  0.082533  0  0.104236  0.106702  0  1.015764  0
H  H155  1  0.06970164  0.06392034  0.47549778  1  0.082805  0  0.104258  0.106721  0  1.015806  0
H  H156  1  0.06971077  0.93608706  0.97548798  1  0.082554  0  0.104226  0.106677  0  1.015864  0
H  H157  1  0.43028907  0.56393081  0.47549116  1  0.082514  0  0.104194  0.106649  0  1.015827  0
H  H158  1  0.56971000  0.56392311  0.02452479  1  0.081988  0  0.104186  0.106654  0  1.015859  0
H  H159  1  0.93027752  0.93606794  0.52452247  1  0.081981  0  0.104176  0.106657  0  1.015943  0
C  C160  1  0.14351098  0.19683325  0.09036622  1  0.477588  0  0.046375  0.095779  0  3.951908  0
C  C161  1  0.35649494  0.30316829  0.59036077  1  0.478795  0  0.046166  0.095455  0  3.952037  0
C  C162  1  0.64350919  0.30317298  0.90963772  1  0.478824  0  0.046247  0.095657  0  3.951884  0
C  C163  1  0.85649283  0.19683260  0.40964387  1  0.479629  0  0.046306  0.095734  0  3.951648  0
C  C164  1  0.85649690  0.80318019  0.90964164  1  0.478856  0  0.046365  0.095873  0  3.951945  0
C  C165  1  0.64350201  0.69684768  0.40964975  1  0.47931  0  0.046204  0.095615  0  3.951809  0
C  C166  1  0.35649527  0.69682977  0.09036261  1  0.478743  0  0.046244  0.095635  0  3.951857  0
C  C167  1  0.14350412  0.80316386  0.59035823  1  0.479062  0  0.046233  0.09558  0  3.95177  0
C  C168  1  0.49465168  0.09818108  0.05791509  1  0.440704  0  0.039374  0.071981  0  3.97953  0
C  C169  1  0.00534594  0.40180873  0.55791781  1  0.440628  0  0.039271  0.071866  0  3.979763  0
C  C170  1  0.99465086  0.40181812  0.94207023  1  0.440485  0  0.039325  0.072067  0  3.979919  0
C  C171  1  0.50534168  0.09819352  0.44208420  1  0.441014  0  0.039323  0.071899  0  3.979454  0
C  C172  1  0.50534185  0.90181097  0.94207771  1  0.44067  0  0.039332  0.072001  0  3.979725  0
C  C173  1  0.99465921  0.59819024  0.44207633  1  0.440965  0  0.039351  0.071796  0  3.979881  0
C  C174  1  0.00534061  0.59819281  0.05791460  1  0.440941  0  0.039328  0.071955  0  3.979417  0
C  C175  1  0.49465458  0.90181364  0.55792721  1  0.440542  0  0.039342  0.072008  0  3.979898  0
C  C176  1  0.94420517  0.81374703  0.08428026  1  0.486861  0  0.046943  0.095937  0  3.95761  0
C  C177  1  0.55580031  0.68624602  0.58428301  1  0.486757  0  0.046939  0.095912  0  3.957363  0
C  C178  1  0.44418953  0.68624797  0.91571480  1  0.486806  0  0.046873  0.095832  0  3.957662  0
C  C179  1  0.05579167  0.81375218  0.41571026  1  0.484247  0  0.046788  0.095726  0  3.957399  0
C  C180  1  0.05579520  0.18625635  0.91571875  1  0.486963  0  0.04697  0.09591  0  3.957571  0
C  C181  1  0.44420142  0.31376051  0.41571202  1  0.486147  0  0.046768  0.095747  0  3.957536  0
C  C182  1  0.55580810  0.31375541  0.08428642  1  0.486874  0  0.046804  0.09567  0  3.957614  0
C  C183  1  0.94420323  0.18624869  0.58428831  1  0.486544  0  0.046845  0.095818  0  3.957651  0
C  C184  1  0.17576046  0.20651986  0.49634500  1  1.525203  0  0.171617  0.578438  0  4.286462  0
C  C185  1  0.32425145  0.29344640  0.99634299  1  1.522911  0  0.171556  0.57819  0  4.287236  0
C  C186  1  0.67577318  0.29349523  0.50366297  1  1.525886  0  0.171649  0.578197  0  4.286787  0
C  C187  1  0.82425911  0.20654248  0.00366339  1  1.522856  0  0.171411  0.578015  0  4.287643  0
C  C188  1  0.82424743  0.79348352  0.50365932  1  1.525663  0  0.171613  0.578269  0  4.286762  0
C  C189  1  0.67574550  0.70653810  0.00365823  1  1.522443  0  0.17142  0.578032  0  4.287259  0
C  C190  1  0.32425454  0.70652388  0.49634578  1  1.525419  0  0.171603  0.578259  0  4.28679  0
C  C191  1  0.17576383  0.79348040  0.99634093  1  1.525683  0  0.171582  0.578478  0  4.286351  0
C  C192  1  0.57028264  0.04567867  0.05406944  1  -0.025373  0  -0.082433  -0.173531  0  3.939228  0
C  C193  1  0.92971492  0.45430933  0.55407699  1  -0.02491  0  -0.082451  -0.173558  0  3.939523  0
C  C194  1  0.07028199  0.45431802  0.94591272  1  -0.024901  0  -0.082478  -0.173606  0  3.939569  0
C  C195  1  0.42971130  0.04568852  0.44592686  1  -0.023755  0  -0.082471  -0.173531  0  3.93939  0
C  C196  1  0.42970952  0.95431339  0.94591938  1  -0.025084  0  -0.082469  -0.17362  0  3.939558  0
C  C197  1  0.07029160  0.54568650  0.44591449  1  -0.025111  0  -0.082537  -0.173509  0  3.939661  0
C  C198  1  0.92970880  0.54568914  0.05407345  1  -0.023728  0  -0.0825  -0.173605  0  3.939415  0
C  C199  1  0.57028291  0.95431549  0.55408543  1  -0.02482  0  -0.082476  -0.173629  0  3.939675  0
C  C200  1  0.23724876  0.21043166  0.33172088  1  -0.035046  0  -0.088449  -0.049535  0  4.033264  0
C  C201  1  0.26276402  0.28955774  0.83171966  1  -0.035387  0  -0.088495  -0.049598  0  4.033347  0
C  C202  1  0.73723461  0.28955898  0.66828849  1  -0.035367  0  -0.0884  -0.049679  0  4.033593  0
C  C203  1  0.76276602  0.21043357  0.16828443  1  -0.035525  0  -0.088497  -0.049602  0  4.0337  0
C  C204  1  0.76276049  0.78956039  0.66828167  1  -0.035313  0  -0.088528  -0.049904  0  4.033927  0
C  C205  1  0.73722608  0.71043054  0.16828245  1  -0.035944  0  -0.088418  -0.049548  0  4.033485  0
C  C206  1  0.26275413  0.71043370  0.33172336  1  -0.035279  0  -0.088329  -0.049169  0  4.033024  0
C  C207  1  0.23722545  0.78956604  0.83171281  1  -0.036139  0  -0.088524  -0.049741  0  4.033608  0
C  C208  1  0.76535531  0.96394937  0.14093334  1  -0.047276  0  -0.072905  -0.114525  0  3.945221  0
C  C209  1  0.73464623  0.53604248  0.64094067  1  -0.047341  0  -0.072806  -0.114109  0  3.945097  0
C  C210  1  0.26536178  0.53603781  0.85904512  1  -0.047285  0  -0.07274  -0.114148  0  3.944842  0
C  C211  1  0.23464524  0.96395535  0.35905945  1  -0.047401  0  -0.072875  -0.114276  0  3.944749  0
C  C212  1  0.23463753  0.03604646  0.85905681  1  -0.04717  0  -0.072861  -0.114347  0  3.944839  0
C  C213  1  0.26535892  0.46395901  0.35904284  1  -0.046767  0  -0.072744  -0.114213  0  3.944759  0
C  C214  1  0.73464611  0.46396117  0.14094768  1  -0.047117  0  -0.072696  -0.113987  0  3.94476  0
C  C215  1  0.76536128  0.03604111  0.64094885  1  -0.047636  0  -0.072842  -0.114297  0  3.944872  0
C  C216  1  0.57953877  0.04815005  0.16021820  1  -0.022976  0  -0.078637  -0.170481  0  3.919956  0
C  C217  1  0.92046662  0.45184177  0.66022572  1  -0.02223  0  -0.078677  -0.170497  0  3.920324  0
C  C218  1  0.07954259  0.45183029  0.83976087  1  -0.022498  0  -0.078499  -0.170494  0  3.920139  0
C  C219  1  0.42046748  0.04815292  0.33977723  1  -0.022083  0  -0.07867  -0.170536  0  3.92015  0
C  C220  1  0.42046433  0.95184578  0.83977239  1  -0.027534  0  -0.078685  -0.170796  0  3.920385  0
C  C221  1  0.07953101  0.54816098  0.33976355  1  -0.02769  0  -0.07859  -0.170512  0  3.920012  0
C  C222  1  0.92046940  0.54815736  0.16022308  1  -0.027413  0  -0.078683  -0.170569  0  3.920231  0
C  C223  1  0.57953493  0.95184039  0.66023594  1  -0.028107  0  -0.078598  -0.170608  0  3.920045  0
C  C224  1  0.23214134  0.26340506  0.28513551  1  -0.06975  0  -0.094213  -0.21207  0  3.895655  0
C  C225  1  0.26787268  0.23659069  0.78513440  1  -0.069091  0  -0.094324  -0.212163  0  3.895716  0
C  C226  1  0.73211491  0.23658116  0.71486943  1  -0.06871  0  -0.094435  -0.212216  0  3.896056  0
C  C227  1  0.76787150  0.26340251  0.21487014  1  -0.068382  0  -0.094212  -0.211987  0  3.895875  0
C  C228  1  0.76786518  0.73658825  0.71486793  1  -0.068995  0  -0.094253  -0.211932  0  3.895927  0
C  C229  1  0.73212085  0.76340074  0.21486682  1  -0.067782  0  -0.094285  -0.212175  0  3.895933  0
C  C230  1  0.26786973  0.76340649  0.28513755  1  -0.069424  0  -0.094259  -0.212374  0  3.89581  0
C  C231  1  0.23212066  0.73659394  0.78512843  1  -0.067799  0  -0.09431  -0.21211  0  3.896021  0
C  C232  1  0.86281503  0.85800991  0.08741752  1  -0.080096  0  -0.078133  -0.165264  0  3.929263  0
C  C233  1  0.63718704  0.64197625  0.58742185  1  -0.080432  0  -0.07806  -0.165089  0  3.929496  0
C  C234  1  0.36280477  0.64197364  0.91257036  1  -0.080717  0  -0.078085  -0.165021  0  3.929479  0
C  C235  1  0.13717915  0.85802017  0.41257151  1  -0.080518  0  -0.077897  -0.165062  0  3.929101  0
C  C236  1  0.13717986  0.14198592  0.91257839  1  -0.080609  0  -0.078048  -0.165162  0  3.929097  0
C  C237  1  0.36281470  0.35802650  0.41256564  1  -0.0802  0  -0.078034  -0.164914  0  3.929223  0
C  C238  1  0.63719491  0.35802470  0.08742953  1  -0.0804  0  -0.078104  -0.165037  0  3.929608  0
C  C239  1  0.86281506  0.14198195  0.58742927  1  -0.080307  0  -0.07799  -0.16513  0  3.929141  0
C  C240  1  0.06663519  0.15657980  0.06777057  1  -0.044073  0  -0.084394  -0.182919  0  3.923073  0
C  C241  1  0.43336520  0.34342461  0.56776148  1  -0.046392  0  -0.084364  -0.182768  0  3.922677  0
C  C242  1  0.56664243  0.34343009  0.93223726  1  -0.046324  0  -0.084335  -0.182947  0  3.92289  0
C  C243  1  0.93336308  0.15657198  0.43224060  1  -0.047233  0  -0.084462  -0.18317  0  3.922582  0
C  C244  1  0.93336860  0.84343554  0.93223862  1  -0.046616  0  -0.084453  -0.183147  0  3.922894  0
C  C245  1  0.56663585  0.65658569  0.43224726  1  -0.047058  0  -0.08431  -0.182817  0  3.922804  0
C  C246  1  0.43336340  0.65657203  0.06776484  1  -0.046232  0  -0.084404  -0.183071  0  3.922864  0
C  C247  1  0.06663113  0.84341944  0.56776594  1  -0.045699  0  -0.084351  -0.182814  0  3.922884  0
C  C248  1  0.69760966  0.96848597  0.10038038  1  -0.048539  0  -0.076073  -0.116406  0  3.953805  0
C  C249  1  0.80238765  0.53150601  0.60038997  1  -0.048969  0  -0.076193  -0.116756  0  3.954456  0
C  C250  1  0.19761761  0.53149859  0.89959756  1  -0.048608  0  -0.076148  -0.116475  0  3.953807  0
C  C251  1  0.30238816  0.96849192  0.39961289  1  -0.048377  0  -0.076155  -0.116745  0  3.954303  0
C  C252  1  0.30238455  0.03151049  0.89960712  1  -0.04855  0  -0.076137  -0.116532  0  3.954226  0
C  C253  1  0.19761681  0.46849674  0.39959487  1  -0.04932  0  -0.076145  -0.116467  0  3.953919  0
C  C254  1  0.80238617  0.46849724  0.10039259  1  -0.048757  0  -0.07623  -0.116728  0  3.954147  0
C  C255  1  0.69761563  0.03150832  0.60039984  1  -0.048311  0  -0.076286  -0.116623  0  3.954073  0
C  C256  1  0.50307891  0.10010507  0.16021345  1  0.496632  0  0.049145  0.094973  0  3.937036  0
C  C257  1  0.99692375  0.39988360  0.66022117  1  0.496475  0  0.04908  0.094986  0  3.93704  0
C  C258  1  0.00307921  0.39987956  0.83977040  1  0.497846  0  0.049158  0.095158  0  3.937379  0
C  C259  1  0.49692403  0.10011309  0.33978497  1  0.496184  0  0.049091  0.094923  0  3.937113  0
C  C260  1  0.49692145  0.89988950  0.83977936  1  0.496258  0  0.049086  0.095053  0  3.93699  0
C  C261  1  0.00307388  0.60011852  0.33977606  1  0.49689  0  0.049058  0.094966  0  3.93694  0
C  C262  1  0.99692595  0.60011627  0.16021311  1  0.495998  0  0.049106  0.095157  0  3.936872  0
C  C263  1  0.50307497  0.89988400  0.66022732  1  0.497131  0  0.049123  0.095089  0  3.937211  0
C  C264  1  0.15817780  0.03161657  0.05655772  1  -0.032473  0  -0.085597  -0.181439  0  3.910403  0
C  C265  1  0.34181639  0.46838267  0.55654798  1  -0.032706  0  -0.085597  -0.181541  0  3.910761  0
C  C266  1  0.65818601  0.46838968  0.94345067  1  -0.033221  0  -0.085514  -0.181298  0  3.91042  0
C  C267  1  0.84180654  0.03161882  0.44345620  1  -0.032586  0  -0.085658  -0.181529  0  3.910749  0
C  C268  1  0.84181573  0.96839373  0.94345147  1  -0.032863  0  -0.085613  -0.181558  0  3.910263  0
C  C269  1  0.65818192  0.53162700  0.44345058  1  -0.032108  0  -0.085559  -0.181561  0  3.910936  0
C  C270  1  0.34181298  0.53161369  0.05654834  1  -0.032941  0  -0.085665  -0.181662  0  3.910596  0
C  C271  1  0.15817194  0.96837952  0.55655476  1  -0.032835  0  -0.085584  -0.181378  0  3.91053  0
C  C272  1  0.07389267  0.07283611  0.04807603  1  -0.017415  0  0.006001  0.143937  0  4.031448  0
C  C273  1  0.42609876  0.42716743  0.54806480  1  -0.016848  0  0.006063  0.143925  0  4.031523  0
C  C274  1  0.57390220  0.42717190  0.95193181  1  -0.016379  0  0.006023  0.143951  0  4.031274  0
C  C275  1  0.92609448  0.07283041  0.45193771  1  -0.017086  0  0.006141  0.144192  0  4.031283  0
C  C276  1  0.92610290  0.92717796  0.95193227  1  -0.016959  0  0.006158  0.144169  0  4.030888  0
C  C277  1  0.57389955  0.57283973  0.45193819  1  -0.017008  0  0.006012  0.143987  0  4.031544  0
C  C278  1  0.42610227  0.57282770  0.04806764  1  -0.016632  0  0.006169  0.144231  0  4.030901  0
C  C279  1  0.07388742  0.92716290  0.54807547  1  -0.017279  0  0.005937  0.14384  0  4.031256  0
C  C280  1  0.28639476  0.25193637  0.23006288  1  1.541851  0  0.171902  0.590508  0  4.267271  0
C  C281  1  0.21361909  0.24805808  0.73006001  1  1.542832  0  0.171983  0.590893  0  4.267007  0
C  C282  1  0.78636920  0.24802477  0.76994212  1  1.54297  0  0.171792  0.590373  0  4.267147  0
C  C283  1  0.71361463  0.25193693  0.26994225  1  1.541843  0  0.171816  0.590584  0  4.267333  0
C  C284  1  0.71361450  0.74805820  0.76994011  1  1.542823  0  0.171986  0.590874  0  4.266928  0
C  C285  1  0.78637443  0.75194593  0.26994254  1  1.542579  0  0.171862  0.590778  0  4.26694  0
C  C286  1  0.21362433  0.75193645  0.23006087  1  1.542996  0  0.171917  0.590756  0  4.267097  0
C  C287  1  0.28637479  0.74805260  0.73005765  1  1.542486  0  0.171752  0.590526  0  4.267211  0
C  C288  1  0.20940848  0.18089305  0.43707261  1  -0.043576  0  -0.10545  -0.243983  0  3.914995  0
C  C289  1  0.29059983  0.31907940  0.93707470  1  -0.041839  0  -0.105271  -0.243522  0  3.914704  0
C  C290  1  0.70941596  0.31911076  0.56293452  1  -0.044094  0  -0.10552  -0.244213  0  3.915164  0
C  C291  1  0.79060693  0.18090818  0.06293119  1  -0.04079  0  -0.105257  -0.243347  0  3.914413  0
C  C292  1  0.79059668  0.81910466  0.56293083  1  -0.043473  0  -0.105376  -0.243684  0  3.914892  0
C  C293  1  0.70939369  0.68090888  0.06292873  1  -0.040276  0  -0.105253  -0.243385  0  3.914741  0
C  C294  1  0.29059467  0.68089514  0.43707600  1  -0.043866  0  -0.105312  -0.243633  0  3.914619  0
C  C295  1  0.20940437  0.81909898  0.93706914  1  -0.043658  0  -0.105413  -0.243867  0  3.91526  0
C  C296  1  0.92209065  0.92714236  0.17377572  1  0.041168  0  -0.078514  -0.174258  0  3.924237  0
C  C297  1  0.57789936  0.57284738  0.67377777  1  0.023164  0  -0.07853  -0.174261  0  3.924465  0
C  C298  1  0.42210189  0.57285764  0.82621489  1  0.022993  0  -0.078556  -0.174115  0  3.924235  0
C  C299  1  0.07790162  0.92714392  0.32621198  1  0.02286  0  -0.078572  -0.174135  0  3.924316  0
C  C300  1  0.07789193  0.07285536  0.82622196  1  0.023268  0  -0.078516  -0.17412  0  3.924361  0
C  C301  1  0.42210306  0.42714656  0.32620795  1  0.022896  0  -0.078428  -0.173912  0  3.923941  0
C  C302  1  0.57790190  0.42715392  0.17378279  1  0.023016  0  -0.078491  -0.174128  0  3.924221  0
C  C303  1  0.92211311  0.07284813  0.67378216  1  0.023236  0  -0.078473  -0.174157  0  3.924268  0
C  C304  1  0.84959185  0.91616692  0.13352464  1  0.030108  0  0.010525  0.150057  0  4.017344  0
C  C305  1  0.65040146  0.58382043  0.63352951  1  0.029947  0  0.010431  0.149614  0  4.017735  0
C  C306  1  0.34959912  0.58382101  0.86646278  1  0.030096  0  0.010466  0.149519  0  4.017874  0
C  C307  1  0.15039766  0.91617413  0.36646431  1  0.030251  0  0.010474  0.14973  0  4.017443  0
C  C308  1  0.15039484  0.08382828  0.86646861  1  0.029961  0  0.010509  0.149779  0  4.017339  0
C  C309  1  0.34960232  0.41617917  0.36645710  1  0.030167  0  0.010221  0.14915  0  4.017566  0
C  C310  1  0.65040261  0.41618363  0.13353534  1  0.029993  0  0.010502  0.149619  0  4.017586  0
C  C311  1  0.84960681  0.08382233  0.63353603  1  0.03014  0  0.010472  0.14971  0  4.017216  0
C  C312  1  0.19278340  0.22590310  0.38742972  1  -0.101895  0  -0.082219  -0.034157  0  4.033968  0
C  C313  1  0.30722818  0.27408195  0.88742580  1  -0.101467  0  -0.082314  -0.034298  0  4.034331  0
C  C314  1  0.69277452  0.27410446  0.61257649  1  -0.101951  0  -0.082234  -0.033936  0  4.03422  0
C  C315  1  0.80723757  0.22591068  0.11258055  1  -0.103111  0  -0.082332  -0.03441  0  4.034346  0
C  C316  1  0.80723065  0.77409839  0.61257548  1  -0.102359  0  -0.082227  -0.034169  0  4.034269  0
C  C317  1  0.69276261  0.72590444  0.11257763  1  -0.102749  0  -0.082276  -0.034221  0  4.034591  0
C  C318  1  0.30721695  0.72590144  0.38743093  1  -0.101908  0  -0.082407  -0.034509  0  4.034094  0
C  C319  1  0.19276621  0.77409836  0.88742332  1  -0.101984  0  -0.082174  -0.034044  0  4.034309  0
C  C320  1  0.00192631  0.88062693  0.16713101  1  0.450016  0  0.049357  0.096585  0  3.959782  0
C  C321  1  0.49806851  0.61936576  0.66713077  1  0.450056  0  0.049408  0.096744  0  3.95975  0
C  C322  1  0.50192872  0.61937936  0.83286441  1  0.449595  0  0.04939  0.096692  0  3.959691  0
C  C323  1  0.99806723  0.88062680  0.33285728  1  0.449794  0  0.049414  0.096604  0  3.959751  0
C  C324  1  0.99806379  0.11937708  0.83286977  1  0.449873  0  0.049418  0.096541  0  3.959673  0
C  C325  1  0.50193732  0.38063070  0.33285894  1  0.44968  0  0.049478  0.096855  0  3.95979  0
C  C326  1  0.49807096  0.38063283  0.16713460  1  0.450295  0  0.04937  0.096663  0  3.959676  0
C  C327  1  0.00194339  0.11936651  0.66713420  1  0.449697  0  0.049438  0.096872  0  3.959753  0
C  C328  1  0.23074364  0.07645789  0.08037974  1  0.423107  0  0.043639  0.091915  0  3.975019  0
C  C329  1  0.26925610  0.42353472  0.58037007  1  0.42356  0  0.043517  0.091777  0  3.97532  0
C  C330  1  0.73074895  0.42354658  0.91962697  1  0.423573  0  0.043462  0.091635  0  3.975383  0
C  C331  1  0.76924900  0.07646667  0.41963314  1  0.423474  0  0.04354  0.091846  0  3.975198  0
C  C332  1  0.76925605  0.92354675  0.91962857  1  0.423878  0  0.043528  0.091887  0  3.975503  0
C  C333  1  0.73074153  0.57647747  0.41962894  1  0.423502  0  0.043595  0.091889  0  3.974859  0
C  C334  1  0.26925004  0.57645994  0.08037027  1  0.423565  0  0.043607  0.091936  0  3.975465  0
C  C335  1  0.23073837  0.92353671  0.58037206  1  0.423796  0  0.043555  0.091711  0  3.975342  0
C  C336  1  0.61544095  0.01974867  0.10593180  1  -0.068589  0  0.006778  0.138719  0  4.033841  0
C  C337  1  0.88456087  0.48024185  0.60594166  1  -0.068328  0  0.006816  0.138819  0  4.034105  0
C  C338  1  0.11544156  0.48023865  0.89404555  1  -0.068876  0  0.006574  0.138565  0  4.034027  0
C  C339  1  0.38455568  0.01975404  0.39406213  1  -0.070548  0  0.006829  0.138835  0  4.034002  0
C  C340  1  0.38455668  0.98024716  0.89405703  1  -0.068822  0  0.006843  0.138841  0  4.034196  0
C  C341  1  0.11544087  0.51975586  0.39404938  1  -0.068643  0  0.006757  0.138822  0  4.033904  0
C  C342  1  0.88455949  0.51975970  0.10593885  1  -0.070291  0  0.006807  0.138858  0  4.034085  0
C  C343  1  0.61543922  0.98024619  0.60594972  1  -0.068705  0  0.00673  0.138788  0  4.033881  0
C  C344  1  0.99669675  0.03369005  0.01809453  1  0.011252  0  -0.078214  -0.111714  0  3.936735  0
C  C345  1  0.50330139  0.46630883  0.51808570  1  -0.081688  0  -0.078259  -0.111787  0  3.936331  0
C  C346  1  0.49670238  0.46631167  0.98191515  1  0.010915  0  -0.078249  -0.111826  0  3.936822  0
C  C347  1  0.00329101  0.03368838  0.48192339  1  -0.081121  0  -0.078272  -0.111898  0  3.936696  0
C  C348  1  0.00330293  0.96632025  0.98191599  1  -0.081062  0  -0.07829  -0.111812  0  3.936663  0
C  C349  1  0.49670035  0.53369455  0.48191553  1  0.010983  0  -0.078145  -0.1116  0  3.936096  0
C  C350  1  0.50330345  0.53368353  0.01809226  1  -0.080886  0  -0.078259  -0.11175  0  3.936817  0
C  C351  1  0.99668131  0.96630933  0.51809509  1  0.010947  0  -0.078158  -0.111602  0  3.936564  0
N  N352  1  0.01264230  0.82425109  0.12337123  1  -1.221639  0  -0.325686  -0.225582  0  3.493224  0
N  N353  1  0.48736060  0.67574484  0.62337088  1  -1.221655  0  -0.325642  -0.225653  0  3.493219  0
N  N354  1  0.51263332  0.67575207  0.87662730  1  -1.221422  0  -0.325647  -0.225744  0  3.493441  0
N  N355  1  0.98735387  0.82425400  0.37661892  1  -1.219096  0  -0.325675  -0.225677  0  3.493386  0
N  N356  1  0.98735669  0.17575355  0.87662999  1  -1.221578  0  -0.325688  -0.225537  0  3.4933  0
N  N357  1  0.51264592  0.32425854  0.37662325  1  -1.221018  0  -0.325637  -0.225785  0  3.493324  0
N  N358  1  0.48736294  0.32425320  0.12337436  1  -1.221624  0  -0.325648  -0.225673  0  3.493295  0
N  N359  1  0.01264650  0.17574623  0.62337389  1  -1.221495  0  -0.325744  -0.225934  0  3.493535  0
N  N360  1  0.22486284  0.15809448  0.09576609  1  -1.221521  0  -0.329461  -0.232045  0  3.506408  0
N  N361  1  0.27514241  0.34190083  0.59575813  1  -1.221204  0  -0.329354  -0.231854  0  3.50649  0
N  N362  1  0.72486385  0.34190935  0.90423839  1  -1.220927  0  -0.329363  -0.231873  0  3.50641  0
N  N363  1  0.77513885  0.15810056  0.40424553  1  -1.221089  0  -0.329389  -0.231945  0  3.506256  0
N  N364  1  0.77514026  0.84191393  0.90424177  1  -1.221317  0  -0.329416  -0.232063  0  3.506742  0
N  N365  1  0.72485453  0.65811198  0.40424309  1  -1.220894  0  -0.329483  -0.23212  0  3.506084  0
N  N366  1  0.27513857  0.65809403  0.09576061  1  -1.221015  0  -0.329402  -0.231914  0  3.506398  0
N  N367  1  0.22485468  0.84190093  0.59575746  1  -1.221144  0  -0.329412  -0.231935  0  3.506312  0
N  N368  1  0.46113359  0.12513727  0.11010253  1  -1.226531  0  -0.323776  -0.239598  0  3.489152  0
N  N369  1  0.03886555  0.37485319  0.61010821  1  -1.226326  0  -0.323661  -0.239375  0  3.488705  0
N  N370  1  0.96113394  0.37485559  0.88988409  1  -1.227602  0  -0.323701  -0.239566  0  3.48942  0
N  N371  1  0.53886529  0.12514596  0.38989693  1  -1.225915  0  -0.323714  -0.239529  0  3.488948  0
N  N372  1  0.53886472  0.87485982  0.88989117  1  -1.226155  0  -0.323687  -0.239532  0  3.489037  0
N  N373  1  0.96113482  0.62514767  0.38989124  1  -1.22669  0  -0.323664  -0.239316  0  3.488892  0
N  N374  1  0.03886506  0.62514779  0.11010031  1  -1.225983  0  -0.323776  -0.23966  0  3.488818  0
N  N375  1  0.46113575  0.87485301  0.61011403  1  -1.226757  0  -0.32371  -0.239468  0  3.489246  0
O  O376  1  0.27782543  0.31026840  0.19082281  1  -1.144953  0  -0.359802  -0.572487  0  2.124492  0
O  O377  1  0.22218626  0.18972934  0.69081737  1  -1.14527  0  -0.359852  -0.572588  0  2.124581  0
O  O378  1  0.77778003  0.18970216  0.80918572  1  -1.145421  0  -0.359672  -0.572304  0  2.123722  0
O  O379  1  0.72218819  0.31026317  0.30918667  1  -1.145191  0  -0.359858  -0.572562  0  2.124656  0
O  O380  1  0.72219067  0.68973372  0.80918726  1  -1.145268  0  -0.35989  -0.572649  0  2.124491  0
O  O381  1  0.77780453  0.81027908  0.30918075  1  -1.145217  0  -0.359835  -0.572618  0  2.124546  0
O  O382  1  0.22220871  0.81026032  0.19081727  1  -1.145167  0  -0.359878  -0.572559  0  2.124624  0
O  O383  1  0.27780329  0.68972134  0.69081632  1  -1.145254  0  -0.359723  -0.572485  0  2.124503  0
O  O384  1  0.11976100  0.26766952  0.50110005  1  -1.188359  0  -0.348589  -0.596966  0  2.17217  0
O  O385  1  0.38023371  0.23228688  0.00109538  1  -1.188559  0  -0.348656  -0.597028  0  2.172414  0
O  O386  1  0.61977701  0.23233919  0.49889944  1  -1.187837  0  -0.348648  -0.596838  0  2.172189  0
O  O387  1  0.88025400  0.26769013  0.99891150  1  -1.188877  0  -0.348582  -0.596875  0  2.172442  0
O  O388  1  0.88024757  0.73233323  0.49890206  1  -1.188633  0  -0.348632  -0.596982  0  2.172091  0
O  O389  1  0.61974750  0.76768630  0.99890584  1  -1.18897  0  -0.348579  -0.596907  0  2.172172  0
O  O390  1  0.38025618  0.76766985  0.50109647  1  -1.188695  0  -0.348542  -0.596861  0  2.172172  0
O  O391  1  0.11976415  0.73232772  0.00110256  1  -1.188277  0  -0.348596  -0.596984  0  2.171986  0
O  O392  1  0.33721978  0.18781578  0.22353957  1  -1.187039  0  -0.350568  -0.587091  0  2.120168  0
O  O393  1  0.16279679  0.31218173  0.72354235  1  -1.187702  0  -0.350525  -0.587313  0  2.120173  0
O  O394  1  0.83722309  0.31212908  0.77646062  1  -1.187472  0  -0.350551  -0.587097  0  2.120785  0
O  O395  1  0.66278196  0.18781950  0.27646117  1  -1.186989  0  -0.350524  -0.5872  0  2.120175  0
O  O396  1  0.66278127  0.81217627  0.77645855  1  -1.187808  0  -0.350549  -0.587283  0  2.120094  0
O  O397  1  0.83720289  0.68782605  0.27646772  1  -1.187636  0  -0.350483  -0.587173  0  2.120134  0
O  O398  1  0.16279779  0.68781768  0.22353971  1  -1.187846  0  -0.350524  -0.587206  0  2.120163  0
O  O399  1  0.33720678  0.81217130  0.72353606  1  -1.187427  0  -0.350466  -0.587068  0  2.120168  0
O  O400  1  0.20806474  0.16621090  0.54089078  1  -1.16286  0  -0.34023  -0.559035  0  2.156979  0
O  O401  1  0.29196497  0.33376613  0.04088887  1  -1.162947  0  -0.340127  -0.558769  0  2.157682  0
O  O402  1  0.70807878  0.33381116  0.45911855  1  -1.163245  0  -0.340218  -0.558956  0  2.157074  0
O  O403  1  0.79195553  0.16623592  0.95911659  1  -1.162377  0  -0.34008  -0.558807  0  2.157676  0
O  O404  1  0.79194246  0.83380003  0.45911486  1  -1.162929  0  -0.340204  -0.558986  0  2.157202  0
O  O405  1  0.70805112  0.66623033  0.95911280  1  -1.162323  0  -0.340061  -0.558782  0  2.157516  0
O  O406  1  0.29194894  0.66621739  0.54089241  1  -1.162406  0  -0.340289  -0.559012  0  2.157372  0
O  O407  1  0.20807219  0.83379640  0.04088463  1  -1.163312  0  -0.340184  -0.559043  0  2.156908  0
