# generated using pymatgen
data_NiH36C41N4O5
_symmetry_space_group_name_H-M   'P 1'
_cell_length_a   9.59945005
_cell_length_b   17.36091897
_cell_length_c   24.22316029
_cell_angle_alpha   90.04892504
_cell_angle_beta   89.99959208
_cell_angle_gamma   90.00132129
_symmetry_Int_Tables_number   1
_chemical_formula_structural   NiH36C41N4O5
_chemical_formula_sum   'Ni4 H144 C164 N16 O20'
_cell_volume   4036.91595285
_cell_formula_units_Z   4
loop_
 _symmetry_equiv_pos_site_id
 _symmetry_equiv_pos_as_xyz
  1  'x, y, z'
loop_
 _atom_site_type_symbol
 _atom_site_label
 _atom_site_symmetry_multiplicity
 _atom_site_fract_x
 _atom_site_fract_y
 _atom_site_fract_z
 _atom_site_occupancy
 _atom_site_pbe_bader_charge
 _atom_site_pbe_bader_spin_density
 _atom_site_pbe_cm5_charge
 _atom_site_pbe_ddec_charge
 _atom_site_pbe_ddec_spin_density
 _atom_site_pbe_ddec_sum_bond_order
 _atom_site_pbe_magmom
Ni  Ni0  1  0.34028590  0.24948121  0.37651916  1  1.157075  1.544077  0.649074  0.696721  1.777852  2.595473  1.531
Ni  Ni1  1  0.84029907  0.25051116  0.12347812  1  1.157118  1.544087  0.649094  0.696571  1.777845  2.595638  1.531
Ni  Ni2  1  0.65971232  0.75050790  0.62348201  1  1.157076  1.544078  0.649131  0.696884  1.777824  2.595273  1.531
Ni  Ni3  1  0.15970123  0.74949466  0.87652235  1  1.156951  1.54409  0.649133  0.696775  1.777841  2.59545  1.531
H  H4  1  0.02081182  0.22330949  0.38058647  1  0.088809  0.002309  0.121756  0.092093  0.000825  0.98205  0.001
H  H5  1  0.52082926  0.27667127  0.11941044  1  0.089459  0.002308  0.121784  0.092079  0.000824  0.982133  0.001
H  H6  1  0.97918119  0.77667156  0.61941381  1  0.089369  0.002309  0.12178  0.092136  0.000825  0.982054  0.001
H  H7  1  0.47917104  0.72332195  0.88058540  1  0.089353  0.002308  0.121812  0.092172  0.000825  0.982003  0.001
H  H8  1  0.83784119  0.21695844  0.45304667  1  0.125736  0.001161  0.113388  0.130835  0.000557  0.993206  0.001
H  H9  1  0.33785600  0.28302923  0.04695471  1  0.125632  0.001162  0.113433  0.130929  0.000557  0.993084  0.001
H  H10  1  0.16215911  0.78304101  0.54695623  1  0.12583  0.001161  0.113407  0.130917  0.000557  0.993093  0.001
H  H11  1  0.66214221  0.71695417  0.95304269  1  0.126  0.001161  0.113397  0.130901  0.000557  0.993074  0.001
H  H12  1  0.15939508  0.27016339  0.57259967  1  0.053638  0.00104  0.103959  0.109975  0.000491  1.004191  0.0
H  H13  1  0.65941041  0.22984349  0.92739611  1  0.05355  0.00104  0.104006  0.110059  0.000491  1.004115  0.0
H  H14  1  0.84061044  0.72985576  0.42739513  1  0.053677  0.00104  0.104019  0.110074  0.000491  1.004101  0.0
H  H15  1  0.34059719  0.77016122  0.07260105  1  0.053613  0.00104  0.103988  0.110044  0.000491  1.004256  0.0
H  H16  1  0.32975660  0.27191099  0.49413794  1  0.164155  0.002061  0.124281  0.10567  0.000768  1.008189  0.002
H  H17  1  0.82976362  0.22809048  0.00585779  1  0.164012  0.00206  0.124236  0.105597  0.000768  1.008142  0.002
H  H18  1  0.67024683  0.72809493  0.50585552  1  0.164157  0.002061  0.124248  0.105648  0.000768  1.008168  0.002
H  H19  1  0.17023980  0.77192459  0.99414028  1  0.164017  0.00206  0.124277  0.105687  0.000768  1.008162  0.002
H  H20  1  0.77511862  0.14072103  0.53805326  1  0.071373  6.9e-05  0.10366  0.102424  3.3e-05  1.017569  0.0
H  H21  1  0.27512929  0.35928256  0.96195495  1  0.071261  6.9e-05  0.103602  0.102344  3.3e-05  1.017525  0.0
H  H22  1  0.22489314  0.85928764  0.46194930  1  0.071046  6.9e-05  0.103548  0.102261  3.3e-05  1.017565  0.0
H  H23  1  0.72487310  0.64071519  0.03804546  1  0.071288  6.9e-05  0.103619  0.102349  3.3e-05  1.017535  0.0
H  H24  1  0.60675935  0.14111606  0.61530354  1  0.067556  -8e-06  0.105678  0.112767  -8e-06  1.03734  0.0
H  H25  1  0.10676927  0.35889170  0.88470438  1  0.068296  -8e-06  0.105673  0.112727  -8e-06  1.037404  0.0
H  H26  1  0.39325450  0.85888800  0.38469940  1  0.067823  -8e-06  0.105642  0.112635  -8e-06  1.037461  0.0
H  H27  1  0.89322686  0.64110377  0.11529477  1  0.068158  -8e-06  0.105695  0.112718  -8e-06  1.037515  0.0
H  H28  1  0.79273831  0.34951468  0.67854027  1  0.078142  -5e-06  0.100945  0.107802  -7e-06  1.039629  0.0
H  H29  1  0.29275433  0.15050371  0.82145603  1  0.078311  -5e-06  0.100857  0.107736  -7e-06  1.039539  0.0
H  H30  1  0.20725574  0.65049806  0.32145985  1  0.078318  -5e-06  0.100893  0.107809  -7e-06  1.039565  0.0
H  H31  1  0.70725743  0.84949527  0.17853943  1  0.078402  -5e-06  0.100902  0.107804  -7e-06  1.039547  0.0
H  H32  1  0.96372997  0.34726900  0.60263212  1  0.051168  7.6e-05  0.100672  0.097759  4.3e-05  1.004979  0.0
H  H33  1  0.46374580  0.15274703  0.89736118  1  0.050996  7.6e-05  0.100735  0.097794  4.3e-05  1.005182  0.0
H  H34  1  0.03627345  0.65274025  0.39737045  1  0.051416  7.6e-05  0.100712  0.097779  4.3e-05  1.005093  0.0
H  H35  1  0.53627742  0.84725773  0.10263268  1  0.051454  7.6e-05  0.100699  0.09776  4.3e-05  1.005264  0.0
H  H36  1  0.15029780  0.81086357  0.75628995  1  0.124219  0.001906  0.121679  0.09502  0.000695  0.992173  0.001
H  H37  1  0.65029801  0.68913954  0.74370784  1  0.124188  0.001906  0.12164  0.094985  0.000695  0.992195  0.001
H  H38  1  0.84967855  0.18914526  0.24370147  1  0.123973  0.001906  0.121604  0.094881  0.000695  0.992377  0.001
H  H39  1  0.34971688  0.31086095  0.25630291  1  0.124202  0.001907  0.12164  0.094853  0.000695  0.992471  0.001
H  H40  1  0.25195635  0.92163811  0.70417744  1  0.09638  0.000956  0.112742  0.131539  0.000459  0.998383  0.0
H  H41  1  0.75194693  0.57836515  0.79582128  1  0.096472  0.000956  0.11272  0.131564  0.000459  0.998399  0.0
H  H42  1  0.74803979  0.07836671  0.29581270  1  0.09678  0.000956  0.112752  0.131616  0.000459  0.998529  0.0
H  H43  1  0.24808149  0.42163195  0.20418491  1  0.096567  0.000956  0.112734  0.131517  0.000459  0.998543  0.0
H  H44  1  0.45860053  0.98848117  0.85547377  1  0.061268  0.001029  0.107463  0.113322  0.000495  0.998365  0.0
H  H45  1  0.95857227  0.51151444  0.64452098  1  0.061147  0.001029  0.107486  0.113342  0.000495  0.998478  0.0
H  H46  1  0.54140811  0.01151270  0.14451588  1  0.061525  0.001029  0.107515  0.113379  0.000495  0.998389  0.0
H  H47  1  0.04139783  0.48846836  0.35547849  1  0.062491  0.001029  0.107524  0.113362  0.000495  0.998301  0.0
H  H48  1  0.35370427  0.87385596  0.89982511  1  0.09915  0.001977  0.118298  0.084244  0.000696  1.021761  0.001
H  H49  1  0.85370129  0.62614689  0.60017289  1  0.099035  0.001978  0.118256  0.084225  0.000696  1.021755  0.001
H  H50  1  0.64627624  0.12615055  0.10016752  1  0.098792  0.001977  0.118236  0.084255  0.000696  1.021917  0.001
H  H51  1  0.14626984  0.37383761  0.39982783  1  0.098667  0.001979  0.118297  0.084311  0.000697  1.021796  0.001
H  H52  1  0.62752942  0.01753834  0.78620291  1  0.08792  4.1e-05  0.105213  0.106964  1.2e-05  1.009345  0.0
H  H53  1  0.12752241  0.48247786  0.71379759  1  0.087492  4.1e-05  0.105223  0.106922  1.2e-05  1.009423  0.0
H  H54  1  0.37247505  0.98246687  0.21380004  1  0.087644  4.1e-05  0.105224  0.10702  1.2e-05  1.009375  0.0
H  H55  1  0.87248101  0.51750957  0.28619985  1  0.08699  4.1e-05  0.105207  0.106861  1.2e-05  1.009434  0.0
H  H56  1  0.72305649  0.14196954  0.75233875  1  0.078311  -1.3e-05  0.102273  0.112281  -1.4e-05  1.034771  0.0
H  H57  1  0.22305628  0.35805478  0.74766317  1  0.078373  -1.3e-05  0.102267  0.112357  -1.4e-05  1.0349  0.0
H  H58  1  0.27694381  0.85804191  0.24767043  1  0.078369  -1.3e-05  0.102273  0.112382  -1.4e-05  1.034795  0.0
H  H59  1  0.77695027  0.64193102  0.25232724  1  0.078551  -1.3e-05  0.102234  0.11234  -1.4e-05  1.034867  0.0
H  H60  1  0.32958153  0.19423662  0.67610976  1  0.07019  1.9e-05  0.106354  0.116481  1.5e-05  0.98688  0.0
H  H61  1  0.82958616  0.30576891  0.82389293  1  0.06999  1.9e-05  0.106392  0.116485  1.5e-05  0.986976  0.0
H  H62  1  0.67043232  0.80576584  0.32388408  1  0.070388  1.9e-05  0.106355  0.11647  1.5e-05  0.986926  0.0
H  H63  1  0.17042872  0.69421680  0.17610367  1  0.070434  1.9e-05  0.106411  0.116566  1.5e-05  0.986868  0.0
H  H64  1  0.23373151  0.06905922  0.70888311  1  0.069578  2.1e-05  0.100511  0.100107  -6e-06  1.039139  0.0
H  H65  1  0.73372936  0.43094275  0.79112108  1  0.06943  2.1e-05  0.100531  0.100073  -6e-06  1.039136  0.0
H  H66  1  0.76628754  0.93093987  0.29110451  1  0.069749  2e-05  0.100544  0.100127  -6e-06  1.03915  0.0
H  H67  1  0.26628344  0.56904518  0.20888131  1  0.069218  2e-05  0.100584  0.100246  -6e-06  1.039166  0.0
H  H68  1  0.26144949  0.59954903  0.91350079  1  0.113548  0.001804  0.116767  0.085926  0.000606  1.027736  0.001
H  H69  1  0.76146738  0.90045258  0.58650078  1  0.113746  0.001803  0.116798  0.086008  0.000606  1.027697  0.001
H  H70  1  0.73852790  0.40044998  0.08649220  1  0.113518  0.001804  0.116722  0.085976  0.000606  1.027677  0.001
H  H71  1  0.23852771  0.09954108  0.41350414  1  0.113602  0.001803  0.116775  0.086082  0.000606  1.027687  0.001
H  H72  1  0.37539664  0.48265825  0.87756013  1  0.069713  0.000961  0.102688  0.107742  0.000464  1.020388  0.0
H  H73  1  0.87542213  0.01734565  0.62243705  1  0.069772  0.000961  0.102686  0.107787  0.000464  1.020251  0.0
H  H74  1  0.62456616  0.51734255  0.12242874  1  0.069706  0.000962  0.102685  0.107789  0.000464  1.020096  0.0
H  H75  1  0.12457400  0.98264457  0.37756702  1  0.06957  0.000962  0.102674  0.107799  0.000464  1.020018  0.0
H  H76  1  0.36654664  0.59034219  0.71582499  1  0.115719  0.000892  0.107686  0.130348  0.000445  1.061862  0.0
H  H77  1  0.86653957  0.90967460  0.78417639  1  0.115832  0.000892  0.107723  0.130293  0.000445  1.061988  0.0
H  H78  1  0.63350784  0.40968900  0.28417362  1  0.115906  0.000892  0.107668  0.130317  0.000445  1.061894  0.0
H  H79  1  0.13347115  0.09031564  0.21582603  1  0.115987  0.000892  0.107686  0.130286  0.000445  1.06198  0.0
H  H80  1  0.25565156  0.70139744  0.75928665  1  0.094516  0.002325  0.117783  0.085101  0.000976  1.011736  0.001
H  H81  1  0.75564694  0.79861328  0.74071707  1  0.094567  0.002325  0.117839  0.085189  0.000976  1.011612  0.001
H  H82  1  0.74440292  0.29863082  0.24071606  1  0.094747  0.002323  0.11774  0.084951  0.000975  1.012073  0.001
H  H83  1  0.24435440  0.20137808  0.25928742  1  0.094765  0.002324  0.117807  0.085042  0.000975  1.011764  0.001
H  H84  1  0.43692138  0.38507124  0.84265584  1  0.049633  8.1e-05  0.097931  0.095389  3.7e-05  1.037735  0.0
H  H85  1  0.93694819  0.11494320  0.65734413  1  0.049641  8.1e-05  0.097984  0.095358  3.7e-05  1.037852  0.0
H  H86  1  0.56304454  0.61493985  0.15733807  1  0.049387  8.1e-05  0.097942  0.095328  3.7e-05  1.03781  0.0
H  H87  1  0.06305003  0.88505222  0.34265874  1  0.049555  8.1e-05  0.097942  0.095318  3.7e-05  1.03784  0.0
H  H88  1  0.52026994  0.26673736  0.79965865  1  0.076569  1.6e-05  0.09824  0.104883  1.5e-05  1.03787  0.0
H  H89  1  0.02030190  0.23327860  0.70034299  1  0.077359  1.5e-05  0.098194  0.104728  1.5e-05  1.037726  0.0
H  H90  1  0.47969078  0.73327196  0.20033896  1  0.077332  1.5e-05  0.098177  0.104666  1.5e-05  1.037798  0.0
H  H91  1  0.97969632  0.76671446  0.29966399  1  0.077292  1.6e-05  0.098119  0.104546  1.5e-05  1.037725  0.0
H  H92  1  0.54572932  0.38240362  0.64256322  1  0.095363  2.4e-05  0.104936  0.114565  2e-05  1.019962  0.0
H  H93  1  0.04573814  0.11760573  0.85743994  1  0.095238  2.4e-05  0.104979  0.114696  2e-05  1.019874  0.0
H  H94  1  0.45426786  0.61760051  0.35743477  1  0.095401  2.4e-05  0.104924  0.114577  2e-05  1.019843  0.0
H  H95  1  0.95425695  0.88238272  0.14256700  1  0.09548  2.4e-05  0.104933  0.114734  2e-05  1.019901  0.0
H  H96  1  0.46311937  0.50172293  0.68504049  1  0.104038  3.3e-05  0.104766  0.111786  -6e-06  1.036728  0.0
H  H97  1  0.96313311  0.99828708  0.81495765  1  0.104248  3.4e-05  0.104681  0.111762  -6e-06  1.036618  0.0
H  H98  1  0.53688093  0.49828356  0.31495297  1  0.104244  3.3e-05  0.104648  0.111728  -6e-06  1.036735  0.0
H  H99  1  0.03685469  0.00170313  0.18504641  1  0.104474  3.3e-05  0.10468  0.111759  -6e-06  1.036727  0.0
H  H100  1  0.67788418  0.39497175  0.50495523  1  0.02095  0.00019  0.086164  0.08337  5.7e-05  0.982674  0.0
H  H101  1  0.17788800  0.10502675  0.99504002  1  0.020918  0.000191  0.086175  0.083387  5.7e-05  0.982679  0.0
H  H102  1  0.32211820  0.60502038  0.49503564  1  0.020887  0.000191  0.086174  0.083346  5.7e-05  0.982705  0.0
H  H103  1  0.82210293  0.89498133  0.00496419  1  0.020737  0.000191  0.086195  0.083369  5.7e-05  0.982734  0.0
H  H104  1  0.49977994  0.38829922  0.52276475  1  0.034802  0.000233  0.086146  0.080674  0.000141  0.994965  0.0
H  H105  1  0.99978434  0.11169993  0.97723285  1  0.034813  0.000233  0.086125  0.080683  0.000141  0.994915  0.0
H  H106  1  0.50021932  0.61168772  0.47722649  1  0.035058  0.000233  0.086082  0.080615  0.000141  0.995009  0.0
H  H107  1  0.00020242  0.88830871  0.02277178  1  0.035137  0.000233  0.086111  0.080581  0.000141  0.994903  0.0
H  H108  1  0.62117938  0.49117612  0.43209346  1  -0.002502  0.001894  0.090701  0.070686  0.000815  0.972233  0.001
H  H109  1  0.12118361  0.00882322  0.06790329  1  -0.00231  0.001893  0.090723  0.07071  0.000815  0.972108  0.001
H  H110  1  0.37881467  0.50881941  0.56790157  1  -0.002434  0.001894  0.09071  0.070677  0.000815  0.972123  0.001
H  H111  1  0.87880836  0.99118028  0.93209840  1  -0.002492  0.001894  0.0907  0.070675  0.000815  0.972113  0.001
H  H112  1  0.31791952  0.46600362  0.46721729  1  0.019042  0.000187  0.086314  0.081277  8.9e-05  0.996369  0.0
H  H113  1  0.81792227  0.03399707  0.03278178  1  0.019058  0.000187  0.086318  0.081312  9e-05  0.996302  0.0
H  H114  1  0.68207245  0.53398681  0.53277192  1  0.019151  0.000188  0.08634  0.081395  9e-05  0.996199  0.0
H  H115  1  0.18206866  0.96601274  0.96722162  1  0.019158  0.000188  0.086375  0.081448  9e-05  0.996213  0.0
H  H116  1  0.37267538  0.52428421  0.41175808  1  -0.006281  7.1e-05  0.082073  0.073866  -5e-06  1.011023  0.0
H  H117  1  0.87267342  0.97571701  0.08824159  1  -0.006269  7.1e-05  0.082069  0.073867  -5e-06  1.011055  0.0
H  H118  1  0.62732492  0.47570848  0.58823444  1  -0.006373  7.1e-05  0.082061  0.07388  -5e-06  1.010947  0.0
H  H119  1  0.12731543  0.02429164  0.91176262  1  -0.006415  7.1e-05  0.082044  0.073862  -5e-06  1.011001  0.0
H  H120  1  0.58034556  0.97496254  0.40331338  1  0.048362  -3.1e-05  0.085188  0.084279  -4.7e-05  0.999413  0.0
H  H121  1  0.08034683  0.52504287  0.09669339  1  0.048166  -3.1e-05  0.085154  0.084179  -4.7e-05  0.999511  0.0
H  H122  1  0.41964641  0.02503272  0.59670105  1  0.047938  -3.1e-05  0.085214  0.084219  -4.7e-05  0.999443  0.0
H  H123  1  0.91964827  0.47495484  0.90331032  1  0.048244  -3.1e-05  0.085151  0.084169  -4.7e-05  0.999554  0.0
H  H124  1  0.40643671  0.98774009  0.42546642  1  -0.008627  5.9e-05  0.081546  0.071965  -1.8e-05  1.008872  0.0
H  H125  1  0.90643992  0.51225047  0.07454339  1  -0.008601  5.9e-05  0.081515  0.071982  -1.8e-05  1.008832  0.0
H  H126  1  0.59356047  0.01225228  0.57454839  1  -0.008227  5.9e-05  0.081526  0.071931  -1.8e-05  1.008871  0.0
H  H127  1  0.09355726  0.48774496  0.92545866  1  -0.008473  5.9e-05  0.081524  0.071947  -1.8e-05  1.008872  0.0
H  H128  1  0.66508416  0.06197104  0.47597932  1  -0.005789  0.00057  0.090826  0.067779  0.000212  0.981753  0.0
H  H129  1  0.16509532  0.43803680  0.02402686  1  -0.005917  0.000569  0.090777  0.067727  0.000212  0.981842  0.0
H  H130  1  0.33491093  0.93802716  0.52403059  1  -0.005777  0.000569  0.09081  0.067743  0.000211  0.981799  0.0
H  H131  1  0.83490602  0.56196500  0.97597275  1  -0.005886  0.00057  0.090765  0.067697  0.000212  0.981807  0.0
H  H132  1  0.49300966  0.13503035  0.53513446  1  0.03597  0.000367  0.083486  0.078312  0.000168  1.017498  0.0
H  H133  1  0.99301738  0.36496450  0.96487675  1  0.035959  0.000367  0.083469  0.078281  0.000168  1.017475  0.0
H  H134  1  0.50699585  0.86496491  0.46487956  1  0.035906  0.000367  0.083457  0.078259  0.000168  1.017537  0.0
H  H135  1  0.00697980  0.63503208  0.03512571  1  0.036034  0.000367  0.083482  0.078275  0.000168  1.017546  0.0
H  H136  1  0.35614475  0.08249159  0.50562323  1  0.041642  7.7e-05  0.085389  0.081524  4.9e-05  0.994651  0.0
H  H137  1  0.85615619  0.41749973  0.99439042  1  0.04229  7.7e-05  0.085376  0.081472  4.9e-05  0.994687  0.0
H  H138  1  0.64385451  0.91750655  0.49439122  1  0.042066  7.7e-05  0.085368  0.081472  4.9e-05  0.994562  0.0
H  H139  1  0.14384619  0.58249912  0.00561412  1  0.042185  7.7e-05  0.085373  0.081481  4.9e-05  0.99471  0.0
H  H140  1  0.55666732  0.29689273  0.33772018  1  0.635676  -0.000145  0.276419  0.361904  4.2e-05  0.989866  0.0
H  H141  1  0.05666954  0.20310290  0.16227674  1  0.635535  -0.000145  0.276382  0.361851  4.2e-05  0.989959  0.0
H  H142  1  0.44333299  0.70310220  0.66227691  1  0.6355  -0.000145  0.27636  0.361815  4.2e-05  0.990025  0.0
H  H143  1  0.94332452  0.79689997  0.83772908  1  0.635353  -0.000145  0.276369  0.361856  4.2e-05  0.989971  0.0
H  H144  1  0.56566172  0.20385724  0.34196821  1  0.635056  -9.9e-05  0.275811  0.368024  0.000118  0.979478  0.0
H  H145  1  0.06566679  0.29614068  0.15803736  1  0.635165  -9.8e-05  0.275851  0.368169  0.000117  0.979277  0.0
H  H146  1  0.43434483  0.79613866  0.65804168  1  0.635104  -9.8e-05  0.275833  0.368159  0.000117  0.979251  0.0
H  H147  1  0.93433351  0.70386215  0.84197052  1  0.635596  -9.8e-05  0.275806  0.36805  0.000118  0.979466  0.0
C  C148  1  0.04715793  0.23251860  0.42389455  1  0.449916  -0.004278  0.045217  0.078166  -0.004954  3.98439  -0.003
C  C149  1  0.54716638  0.26746993  0.07610687  1  0.448713  -0.004278  0.045197  0.078204  -0.004953  3.984116  -0.003
C  C150  1  0.95284133  0.76747110  0.57610579  1  0.449369  -0.004278  0.045302  0.078326  -0.004953  3.984104  -0.003
C  C151  1  0.45282872  0.73252842  0.92389230  1  0.45105  -0.004287  0.045216  0.078212  -0.004954  3.98398  -0.003
C  C152  1  0.94550271  0.22899535  0.46457749  1  0.010848  0.005559  -0.085309  -0.182102  0.003133  3.94133  0.004
C  C153  1  0.44551932  0.27099717  0.03542319  1  0.011259  0.005558  -0.085293  -0.182106  0.003133  3.941352  0.004
C  C154  1  0.05449655  0.77100530  0.53542170  1  0.010529  0.005558  -0.085366  -0.182312  0.003133  3.941314  0.004
C  C155  1  0.55447890  0.72899542  0.96457594  1  0.008834  0.005565  -0.085242  -0.182087  0.003133  3.941099  0.004
C  C156  1  0.98331720  0.24396342  0.51959529  1  -0.045874  -0.007204  0.007233  0.111133  -0.007749  4.026888  -0.005
C  C157  1  0.48334102  0.25603834  0.98040733  1  -0.047073  -0.007204  0.007228  0.111045  -0.007748  4.026937  -0.005
C  C158  1  0.01668206  0.75604530  0.48040356  1  -0.04587  -0.007202  0.007234  0.111109  -0.007747  4.026841  -0.005
C  C159  1  0.51666345  0.74395999  0.01959349  1  -0.046976  -0.007205  0.007216  0.111047  -0.00775  4.026622  -0.005
C  C160  1  0.12404633  0.25985773  0.53046046  1  -0.063739  0.005728  -0.091851  -0.193423  0.003171  3.975985  0.004
C  C161  1  0.62406343  0.24014519  0.96953912  1  -0.063605  0.005728  -0.091957  -0.193645  0.003171  3.975851  0.004
C  C162  1  0.87595293  0.74015505  0.46953635  1  -0.064153  0.005729  -0.091976  -0.193581  0.003171  3.975712  0.004
C  C163  1  0.37593999  0.75985891  0.03046093  1  -0.06314  0.005727  -0.091999  -0.19364  0.003171  3.975828  0.004
C  C164  1  0.21955741  0.26067383  0.48759275  1  0.461067  -0.005093  0.048834  0.104572  -0.005641  3.934369  -0.004
C  C165  1  0.71957832  0.23932446  0.01240494  1  0.461064  -0.005095  0.048941  0.10476  -0.005642  3.933945  -0.004
C  C166  1  0.78044081  0.73933030  0.51240482  1  0.461494  -0.005093  0.04893  0.104684  -0.00564  3.934015  -0.004
C  C167  1  0.28042719  0.76068655  0.98759475  1  0.460993  -0.005094  0.048928  0.104689  -0.005642  3.933915  -0.004
C  C168  1  0.88107554  0.24414239  0.56457426  1  -0.009415  0.000339  -0.020875  0.033086  3e-05  4.040503  0.0
C  C169  1  0.38109180  0.25586384  0.93542581  1  -0.010045  0.000339  -0.020953  0.033179  3e-05  4.04021  0.0
C  C170  1  0.11893206  0.75586630  0.43542665  1  -0.009672  0.000339  -0.020869  0.033157  3e-05  4.040145  0.0
C  C171  1  0.61891996  0.74413221  0.06457294  1  -0.01036  0.000339  -0.020968  0.033149  3.1e-05  4.040308  0.0
C  C172  1  0.77890284  0.18666990  0.56877311  1  -0.057446  -0.000927  -0.087149  -0.111363  -0.001012  3.998956  -0.001
C  C173  1  0.27891842  0.31333379  0.93123138  1  -0.056064  -0.000927  -0.087111  -0.111412  -0.001012  3.998875  -0.001
C  C174  1  0.22110683  0.81333935  0.43122905  1  -0.056222  -0.000927  -0.087085  -0.111211  -0.001012  3.998641  -0.001
C  C175  1  0.72108814  0.68666167  0.06876819  1  -0.056027  -0.000927  -0.087195  -0.111454  -0.001012  3.999126  -0.001
C  C176  1  0.68357826  0.18694033  0.61187928  1  -0.008144  0.000213  -0.097809  -0.180733  8.3e-05  3.994703  0.0
C  C177  1  0.18359458  0.31307081  0.88812349  1  -0.010175  0.000213  -0.097771  -0.180608  8.3e-05  3.99464  0.0
C  C178  1  0.31642829  0.81306836  0.38812246  1  -0.01014  0.000213  -0.097825  -0.180686  8.3e-05  3.994741  0.0
C  C179  1  0.81640885  0.68692466  0.11187567  1  -0.010063  0.000213  -0.097841  -0.180666  8.3e-05  3.994849  0.0
C  C180  1  0.68522715  0.24655226  0.65116992  1  0.325469  -0.000931  0.09953  0.193987  -0.00104  4.028452  -0.001
C  C181  1  0.18523546  0.25345836  0.84883036  1  0.325638  -0.000931  0.099569  0.19385  -0.001039  4.028688  -0.001
C  C182  1  0.31478253  0.75345873  0.34883183  1  0.325784  -0.000931  0.09974  0.194127  -0.001039  4.028287  -0.001
C  C183  1  0.81477422  0.74653307  0.15116959  1  0.325439  -0.000931  0.099811  0.194127  -0.00104  4.028417  -0.001
C  C184  1  0.78802488  0.30412670  0.64754532  1  -0.011014  0.000215  -0.097743  -0.173785  8.8e-05  3.998615  0.0
C  C185  1  0.28804013  0.19588933  0.85245057  1  -0.01103  0.000215  -0.097571  -0.173475  8.8e-05  3.998753  0.0
C  C186  1  0.21197542  0.69588259  0.35245436  1  -0.010544  0.000215  -0.097723  -0.173821  8.8e-05  3.998626  0.0
C  C187  1  0.71197788  0.80410847  0.14754654  1  -0.010376  0.000215  -0.097814  -0.173923  8.8e-05  3.998636  0.0
C  C188  1  0.88463387  0.30222872  0.60507210  1  -0.02874  -0.000915  -0.089552  -0.114247  -0.000987  4.007832  -0.001
C  C189  1  0.38464638  0.19778341  0.89492182  1  -0.02809  -0.000915  -0.089658  -0.114466  -0.000986  4.008286  -0.001
C  C190  1  0.11537164  0.69778116  0.39492675  1  -0.028943  -0.000914  -0.089617  -0.114326  -0.000986  4.008184  -0.001
C  C191  1  0.61536955  0.80221729  0.10507449  1  -0.02892  -0.000915  -0.0896  -0.11429  -0.000987  4.00823  -0.001
C  C192  1  0.22191296  0.85097635  0.77619276  1  0.490511  -0.004529  0.053022  0.102904  -0.005007  3.916648  -0.003
C  C193  1  0.72191396  0.64903057  0.72380484  1  0.490508  -0.004532  0.052958  0.102893  -0.00501  3.916805  -0.003
C  C194  1  0.77806755  0.14903420  0.22379949  1  0.490946  -0.004531  0.052994  0.102877  -0.005009  3.917045  -0.003
C  C195  1  0.27809988  0.35096654  0.27620093  1  0.490321  -0.004531  0.053149  0.103178  -0.005009  3.917186  -0.003
C  C196  1  0.27546549  0.91419562  0.74789228  1  -0.005867  0.006078  -0.075393  -0.159054  0.003433  3.899577  0.005
C  C197  1  0.77545507  0.58580853  0.75210473  1  -0.00575  0.006079  -0.075419  -0.159241  0.003433  3.899555  0.005
C  C198  1  0.72452752  0.08581033  0.25209870  1  -0.005579  0.006077  -0.075318  -0.159026  0.003433  3.900018  0.005
C  C199  1  0.22456086  0.41418743  0.24790062  1  -0.005587  0.006078  -0.075576  -0.159288  0.003433  3.900272  0.005
C  C200  1  0.36421930  0.96535922  0.77567082  1  -0.000945  -0.007468  0.012574  0.11098  -0.008075  3.991298  -0.005
C  C201  1  0.86420830  0.53464548  0.72432841  1  -0.000729  -0.007471  0.012636  0.111234  -0.008077  3.990888  -0.005
C  C202  1  0.63578204  0.03464503  0.22431891  1  -0.001586  -0.007469  0.01259  0.110987  -0.008075  3.991118  -0.005
C  C203  1  0.13580346  0.46534241  0.27567770  1  -0.002024  -0.007469  0.012567  0.111043  -0.008074  3.991295  -0.005
C  C204  1  0.39333683  0.94970500  0.83129644  1  -0.063187  0.004916  -0.0864  -0.180272  0.002767  3.970667  0.004
C  C205  1  0.89331599  0.55029318  0.66870099  1  -0.06479  0.004917  -0.08644  -0.180345  0.002768  3.970606  0.004
C  C206  1  0.60666452  0.05029636  0.16869367  1  -0.064327  0.004916  -0.086554  -0.180406  0.002767  3.970658  0.004
C  C207  1  0.10667181  0.44968898  0.33130218  1  -0.063073  0.004917  -0.086422  -0.180203  0.002768  3.970591  0.004
C  C208  1  0.33548510  0.88567983  0.85635678  1  0.469552  -0.005237  0.04309  0.090185  -0.006014  3.978237  -0.004
C  C209  1  0.83547879  0.61432220  0.64364127  1  0.470958  -0.005237  0.04323  0.090236  -0.006016  3.978235  -0.004
C  C210  1  0.66450478  0.11432670  0.14363420  1  0.470817  -0.005238  0.043213  0.090088  -0.006014  3.978484  -0.004
C  C211  1  0.16450901  0.38566170  0.35636110  1  0.469554  -0.005235  0.043252  0.09011  -0.006013  3.978426  -0.004
C  C212  1  0.42351632  0.03523456  0.75046643  1  -0.031724  0.000322  -0.003172  0.061087  9e-06  3.987888  0.0
C  C213  1  0.92351734  0.46477568  0.74953313  1  -0.031427  0.000322  -0.003135  0.061151  8e-06  3.987675  0.0
C  C214  1  0.57649231  0.96476850  0.24952577  1  -0.031513  0.000322  -0.003166  0.061207  8e-06  3.987648  0.0
C  C215  1  0.07649338  0.53521514  0.25046887  1  -0.032336  0.000322  -0.003123  0.061343  8e-06  3.987397  0.0
C  C216  1  0.56166103  0.05641383  0.76237884  1  0.026353  -0.001079  -0.084273  -0.111521  -0.001183  3.96715  -0.001
C  C217  1  0.06166034  0.44360208  0.73762267  1  0.026324  -0.001079  -0.084415  -0.11167  -0.001183  3.967372  -0.001
C  C218  1  0.43834448  0.94359372  0.23762165  1  0.026489  -0.001079  -0.084357  -0.111717  -0.001183  3.967571  -0.001
C  C219  1  0.93834621  0.55638592  0.26237518  1  0.02614  -0.001079  -0.084391  -0.111626  -0.001183  3.967329  -0.001
C  C220  1  0.61571467  0.12583308  0.74346348  1  -0.108906  0.000282  -0.089851  -0.157865  0.000121  3.983181  0.0
C  C221  1  0.11572435  0.37418522  0.75654037  1  -0.108385  0.000282  -0.089672  -0.157871  0.00012  3.983524  0.0
C  C222  1  0.38428146  0.87417791  0.25653828  1  -0.108706  0.000282  -0.089808  -0.157983  0.00012  3.983542  0.0
C  C223  1  0.88428429  0.62580049  0.24345623  1  -0.048353  0.000283  -0.089602  -0.15782  0.00012  3.983381  0.0
C  C224  1  0.53136947  0.17569724  0.71285856  1  0.401841  -0.001128  0.089497  0.171421  -0.001268  4.040475  -0.001
C  C225  1  0.03137760  0.32431827  0.78714387  1  0.411616  -0.001127  0.089488  0.171489  -0.001268  4.040189  -0.001
C  C226  1  0.46862979  0.82431093  0.28713863  1  0.402439  -0.001127  0.089487  0.171439  -0.001268  4.040354  -0.001
C  C227  1  0.96862687  0.67567030  0.21285440  1  0.352326  -0.001128  0.089356  0.17136  -0.001267  4.04009  -0.001
C  C228  1  0.39422484  0.15491348  0.70010207  1  -0.145599  0.000279  -0.087271  -0.157729  0.000119  3.977343  0.0
C  C229  1  0.89422526  0.34509461  0.79990086  1  -0.155239  0.000279  -0.087328  -0.157661  0.000119  3.976974  0.0
C  C230  1  0.60578484  0.84508955  0.29989260  1  -0.146703  0.000279  -0.08733  -0.157784  0.000118  3.977087  0.0
C  C231  1  0.10577921  0.65489571  0.20009577  1  -0.155507  0.000279  -0.087334  -0.157667  0.000119  3.976695  0.0
C  C232  1  0.34118999  0.08465041  0.71823302  1  0.031455  -0.001122  -0.082901  -0.10776  -0.001219  3.968754  -0.001
C  C233  1  0.84119153  0.41535874  0.78176884  1  0.031286  -0.001122  -0.082903  -0.107761  -0.001219  3.968398  -0.001
C  C234  1  0.65882073  0.91535093  0.28175833  1  0.031282  -0.001121  -0.082866  -0.107743  -0.001219  3.968377  -0.001
C  C235  1  0.15882023  0.58463438  0.21823360  1  0.032085  -0.001121  -0.082945  -0.108105  -0.001219  3.968387  -0.001
C  C236  1  0.28751376  0.59455673  0.86991683  1  0.481831  -0.005017  0.038403  0.082724  -0.005553  3.982336  -0.003
C  C237  1  0.78753110  0.90544984  0.63008346  1  0.481573  -0.005018  0.038376  0.082669  -0.005555  3.982046  -0.003
C  C238  1  0.71247612  0.40545029  0.13007993  1  0.480991  -0.005019  0.038361  0.082502  -0.005555  3.982369  -0.003
C  C239  1  0.21246712  0.09454385  0.36991939  1  0.481517  -0.005021  0.03836  0.082413  -0.005557  3.982088  -0.003
C  C240  1  0.35139022  0.52924092  0.84905849  1  -0.077194  0.005825  -0.091383  -0.183652  0.003234  3.966631  0.004
C  C241  1  0.85140987  0.97076995  0.65094082  1  -0.077116  0.005825  -0.09136  -0.183755  0.003235  3.966579  0.004
C  C242  1  0.64859654  0.47076902  0.15093582  1  -0.077083  0.005825  -0.091325  -0.183618  0.003234  3.966401  0.004
C  C243  1  0.14858730  0.02922319  0.34906038  1  -0.0771  0.005826  -0.09138  -0.183665  0.003235  3.966363  0.004
C  C244  1  0.38254864  0.52388085  0.79241695  1  -0.009079  -0.007808  0.006582  0.108299  -0.008403  3.999132  -0.005
C  C245  1  0.88255919  0.97613331  0.70758147  1  -0.009438  -0.007809  0.006675  0.108425  -0.008404  3.999232  -0.005
C  C246  1  0.61744749  0.47613370  0.20757699  1  -0.009559  -0.007809  0.006765  0.108361  -0.008404  3.999081  -0.005
C  C247  1  0.11744632  0.02386386  0.29242017  1  -0.009595  -0.007811  0.006653  0.108362  -0.008406  3.999317  -0.005
C  C248  1  0.34683362  0.58826197  0.76010165  1  -0.033569  0.006218  -0.088003  -0.187758  0.003543  3.923611  0.005
C  C249  1  0.84683054  0.91175284  0.73990018  1  -0.033319  0.00622  -0.088114  -0.187712  0.003543  3.923446  0.005
C  C250  1  0.65319169  0.41176116  0.23989731  1  -0.032933  0.006218  -0.088176  -0.187775  0.003543  3.92319  0.005
C  C251  1  0.15317185  0.08824085  0.26010267  1  -0.033176  0.00622  -0.088063  -0.187723  0.003543  3.923496  0.005
C  C252  1  0.28291959  0.65155732  0.78430105  1  0.476106  -0.004628  0.048904  0.105865  -0.005178  3.940465  -0.003
C  C253  1  0.78292058  0.84845438  0.71569889  1  0.476564  -0.004629  0.048788  0.105665  -0.005179  3.940434  -0.003
C  C254  1  0.71710989  0.34846461  0.21570079  1  0.475648  -0.004627  0.048942  0.105966  -0.005179  3.940494  -0.003
C  C255  1  0.21708285  0.15153705  0.28430065  1  0.476191  -0.004628  0.048795  0.105842  -0.00518  3.940416  -0.003
C  C256  1  0.44333112  0.45411023  0.76776474  1  -0.060194  0.00086  -0.019438  0.028835  0.000329  4.011309  0.001
C  C257  1  0.94333607  0.04590026  0.73223518  1  -0.060292  0.00086  -0.019452  0.028685  0.000329  4.011829  0.001
C  C258  1  0.55667648  0.54590261  0.23222795  1  -0.059821  0.00086  -0.019686  0.028528  0.000329  4.012267  0.001
C  C259  1  0.05666736  0.95409460  0.26776644  1  -0.060056  0.00086  -0.019507  0.028602  0.000329  4.012092  0.001
C  C260  1  0.46183989  0.38629055  0.79881377  1  0.027026  -0.001822  -0.088576  -0.110162  -0.001933  3.996025  -0.001
C  C261  1  0.96185129  0.11372018  0.70118610  1  0.027968  -0.001823  -0.088637  -0.11016  -0.001935  3.996122  -0.001
C  C262  1  0.53813854  0.61371710  0.20117929  1  0.028265  -0.001822  -0.088485  -0.110082  -0.001934  3.996528  -0.001
C  C263  1  0.03814172  0.88627752  0.29881844  1  0.028482  -0.001823  -0.088672  -0.11027  -0.001935  3.996222  -0.001
C  C264  1  0.50866431  0.31849364  0.77471539  1  -0.074286  0.00044  -0.102326  -0.185767  0.00017  4.007707  0.0
C  C265  1  0.00868745  0.18151985  0.72528668  1  -0.074598  0.00044  -0.102307  -0.185598  0.00017  4.007314  0.0
C  C266  1  0.49131100  0.68151399  0.22527891  1  -0.075281  0.00044  -0.102313  -0.185421  0.00017  4.007385  0.0
C  C267  1  0.99131285  0.81847320  0.27472030  1  -0.075234  0.00044  -0.102234  -0.185275  0.00017  4.006968  0.0
C  C268  1  0.54034469  0.31611142  0.71813555  1  0.298159  -0.001904  0.096432  0.188028  -0.002088  4.051376  -0.001
C  C269  1  0.04035861  0.18390306  0.78186643  1  0.29641  -0.001905  0.096332  0.18796  -0.002089  4.051324  -0.001
C  C270  1  0.45964728  0.68389851  0.28185959  1  0.296982  -0.001904  0.096335  0.187797  -0.002089  4.051244  -0.001
C  C271  1  0.95964794  0.81608543  0.21813763  1  0.296386  -0.001905  0.096459  0.18797  -0.00209  4.051211  -0.001
C  C272  1  0.52325892  0.38354338  0.68663926  1  -0.015522  0.000498  -0.099183  -0.183862  0.000216  4.006678  0.0
C  C273  1  0.02326639  0.11646686  0.81336191  1  -0.014652  0.000498  -0.099413  -0.184489  0.000216  4.006767  0.0
C  C274  1  0.47674035  0.61646424  0.31335627  1  -0.014874  0.000498  -0.099272  -0.184157  0.000216  4.006497  0.0
C  C275  1  0.97673287  0.88352564  0.18664341  1  -0.015107  0.000498  -0.099355  -0.184553  0.000216  4.006746  0.0
C  C276  1  0.47660325  0.45102312  0.71104933  1  -0.028525  -0.001644  -0.085504  -0.10555  -0.00175  3.969966  -0.001
C  C277  1  0.97661254  0.04899014  0.78894803  1  -0.029083  -0.001644  -0.085305  -0.105105  -0.00175  3.969816  -0.001
C  C278  1  0.52339706  0.54898399  0.28894083  1  -0.028942  -0.001644  -0.085173  -0.105122  -0.00175  3.969909  -0.001
C  C279  1  0.02337943  0.95100582  0.21105773  1  -0.029164  -0.001644  -0.085334  -0.105103  -0.00175  3.970069  -0.001
C  C280  1  0.51740274  0.38692746  0.41009080  1  1.573591  -0.000198  0.20592  0.592834  -0.000796  4.146983  -0.001
C  C281  1  0.01740149  0.11307286  0.08990503  1  1.574005  -0.000199  0.205898  0.5928  -0.000798  4.147103  -0.001
C  C282  1  0.48259756  0.61306870  0.58990010  1  1.574405  -0.000201  0.205792  0.592491  -0.000798  4.14747  -0.001
C  C283  1  0.98259048  0.88693234  0.91009833  1  1.574686  -0.0002  0.205915  0.592728  -0.000797  4.147224  -0.001
C  C284  1  0.58026363  0.42817834  0.50731884  1  -0.035253  0.0001  -0.163555  -0.152004  -8e-06  3.922995  0.0
C  C285  1  0.08026716  0.07182001  0.99267918  1  -0.035281  0.0001  -0.163626  -0.152177  -8e-06  3.923254  0.0
C  C286  1  0.41973251  0.57181260  0.49267491  1  -0.035384  0.0001  -0.163644  -0.152062  -8e-06  3.923298  0.0
C  C287  1  0.91971960  0.92818578  0.00732377  1  -0.035644  0.0001  -0.16371  -0.152001  -8e-06  3.923206  0.0
C  C288  1  0.53696221  0.45529800  0.44931375  1  0.00292  0.007414  -0.093978  -0.108679  0.004471  3.868341  0.006
C  C289  1  0.03696301  0.04469968  0.05068241  1  0.002818  0.007415  -0.093929  -0.108581  0.004472  3.868307  0.006
C  C290  1  0.46303184  0.54469698  0.55067920  1  0.002965  0.007415  -0.093934  -0.10862  0.004471  3.86849  0.006
C  C291  1  0.96302479  0.95530495  0.94932053  1  0.003029  0.007416  -0.093949  -0.108761  0.004472  3.868526  0.006
C  C292  1  0.40303675  0.50375849  0.45307131  1  0.006892  -6.3e-05  -0.166488  -0.159804  -0.000193  3.934251  0.0
C  C293  1  0.90303323  0.99623795  0.04692699  1  0.007118  -6.2e-05  -0.166495  -0.159889  -0.000193  3.934373  0.0
C  C294  1  0.59695418  0.49623533  0.54692205  1  0.007056  -6.2e-05  -0.166589  -0.160036  -0.000193  3.934285  0.0
C  C295  1  0.09695040  0.00376612  0.95307512  1  0.006929  -6.3e-05  -0.166564  -0.159956  -0.000193  3.934353  0.0
C  C296  1  0.53737243  0.12861863  0.42207504  1  1.570324  0.000311  0.203629  0.586813  -0.000173  4.152255  0.0
C  C297  1  0.03739867  0.37138064  0.07793146  1  1.570284  0.000314  0.203615  0.586905  -0.000173  4.151684  0.0
C  C298  1  0.46261328  0.87137723  0.57793774  1  1.570536  0.000315  0.203546  0.586718  -0.000173  4.151473  0.0
C  C299  1  0.96261309  0.62861996  0.92207145  1  1.570251  0.000314  0.203694  0.586915  -0.000173  4.151679  0.0
C  C300  1  0.51550841  0.98571668  0.43997197  1  -0.032148  0.000758  -0.16676  -0.157715  0.000395  3.92201  0.0
C  C301  1  0.01550884  0.51428499  0.06003620  1  -0.032316  0.000758  -0.166732  -0.157629  0.000395  3.921865  0.0
C  C302  1  0.48448981  0.01428030  0.56004247  1  -0.032871  0.000759  -0.166782  -0.157671  0.000395  3.922014  0.0
C  C303  1  0.98448730  0.48571505  0.93996588  1  -0.032455  0.000758  -0.166705  -0.157564  0.000395  3.921839  0.0
C  C304  1  0.55329769  0.06444849  0.46519421  1  0.001998  0.008026  -0.093515  -0.108332  0.004771  3.870983  0.006
C  C305  1  0.05330752  0.43555387  0.03481226  1  0.002278  0.008026  -0.093406  -0.108337  0.004771  3.870984  0.006
C  C306  1  0.44669844  0.93554682  0.53481650  1  0.00235  0.008025  -0.093367  -0.108029  0.004771  3.870629  0.006
C  C307  1  0.94669486  0.56444732  0.96518941  1  0.002298  0.008026  -0.093427  -0.10828  0.004771  3.870862  0.006
C  C308  1  0.46677382  0.07855481  0.51744803  1  -0.043774  0.00094  -0.172329  -0.164286  0.000646  3.946515  0.001
C  C309  1  0.96677834  0.42144261  0.98256080  1  -0.044551  0.00094  -0.172264  -0.164108  0.000646  3.946163  0.001
C  C310  1  0.53322961  0.92144279  0.48256353  1  -0.044335  0.00094  -0.17225  -0.164115  0.000646  3.946056  0.001
C  C311  1  0.03322404  0.57855684  0.01744210  1  -0.04454  0.000939  -0.172261  -0.164089  0.000646  3.946197  0.001
N  N312  1  0.18172315  0.24817761  0.43482576  1  -1.213096  0.07212  -0.32973  -0.224372  0.042518  3.595777  0.064
N  N313  1  0.68173532  0.25181789  0.06517202  1  -1.211945  0.072125  -0.329746  -0.224309  0.04252  3.59553  0.064
N  N314  1  0.81827298  0.75181787  0.56517257  1  -1.212874  0.072119  -0.329809  -0.224532  0.042516  3.595631  0.064
N  N315  1  0.31826290  0.74819199  0.93482642  1  -1.212535  0.072115  -0.329777  -0.224491  0.042514  3.595701  0.064
N  N316  1  0.25167431  0.83592123  0.82952145  1  -1.201949  0.067028  -0.324283  -0.228502  0.039495  3.57239  0.061
N  N317  1  0.75167686  0.66408434  0.67047606  1  -1.202214  0.067022  -0.324299  -0.228521  0.039492  3.572678  0.061
N  N318  1  0.74830308  0.16408929  0.17047204  1  -1.202632  0.067017  -0.324265  -0.228292  0.039489  3.572527  0.061
N  N319  1  0.24832344  0.33590995  0.32952557  1  -1.202493  0.06703  -0.324488  -0.228641  0.039498  3.572828  0.061
N  N320  1  0.25207680  0.65557367  0.83842855  1  -1.209867  0.072277  -0.330623  -0.235714  0.042342  3.592059  0.066
N  N321  1  0.75208587  0.84443130  0.66157142  1  -1.210355  0.072269  -0.330488  -0.235568  0.042338  3.591842  0.066
N  N322  1  0.74792871  0.34443794  0.16156990  1  -1.209378  0.07227  -0.330475  -0.235466  0.042338  3.591753  0.066
N  N323  1  0.24791130  0.15556357  0.33842979  1  -1.21006  0.072271  -0.330365  -0.235315  0.04234  3.591627  0.066
N  N324  1  0.58668261  0.24739887  0.69381326  1  -1.240206  -0.001042  -0.257929  -0.161196  -0.00097  3.695858  -0.001
N  N325  1  0.08669371  0.25261852  0.80618860  1  -1.239907  -0.001042  -0.257892  -0.161045  -0.00097  3.695883  -0.001
N  N326  1  0.41332290  0.75261156  0.30618766  1  -1.240276  -0.001042  -0.257877  -0.160894  -0.00097  3.695718  -0.001
N  N327  1  0.91331492  0.74737118  0.19381133  1  -1.239652  -0.001042  -0.257721  -0.160779  -0.00097  3.695722  -0.001
O  O328  1  0.42190034  0.33942837  0.42373362  1  -1.153373  0.075718  -0.315821  -0.553477  0.042956  2.387618  0.07
O  O329  1  0.92189294  0.16056738  0.07626180  1  -1.153487  0.075725  -0.315799  -0.553423  0.042961  2.38754  0.07
O  O330  1  0.57811767  0.66056144  0.57625847  1  -1.153542  0.075735  -0.315841  -0.553356  0.042966  2.38735  0.07
O  O331  1  0.07809694  0.83944130  0.92374035  1  -1.153722  0.075719  -0.315835  -0.553405  0.042955  2.387435  0.07
O  O332  1  0.59392614  0.38154534  0.36746152  1  -1.206475  0.000442  -0.338942  -0.582815  -0.000672  2.161314  0.0
O  O333  1  0.09392436  0.11845366  0.13253448  1  -1.206685  0.000441  -0.338949  -0.582823  -0.000672  2.16147  0.0
O  O334  1  0.40607208  0.61845145  0.63252608  1  -1.207097  0.000441  -0.338813  -0.582587  -0.000672  2.161739  0.0
O  O335  1  0.90606553  0.88155151  0.86747094  1  -1.207237  0.000442  -0.338907  -0.582711  -0.000671  2.161644  0.0
O  O336  1  0.43479972  0.17433486  0.43019222  1  -1.160047  0.076762  -0.319826  -0.551381  0.04353  2.413354  0.071
O  O337  1  0.93483150  0.32565117  0.06980927  1  -1.159814  0.076774  -0.319767  -0.551251  0.043537  2.4128  0.071
O  O338  1  0.56517767  0.82565131  0.56981223  1  -1.160099  0.076769  -0.31984  -0.551376  0.043533  2.412902  0.071
O  O339  1  0.06517401  0.67434485  0.93019153  1  -1.159965  0.076757  -0.319831  -0.551292  0.043528  2.413069  0.071
O  O340  1  0.62160371  0.13145542  0.38187077  1  -1.193112  0.000993  -0.343512  -0.580943  -0.000299  2.117271  0.001
O  O341  1  0.12160308  0.36855810  0.11814219  1  -1.193498  0.000992  -0.343618  -0.581158  -0.0003  2.117335  0.001
O  O342  1  0.37839659  0.86855014  0.61814787  1  -1.193633  0.000993  -0.34351  -0.581052  -0.000299  2.117037  0.001
O  O343  1  0.87839618  0.63144481  0.88186074  1  -1.19329  0.000993  -0.343619  -0.581133  -0.000299  2.117042  0.001
O  O344  1  0.51388377  0.24757963  0.32343227  1  -1.2492  0.077161  -0.586372  -0.750515  0.04353  2.139828  0.066
O  O345  1  0.01388672  0.25241251  0.17656846  1  -1.249161  0.077145  -0.586394  -0.750586  0.043527  2.139761  0.066
O  O346  1  0.48612070  0.75241002  0.67657138  1  -1.249115  0.077147  -0.586329  -0.750575  0.043528  2.139748  0.066
O  O347  1  0.98610837  0.74758977  0.82343818  1  -1.24934  0.077149  -0.586327  -0.750483  0.04353  2.139841  0.066
