# generated using pymatgen
data_ZnH13C23N2(O2F3)2
_symmetry_space_group_name_H-M   'P 1'
_cell_length_a   15.65308097
_cell_length_b   16.13490225
_cell_length_c   22.61603350
_cell_angle_alpha   90.00003909
_cell_angle_beta   89.99999662
_cell_angle_gamma   90.00013502
_symmetry_Int_Tables_number   1
_chemical_formula_structural   ZnH13C23N2(O2F3)2
_chemical_formula_sum   'Zn8 H104 C184 N16 O32 F48'
_cell_volume   5711.92648677
_cell_formula_units_Z   8
loop_
 _symmetry_equiv_pos_site_id
 _symmetry_equiv_pos_as_xyz
  1  'x, y, z'
loop_
 _atom_site_type_symbol
 _atom_site_label
 _atom_site_symmetry_multiplicity
 _atom_site_fract_x
 _atom_site_fract_y
 _atom_site_fract_z
 _atom_site_occupancy
 _atom_site_pbe_bader_charge
 _atom_site_pbe_bader_spin_density
 _atom_site_pbe_cm5_charge
 _atom_site_pbe_ddec_charge
 _atom_site_pbe_ddec_spin_density
 _atom_site_pbe_ddec_sum_bond_order
 _atom_site_pbe_magmom
Zn  Zn0  1  0.68841594  0.55988903  0.25901547  1  1.304859  0  0.677793  0.840845  0  2.377001  0
Zn  Zn1  1  0.83437621  0.44553957  0.25197575  1  1.306228  0  0.679586  0.842747  0  2.394441  0
Zn  Zn2  1  0.18841965  0.44011294  0.74098415  1  1.304929  0  0.67781  0.840856  0  2.376853  0
Zn  Zn3  1  0.33437763  0.55446273  0.74802166  1  1.306298  0  0.679499  0.842587  0  2.394572  0
Zn  Zn4  1  0.68841578  0.44010856  0.75901559  1  1.304884  0  0.677774  0.840835  0  2.377073  0
Zn  Zn5  1  0.83437313  0.55446145  0.75197945  1  1.306328  0  0.679577  0.842651  0  2.394375  0
Zn  Zn6  1  0.18841725  0.55988969  0.24098359  1  1.30489  0  0.677805  0.840864  0  2.376861  0
Zn  Zn7  1  0.33437879  0.44553837  0.24802193  1  1.306248  0  0.679535  0.842658  0  2.394546  0
H  H8  1  0.76829626  0.71867031  0.11944860  1  0.106907  0  0.099931  0.108616  0  1.019142  0
H  H9  1  0.83365220  0.81059529  0.04483341  1  0.116686  0  0.092242  0.101478  0  1.041463  0
H  H10  1  0.05301271  0.64846760  0.03755493  1  0.09373  0  0.105807  0.115454  0  0.992164  0
H  H11  1  0.98649401  0.55810249  0.11303363  1  0.145844  0  0.105874  0.111206  0  1.016546  0
H  H12  1  0.93053515  0.65884158  0.93297850  1  0.056098  0  0.104564  0.114908  0  0.995823  0
H  H13  1  0.99851718  0.56679706  0.85943552  1  0.128045  0  0.107081  0.117707  0  1.021864  0
H  H14  1  0.23068257  0.70788040  0.87241928  1  0.122698  0  0.104493  0.111391  0  0.999175  0
H  H15  1  0.16342756  0.80188217  0.94471978  1  0.098766  0  0.097121  0.108003  0  1.019458  0
H  H16  1  0.76641686  0.28536195  0.38938442  1  0.101121  0  0.098731  0.108138  0  1.031951  0
H  H17  1  0.70432609  0.18492189  0.45989499  1  0.064267  0  0.092545  0.100775  0  1.039108  0
H  H18  1  0.47209275  0.32940902  0.46345092  1  0.098807  0  0.105436  0.115401  0  0.993193  0
H  H19  1  0.53379318  0.42567180  0.38987924  1  0.087489  0  0.106443  0.110475  0  1.016115  0
H  H20  1  0.59947469  0.32456630  0.57129343  1  0.053546  0  0.104055  0.114586  0  0.994972  0
H  H21  1  0.52545168  0.41788073  0.64094183  1  0.146143  0  0.106564  0.118367  0  1.028555  0
H  H22  1  0.29471354  0.27625394  0.61953619  1  0.091911  0  0.103151  0.10906  0  1.01001  0
H  H23  1  0.36962136  0.17815114  0.55392077  1  0.081201  0  0.097137  0.107974  0  1.019664  0
H  H24  1  0.73339132  0.72951515  0.27351717  1  0.118219  0  0.120763  0.094844  0  1.004949  0
H  H25  1  0.66502668  0.87064515  0.27977958  1  0.112196  0  0.114218  0.119322  0  1.000316  0
H  H26  1  0.42024213  0.74749383  0.27086553  1  0.089675  0  0.113206  0.121006  0  0.992512  0
H  H27  1  0.49835183  0.61274504  0.26263814  1  0.152717  0  0.126093  0.105623  0  0.993246  0
H  H28  1  0.42351068  0.90192675  0.27598715  1  0.074776  0  0.119815  0.082552  0  0.969777  0
H  H29  1  0.59975553  0.10539966  0.27964144  1  0.10832  0  0.119718  0.083306  0  0.9696  0
H  H30  1  0.60117525  0.26079013  0.27902820  1  0.082912  0  0.112685  0.120675  0  0.995638  0
H  H31  1  0.52276465  0.39472763  0.26819079  1  0.129166  0  0.126641  0.1068  0  0.990568  0
H  H32  1  0.29107465  0.27404550  0.24719681  1  0.112944  0  0.121412  0.096299  0  0.999736  0
H  H33  1  0.36017398  0.13372059  0.25773974  1  0.121621  0  0.114041  0.119317  0  1.002147  0
H  H34  1  0.26829446  0.28132689  0.88054969  1  0.10677  0  0.099894  0.108551  0  1.019228  0
H  H35  1  0.33365209  0.18940329  0.95516267  1  0.11669  0  0.092223  0.10149  0  1.041482  0
H  H36  1  0.55300846  0.35153406  0.96244293  1  0.093821  0  0.105796  0.115454  0  0.992246  0
H  H37  1  0.48649004  0.44190016  0.88696420  1  0.14583  0  0.105898  0.111225  0  1.016521  0
H  H38  1  0.43053227  0.34115661  0.06702243  1  0.056053  0  0.104548  0.114907  0  0.995802  0
H  H39  1  0.49851197  0.43320252  0.14056762  1  0.128015  0  0.107102  0.117804  0  1.021826  0
H  H40  1  0.73067951  0.29212352  0.12758078  1  0.122579  0  0.104385  0.11125  0  0.999212  0
H  H41  1  0.66342810  0.19812160  0.05528028  1  0.098834  0  0.097162  0.108057  0  1.019442  0
H  H42  1  0.26642380  0.71463214  0.61061077  1  0.100979  0  0.09873  0.108122  0  1.031906  0
H  H43  1  0.20433135  0.81507392  0.54010020  1  0.063944  0  0.092551  0.100796  0  1.039059  0
H  H44  1  0.97209377  0.67059112  0.53654957  1  0.09884  0  0.10545  0.115456  0  0.993144  0
H  H45  1  0.03379466  0.57433043  0.61012083  1  0.087476  0  0.106423  0.110445  0  1.01615  0
H  H46  1  0.09947451  0.67543298  0.42870487  1  0.053202  0  0.104062  0.114618  0  0.994912  0
H  H47  1  0.02545000  0.58211715  0.35905956  1  0.146021  0  0.106557  0.118371  0  1.028574  0
H  H48  1  0.79470703  0.72374022  0.38046696  1  0.091845  0  0.103109  0.109045  0  1.0099  0
H  H49  1  0.86962020  0.82184567  0.44608149  1  0.081055  0  0.097128  0.107945  0  1.019729  0
H  H50  1  0.23339334  0.27048630  0.72648156  1  0.118136  0  0.120779  0.094858  0  1.004952  0
H  H51  1  0.16502835  0.12935738  0.72021872  1  0.112189  0  0.114199  0.119362  0  1.000382  0
H  H52  1  0.92024404  0.25250557  0.72913408  1  0.089716  0  0.113222  0.121026  0  0.992525  0
H  H53  1  0.99835342  0.38725268  0.73735969  1  0.15285  0  0.126118  0.10568  0  0.99325  0
H  H54  1  0.92351158  0.09807266  0.72401334  1  0.074812  0  0.119799  0.082526  0  0.96973  0
H  H55  1  0.09975459  0.89459962  0.72035818  1  0.10832  0  0.119718  0.083324  0  0.96969  0
H  H56  1  0.10117457  0.73920730  0.72097099  1  0.08295  0  0.112738  0.120733  0  0.995594  0
H  H57  1  0.02276300  0.60527148  0.73181194  1  0.129045  0  0.126591  0.106702  0  0.990589  0
H  H58  1  0.79107260  0.72595609  0.75280104  1  0.112924  0  0.121382  0.096251  0  0.999765  0
H  H59  1  0.86017610  0.86627929  0.74225811  1  0.12193  0  0.114067  0.119333  0  1.002134  0
H  H60  1  0.76829635  0.28132795  0.61944996  1  0.10689  0  0.099923  0.108579  0  1.019158  0
H  H61  1  0.83365462  0.18940491  0.54483517  1  0.116724  0  0.09222  0.101488  0  1.04148  0
H  H62  1  0.05301170  0.35153514  0.53755721  1  0.093749  0  0.105774  0.115403  0  0.992239  0
H  H63  1  0.98649257  0.44189874  0.61303463  1  0.145793  0  0.10587  0.111225  0  1.016484  0
H  H64  1  0.93053542  0.34115612  0.43297872  1  0.056102  0  0.104571  0.114928  0  0.995812  0
H  H65  1  0.99851704  0.43320258  0.35943490  1  0.128062  0  0.107091  0.11771  0  1.021795  0
H  H66  1  0.23068464  0.29212369  0.37242125  1  0.122524  0  0.104484  0.111391  0  0.999138  0
H  H67  1  0.16343131  0.19811998  0.44472082  1  0.09875  0  0.097097  0.107964  0  1.019474  0
H  H68  1  0.76641929  0.71463347  0.88938776  1  0.101087  0  0.098735  0.108175  0  1.032016  0
H  H69  1  0.70433067  0.81507283  0.95989838  1  0.063922  0  0.092542  0.100782  0  1.039087  0
H  H70  1  0.47209443  0.67059137  0.96345026  1  0.098842  0  0.105439  0.115398  0  0.993199  0
H  H71  1  0.53379207  0.57432928  0.88987633  1  0.087128  0  0.106474  0.110483  0  1.016088  0
H  H72  1  0.59948024  0.67543772  0.07129647  1  0.05349  0  0.104051  0.114606  0  0.994853  0
H  H73  1  0.52545572  0.58212257  0.14094305  1  0.144799  0  0.106595  0.118437  0  1.028506  0
H  H74  1  0.29471793  0.72374696  0.11953660  1  0.09202  0  0.103141  0.109071  0  1.009939  0
H  H75  1  0.36962471  0.82185111  0.05391946  1  0.081198  0  0.097111  0.107891  0  1.019665  0
H  H76  1  0.73338883  0.27048318  0.77352030  1  0.118289  0  0.120801  0.094874  0  1.00502  0
H  H77  1  0.66502384  0.12935302  0.77978176  1  0.112282  0  0.11421  0.119312  0  1.000355  0
H  H78  1  0.42024087  0.25250626  0.77086820  1  0.089592  0  0.113206  0.120986  0  0.992621  0
H  H79  1  0.49834962  0.38725646  0.76264089  1  0.152869  0  0.126066  0.105644  0  0.993218  0
H  H80  1  0.42350650  0.09807459  0.77598887  1  0.074659  0  0.119773  0.082513  0  0.969895  0
H  H81  1  0.59975008  0.89460332  0.77964266  1  0.108281  0  0.119721  0.083363  0  0.969615  0
H  H82  1  0.60117326  0.73920914  0.77902846  1  0.082948  0  0.112665  0.120645  0  0.995654  0
H  H83  1  0.52276425  0.60527021  0.76818966  1  0.129065  0  0.126568  0.106701  0  0.990557  0
H  H84  1  0.29107263  0.72595365  0.74719706  1  0.112909  0  0.121367  0.096242  0  0.999776  0
H  H85  1  0.36017421  0.86627873  0.75773917  1  0.122289  0  0.114029  0.1193  0  1.002143  0
H  H86  1  0.26829628  0.71867110  0.38054877  1  0.106835  0  0.099895  0.108543  0  1.019194  0
H  H87  1  0.33365286  0.81059306  0.45516444  1  0.116737  0  0.09225  0.101517  0  1.041478  0
H  H88  1  0.55301203  0.64846589  0.46244330  1  0.093761  0  0.105772  0.115425  0  0.99222  0
H  H89  1  0.48649339  0.55810081  0.38696364  1  0.14579  0  0.10583  0.111164  0  1.016532  0
H  H90  1  0.43053391  0.65884145  0.56701912  1  0.056061  0  0.104524  0.114837  0  0.995868  0
H  H91  1  0.49851275  0.56679328  0.64056559  1  0.127989  0  0.10712  0.117785  0  1.02179  0
H  H92  1  0.73067872  0.70787776  0.62758014  1  0.12258  0  0.104354  0.111212  0  0.999231  0
H  H93  1  0.66342754  0.80187821  0.55527924  1  0.098816  0  0.097144  0.108023  0  1.019499  0
H  H94  1  0.26641882  0.28536124  0.11061539  1  0.101092  0  0.098754  0.108144  0  1.031935  0
H  H95  1  0.20432805  0.18492297  0.04010433  1  0.063984  0  0.092546  0.100776  0  1.039074  0
H  H96  1  0.97209593  0.32941186  0.03654758  1  0.098841  0  0.105433  0.115427  0  0.993177  0
H  H97  1  0.03379769  0.42567295  0.11011844  1  0.087522  0  0.106439  0.110462  0  1.016158  0
H  H98  1  0.09948238  0.32456280  0.92870316  1  0.05351  0  0.104081  0.114681  0  0.994804  0
H  H99  1  0.02545489  0.41787654  0.85906055  1  0.144869  0  0.106555  0.118357  0  1.02864  0
H  H100  1  0.79471286  0.27626145  0.88046699  1  0.091977  0  0.103151  0.109114  0  1.009771  0
H  H101  1  0.86962196  0.17815438  0.94608281  1  0.081015  0  0.097132  0.107887  0  1.019692  0
H  H102  1  0.23339071  0.72951456  0.22648330  1  0.118252  0  0.120777  0.094853  0  1.004931  0
H  H103  1  0.16502671  0.87064331  0.22022185  1  0.112204  0  0.114213  0.119321  0  1.000381  0
H  H104  1  0.92024146  0.74749500  0.22913627  1  0.089655  0  0.113198  0.121003  0  0.992495  0
H  H105  1  0.99835052  0.61274684  0.23736226  1  0.152726  0  0.126067  0.105636  0  0.993257  0
H  H106  1  0.92351129  0.90192916  0.22401206  1  0.074795  0  0.119797  0.082523  0  0.969722  0
H  H107  1  0.09975748  0.10540030  0.22035785  1  0.108254  0  0.119718  0.08328  0  0.96967  0
H  H108  1  0.10117656  0.26079325  0.22097073  1  0.082907  0  0.112745  0.120713  0  0.995688  0
H  H109  1  0.02276468  0.39472952  0.23181174  1  0.129038  0  0.126599  0.106756  0  0.990541  0
H  H110  1  0.79107526  0.27404421  0.25280211  1  0.112982  0  0.121392  0.096264  0  0.999724  0
H  H111  1  0.86017778  0.13372178  0.24225513  1  0.121989  0  0.114054  0.119282  0  1.002206  0
C  C112  1  0.83392982  0.57963950  0.16769619  1  1.565823  0  0.211669  0.586986  0  4.186691  0
C  C113  1  0.87276760  0.63251806  0.12045273  1  -0.016018  0  -0.019016  -0.037545  0  3.985336  0
C  C114  1  0.83057344  0.70375735  0.10082729  1  -0.085198  0  -0.087268  -0.085103  0  3.969939  0
C  C115  1  0.86780771  0.75522531  0.05862450  1  -0.080816  0  -0.100345  -0.141992  0  3.990388  0
C  C116  1  0.94812031  0.73577810  0.03519509  1  -0.030884  0  -0.017706  0.083121  0  3.95179  0
C  C117  1  0.99035216  0.66426239  0.05512165  1  0.030112  0  -0.089891  -0.122973  0  3.969261  0
C  C118  1  0.95312301  0.61302685  0.09718427  1  -0.114075  0  -0.082123  -0.085537  0  3.973705  0
C  C119  1  0.99565476  0.79107614  0.99057926  1  0.062514  0  -0.011077  -0.271219  0  3.852135  0
C  C120  1  0.05786312  0.84556517  0.02816031  1  1.698121  0  0.300711  0.677165  0  3.972105  0
C  C121  1  0.93518686  0.84952450  0.95491608  1  1.716425  0  0.301428  0.677432  0  3.974602  0
C  C122  1  0.04195107  0.73688504  0.94467246  1  -0.008362  0  -0.017632  0.082444  0  3.957981  0
C  C123  1  0.99629666  0.67053865  0.91967820  1  0.026309  0  -0.090423  -0.124692  0  3.960372  0
C  C124  1  0.03442142  0.61813002  0.87863698  1  -0.081693  0  -0.081933  -0.085654  0  3.955581  0
C  C125  1  0.11939385  0.63144473  0.86176930  1  -0.013374  0  -0.019296  -0.036571  0  3.987865  0
C  C126  1  0.16458950  0.69815049  0.88583056  1  -0.081475  0  -0.084894  -0.082224  0  3.976766  0
C  C127  1  0.12634150  0.75075197  0.92681566  1  -0.077655  0  -0.099584  -0.142383  0  3.996832  0
C  C128  1  0.16243068  0.57614042  0.81788670  1  1.556098  0  0.211708  0.581864  0  4.190038  0
C  C129  1  0.69312858  0.41948785  0.34107360  1  1.579943  0  0.212477  0.585886  0  4.182874  0
C  C130  1  0.65467474  0.36195417  0.38571183  1  -0.020266  0  -0.019993  -0.037035  0  3.983262  0
C  C131  1  0.70171204  0.29390981  0.40579889  1  -0.113744  0  -0.088403  -0.089753  0  3.975542  0
C  C132  1  0.66652976  0.23795222  0.44590140  1  0.00945  0  -0.100677  -0.140583  0  3.992993  0
C  C133  1  0.58383040  0.25054781  0.46751527  1  -0.032716  0  -0.016505  0.084161  0  3.953719  0
C  C134  1  0.53656375  0.31880722  0.44706077  1  -0.023505  0  -0.091231  -0.125915  0  3.971693  0
C  C135  1  0.57120620  0.37359407  0.40625655  1  -0.008827  0  -0.082434  -0.08483  0  3.975603  0
C  C136  1  0.53968630  0.19224002  0.51184354  1  0.039582  0  -0.01087  -0.269723  0  3.846217  0
C  C137  1  0.48110288  0.13420178  0.47430202  1  1.722022  0  0.300289  0.680203  0  3.970522  0
C  C138  1  0.60311911  0.13716820  0.54787814  1  1.721698  0  0.301425  0.677193  0  3.967509  0
C  C139  1  0.49004246  0.24480368  0.55706546  1  -0.05257  0  -0.017001  0.083657  0  3.95664  0
C  C140  1  0.53308647  0.31229222  0.58268358  1  -0.011666  0  -0.091091  -0.125362  0  3.96121  0
C  C141  1  0.49138420  0.36571860  0.62126905  1  0.030781  0  -0.081715  -0.084759  0  3.954876  0
C  C142  1  0.40476737  0.35331744  0.63401532  1  -0.143133  0  -0.020694  -0.039212  0  3.987157  0
C  C143  1  0.36219228  0.28519550  0.60961491  1  0.011211  0  -0.086247  -0.085134  0  3.979419  0
C  C144  1  0.40458643  0.23051903  0.57205880  1  -0.036309  0  -0.09991  -0.142553  0  3.994866  0
C  C145  1  0.35720172  0.41200385  0.67325741  1  1.576183  0  0.213463  0.583674  0  4.18607  0
C  C146  1  0.66433783  0.73741410  0.27271023  1  0.455498  0  0.05125  0.098716  0  3.927897  0
C  C147  1  0.62655495  0.81465035  0.27644432  1  -0.018155  0  -0.071345  -0.149778  0  3.918396  0
C  C148  1  0.53692915  0.82038874  0.27532344  1  -0.0124  0  0.015023  0.11308  0  4.002235  0
C  C149  1  0.48985718  0.74664482  0.27127364  1  0.017383  0  -0.06932  -0.157185  0  3.910098  0
C  C150  1  0.53275215  0.67120964  0.26724109  1  0.436305  0  0.061976  0.108573  0  3.910004  0
C  C151  1  0.49377033  0.90043566  0.27629799  1  0.677629  0  0.086892  0.069676  0  3.889891  0
C  C152  1  0.52984533  0.10637015  0.27469053  1  0.603126  0  0.086001  0.066692  0  3.891049  0
C  C153  1  0.48643800  0.18599686  0.26914449  1  -0.012185  0  0.015658  0.114546  0  3.999826  0
C  C154  1  0.53233640  0.26054958  0.27187973  1  -0.012066  0  -0.068991  -0.15589  0  3.907164  0
C  C155  1  0.48917758  0.33556268  0.26573499  1  0.522008  0  0.062248  0.107555  0  3.907198  0
C  C156  1  0.35959023  0.26726339  0.25398137  1  0.401425  0  0.052184  0.099634  0  3.930175  0
C  C157  1  0.39766698  0.19043929  0.26002308  1  0.070564  0  -0.071156  -0.151295  0  3.920732  0
C  C158  1  0.33392963  0.42036838  0.83230342  1  1.565741  0  0.211457  0.586704  0  4.187213  0
C  C159  1  0.37276729  0.36748557  0.87954556  1  -0.015987  0  -0.019005  -0.03752  0  3.985329  0
C  C160  1  0.33057104  0.29624308  0.89916923  1  -0.085306  0  -0.087231  -0.085013  0  3.970001  0
C  C161  1  0.36780645  0.24477521  0.94137379  1  -0.080469  0  -0.100301  -0.141948  0  3.990471  0
C  C162  1  0.44812038  0.26422260  0.96480407  1  -0.03113  0  -0.017698  0.083075  0  3.952  0
C  C163  1  0.49034793  0.33574027  0.94487796  1  0.030151  0  -0.089884  -0.122979  0  3.9695  0
C  C164  1  0.45312210  0.38697324  0.90281489  1  -0.114029  0  -0.082164  -0.085577  0  3.973743  0
C  C165  1  0.49565411  0.20892530  0.00941946  1  0.062775  0  -0.011063  -0.271249  0  3.852287  0
C  C166  1  0.55785966  0.15443279  0.97184064  1  1.698135  0  0.300785  0.677274  0  3.971877  0
C  C167  1  0.43518543  0.15048113  0.04508397  1  1.716317  0  0.301427  0.677424  0  3.974554  0
C  C168  1  0.54194986  0.26311597  0.05532717  1  -0.007968  0  -0.017661  0.082478  0  3.957997  0
C  C169  1  0.49629694  0.32946278  0.08032317  1  0.02642  0  -0.090431  -0.124768  0  3.960433  0
C  C170  1  0.53441793  0.38187035  0.12136575  1  -0.042915  0  -0.081925  -0.085698  0  3.955833  0
C  C171  1  0.61938969  0.36856018  0.13823077  1  -0.052336  0  -0.019205  -0.036437  0  3.98797  0
C  C172  1  0.66458646  0.30185328  0.11417083  1  -0.081268  0  -0.084851  -0.082182  0  3.976828  0
C  C173  1  0.62633961  0.24925234  0.07318441  1  -0.077999  0  -0.099636  -0.142473  0  3.997  0
C  C174  1  0.66242665  0.42386397  0.18211336  1  1.556942  0  0.211853  0.582071  0  4.190012  0
C  C175  1  0.19313646  0.58051289  0.65892249  1  1.580273  0  0.212304  0.585667  0  4.183102  0
C  C176  1  0.15467957  0.63804710  0.61428647  1  -0.020486  0  -0.019908  -0.036881  0  3.98319  0
C  C177  1  0.20171448  0.70608661  0.59419852  1  -0.113269  0  -0.088444  -0.089872  0  3.975781  0
C  C178  1  0.16653937  0.76204226  0.55409469  1  0.009256  0  -0.100735  -0.140542  0  3.9929  0
C  C179  1  0.08383295  0.74944896  0.53248347  1  -0.032598  0  -0.016474  0.084201  0  3.95355  0
C  C180  1  0.03656550  0.68119316  0.55293930  1  -0.02352  0  -0.091228  -0.126005  0  3.971676  0
C  C181  1  0.07120653  0.62640516  0.59374308  1  -0.00878  0  -0.082449  -0.084801  0  3.975527  0
C  C182  1  0.03968516  0.80775975  0.48815608  1  0.039571  0  -0.01088  -0.269864  0  3.846406  0
C  C183  1  0.98110246  0.86579652  0.52569847  1  1.722128  0  0.300205  0.679944  0  3.970851  0
C  C184  1  0.10312067  0.86283172  0.45212193  1  1.721786  0  0.301531  0.677542  0  3.967205  0
C  C185  1  0.99003986  0.75519526  0.44293592  1  -0.052625  0  -0.016981  0.083704  0  3.956716  0
C  C186  1  0.03308313  0.68770878  0.41731737  1  -0.011996  0  -0.091121  -0.125415  0  3.961168  0
C  C187  1  0.99138322  0.63427662  0.37873232  1  0.03162  0  -0.08179  -0.084783  0  3.954765  0
C  C188  1  0.90476323  0.64667882  0.36598783  1  -0.143067  0  -0.020613  -0.039342  0  3.98698  0
C  C189  1  0.86218958  0.71479757  0.39038912  1  0.011374  0  -0.086262  -0.085133  0  3.979395  0
C  C190  1  0.90458386  0.76947786  0.42794302  1  -0.036291  0  -0.099934  -0.142533  0  3.994884  0
C  C191  1  0.85719233  0.58799231  0.32674442  1  1.576663  0  0.213462  0.583689  0  4.18549  0
C  C192  1  0.16434047  0.26259091  0.72728763  1  0.455477  0  0.051281  0.098811  0  3.927916  0
C  C193  1  0.12655803  0.18535086  0.72355442  1  -0.018073  0  -0.071343  -0.149946  0  3.918513  0
C  C194  1  0.03693222  0.17960979  0.72467663  1  -0.012327  0  0.015063  0.113222  0  4.002165  0
C  C195  1  0.98985717  0.25335536  0.72872552  1  0.017391  0  -0.069282  -0.157155  0  3.910194  0
C  C196  1  0.03275239  0.32878887  0.73275589  1  0.436224  0  0.061905  0.108474  0  3.910118  0
C  C197  1  0.99377187  0.09956267  0.72370383  1  0.677709  0  0.086921  0.069698  0  3.889914  0
C  C198  1  0.02984630  0.89362774  0.72530821  1  0.603081  0  0.085996  0.066611  0  3.891108  0
C  C199  1  0.98643872  0.81400146  0.73085247  1  -0.012598  0  0.015539  0.114553  0  3.999824  0
C  C200  1  0.03233572  0.73944770  0.72811857  1  -0.011873  0  -0.069006  -0.155926  0  3.907263  0
C  C201  1  0.98917346  0.66443625  0.73426505  1  0.522201  0  0.062247  0.10749  0  3.907475  0
C  C202  1  0.85958819  0.73274083  0.74601426  1  0.401364  0  0.052218  0.099657  0  3.930085  0
C  C203  1  0.89766705  0.80956253  0.73997476  1  0.070621  0  -0.071071  -0.151216  0  3.920643  0
C  C204  1  0.83392258  0.42035461  0.66769895  1  1.566127  0  0.211662  0.586848  0  4.186763  0
C  C205  1  0.87276407  0.36747920  0.62045546  1  -0.01638  0  -0.018985  -0.037527  0  3.985152  0
C  C206  1  0.83057421  0.29624289  0.60082910  1  -0.085285  0  -0.087238  -0.085025  0  3.970109  0
C  C207  1  0.86780963  0.24477374  0.55862629  1  -0.080608  0  -0.100314  -0.141912  0  3.990328  0
C  C208  1  0.94812228  0.26422296  0.53519689  1  -0.031003  0  -0.017639  0.083055  0  3.951927  0
C  C209  1  0.99035175  0.33574065  0.55512392  1  0.02994  0  -0.089907  -0.122936  0  3.969452  0
C  C210  1  0.95312399  0.38697491  0.59718569  1  -0.113905  0  -0.082158  -0.085617  0  3.973512  0
C  C211  1  0.99565726  0.20892610  0.49058296  1  0.06298  0  -0.011047  -0.271122  0  3.852109  0
C  C212  1  0.05786546  0.15443324  0.52815941  1  1.697833  0  0.300699  0.677355  0  3.97181  0
C  C213  1  0.93518667  0.15047881  0.45491842  1  1.716449  0  0.301299  0.677225  0  3.974804  0
C  C214  1  0.04195307  0.26311435  0.44467530  1  -0.008817  0  -0.017631  0.082485  0  3.957859  0
C  C215  1  0.99629562  0.32945794  0.41967798  1  0.026363  0  -0.090501  -0.124891  0  3.960304  0
C  C216  1  0.03441923  0.38186867  0.37863987  1  -0.081335  0  -0.081933  -0.085454  0  3.955334  0
C  C217  1  0.11939482  0.36856344  0.36177130  1  -0.014025  0  -0.019123  -0.036572  0  3.987804  0
C  C218  1  0.16459095  0.30185594  0.38583165  1  -0.081242  0  -0.084988  -0.08236  0  3.976762  0
C  C219  1  0.12634411  0.24925070  0.42681761  1  -0.07743  0  -0.09956  -0.142305  0  3.996778  0
C  C220  1  0.16242923  0.42386284  0.31788741  1  1.556762  0  0.211772  0.581966  0  4.189931  0
C  C221  1  0.69312237  0.58050983  0.84107334  1  1.580418  0  0.212753  0.586267  0  4.182558  0
C  C222  1  0.65466995  0.63804719  0.88570983  1  -0.020208  0  -0.019912  -0.036945  0  3.983151  0
C  C223  1  0.70171572  0.70608547  0.90579869  1  -0.113463  0  -0.088472  -0.089927  0  3.975723  0
C  C224  1  0.66653549  0.76204178  0.94590299  1  0.009439  0  -0.10066  -0.140503  0  3.992879  0
C  C225  1  0.58383099  0.74944912  0.96751598  1  -0.032624  0  -0.016505  0.08422  0  3.953541  0
C  C226  1  0.53656481  0.68119144  0.94706012  1  -0.02355  0  -0.091233  -0.12593  0  3.971751  0
C  C227  1  0.57120585  0.62640774  0.90625543  1  -0.008545  0  -0.082464  -0.084854  0  3.975837  0
C  C228  1  0.53968707  0.80776133  0.01184399  1  0.03966  0  -0.010991  -0.270026  0  3.846346  0
C  C229  1  0.48110375  0.86579741  0.97429925  1  1.721987  0  0.300138  0.68005  0  3.97065  0
C  C230  1  0.60312384  0.86283209  0.04787817  1  1.721628  0  0.301509  0.677566  0  3.967256  0
C  C231  1  0.49004693  0.75519822  0.05706455  1  -0.053184  0  -0.016984  0.08366  0  3.956683  0
C  C232  1  0.53308949  0.68771352  0.08268485  1  -0.011035  0  -0.091088  -0.125331  0  3.961054  0
C  C233  1  0.49138837  0.63428398  0.12127163  1  0.032401  0  -0.081747  -0.084888  0  3.95482  0
C  C234  1  0.40476902  0.64668619  0.13401392  1  -0.143299  0  -0.020595  -0.039027  0  3.986879  0
C  C235  1  0.36219729  0.71480802  0.10961443  1  0.011135  0  -0.086344  -0.085346  0  3.979368  0
C  C236  1  0.40458965  0.76948207  0.07205658  1  -0.036539  0  -0.099841  -0.142326  0  3.994592  0
C  C237  1  0.35720131  0.58800158  0.17325775  1  1.576434  0  0.213475  0.583627  0  4.185773  0
C  C238  1  0.66433596  0.26258965  0.77271247  1  0.455539  0  0.051186  0.098694  0  3.92794  0
C  C239  1  0.62655417  0.18535022  0.77644520  1  -0.018168  0  -0.071298  -0.149735  0  3.918473  0
C  C240  1  0.53692836  0.17961038  0.77532387  1  -0.012692  0  0.015014  0.112991  0  4.002337  0
C  C241  1  0.48985209  0.25335419  0.77127632  1  0.01746  0  -0.06927  -0.157013  0  3.910307  0
C  C242  1  0.53274725  0.32878822  0.76724468  1  0.436013  0  0.061881  0.108371  0  3.910153  0
C  C243  1  0.49376551  0.09956337  0.77629794  1  0.678004  0  0.086857  0.06963  0  3.890208  0
C  C244  1  0.52984180  0.89362896  0.77468954  1  0.603287  0  0.086076  0.066707  0  3.891097  0
C  C245  1  0.48643683  0.81400152  0.76914478  1  -0.012575  0  0.015664  0.114544  0  3.999843  0
C  C246  1  0.53233505  0.73944767  0.77187955  1  -0.011909  0  -0.06897  -0.155838  0  3.907255  0
C  C247  1  0.48917541  0.66443694  0.76573477  1  0.52214  0  0.062258  0.107534  0  3.907177  0
C  C248  1  0.35958886  0.73273902  0.75398163  1  0.40116  0  0.052187  0.099657  0  3.930217  0
C  C249  1  0.39766580  0.80956073  0.76002249  1  0.07026  0  -0.071167  -0.151271  0  3.920752  0
C  C250  1  0.33392920  0.57963591  0.33230243  1  1.565854  0  0.211556  0.586773  0  4.1871  0
C  C251  1  0.37276635  0.63251823  0.37954459  1  -0.016011  0  -0.019024  -0.037571  0  3.985159  0
C  C252  1  0.33057346  0.70375631  0.39916963  1  -0.085235  0  -0.087243  -0.085035  0  3.969998  0
C  C253  1  0.36780900  0.75522554  0.44137421  1  -0.080626  0  -0.100314  -0.141912  0  3.990408  0
C  C254  1  0.44812160  0.73577650  0.46480139  1  -0.031123  0  -0.017644  0.083003  0  3.952007  0
C  C255  1  0.49035090  0.66425829  0.44487568  1  0.030074  0  -0.089891  -0.122952  0  3.9695  0
C  C256  1  0.45312367  0.61302643  0.40281303  1  -0.113949  0  -0.082123  -0.085542  0  3.973608  0
C  C257  1  0.49565544  0.79107347  0.50941709  1  0.06322  0  -0.011034  -0.270928  0  3.851988  0
C  C258  1  0.55786052  0.84556471  0.47183934  1  1.697791  0  0.300693  0.677056  0  3.972147  0
C  C259  1  0.43518882  0.84951877  0.54508207  1  1.716231  0  0.301342  0.677131  0  3.974853  0
C  C260  1  0.54195105  0.73688481  0.55532566  1  -0.008664  0  -0.017635  0.082486  0  3.957912  0
C  C261  1  0.49629351  0.67053853  0.58031986  1  0.026762  0  -0.090378  -0.124665  0  3.96022  0
C  C262  1  0.53441437  0.61813109  0.62136197  1  -0.081355  0  -0.082046  -0.085651  0  3.955472  0
C  C263  1  0.61938871  0.63143713  0.63823186  1  -0.014409  0  -0.019077  -0.036534  0  3.987934  0
C  C264  1  0.66458629  0.69814350  0.61416886  1  -0.081195  0  -0.084909  -0.082216  0  3.976869  0
C  C265  1  0.62634148  0.75074741  0.57318290  1  -0.077636  0  -0.099623  -0.142451  0  3.997075  0
C  C266  1  0.66242554  0.57613349  0.68211089  1  1.556897  0  0.211798  0.582042  0  4.190182  0
C  C267  1  0.19313309  0.41948719  0.15892407  1  1.580255  0  0.212228  0.585622  0  4.18313  0
C  C268  1  0.15467606  0.36195098  0.11428847  1  -0.020373  0  -0.019916  -0.036825  0  3.983003  0
C  C269  1  0.20171208  0.29390909  0.09420270  1  -0.113855  0  -0.088453  -0.089859  0  3.975671  0
C  C270  1  0.16653491  0.23795332  0.05409928  1  0.009682  0  -0.10065  -0.140487  0  3.992834  0
C  C271  1  0.08383300  0.25054889  0.03248453  1  -0.03266  0  -0.016538  0.084103  0  3.953588  0
C  C272  1  0.03656699  0.31880894  0.05293862  1  -0.023448  0  -0.0912  -0.125961  0  3.971703  0
C  C273  1  0.07120752  0.37359582  0.09374243  1  -0.008849  0  -0.08247  -0.084801  0  3.975549  0
C  C274  1  0.03968824  0.19224030  0.98815520  1  0.039621  0  -0.011  -0.270091  0  3.846568  0
C  C275  1  0.98110222  0.13420213  0.02569815  1  1.722098  0  0.300295  0.680104  0  3.970606  0
C  C276  1  0.10312233  0.13716348  0.95212278  1  1.721739  0  0.301536  0.677808  0  3.967108  0
C  C277  1  0.99004625  0.24480258  0.94293550  1  -0.053037  0  -0.016959  0.083628  0  3.956718  0
C  C278  1  0.03309096  0.31228623  0.91731433  1  -0.011081  0  -0.091162  -0.12541  0  3.961086  0
C  C279  1  0.99138735  0.36572054  0.87873063  1  0.031993  0  -0.081699  -0.08483  0  3.954845  0
C  C280  1  0.90476605  0.35331503  0.86598746  1  -0.143017  0  -0.020637  -0.039092  0  3.986985  0
C  C281  1  0.86219416  0.28519930  0.89038916  1  0.011289  0  -0.086324  -0.085367  0  3.979433  0
C  C282  1  0.90458894  0.23052039  0.92794348  1  -0.036405  0  -0.099876  -0.142268  0  3.994615  0
C  C283  1  0.85719594  0.41200202  0.82674231  1  1.576438  0  0.21338  0.583432  0  4.185746  0
C  C284  1  0.16433722  0.73741474  0.22729069  1  0.4555  0  0.05128  0.098765  0  3.927769  0
C  C285  1  0.12655498  0.81465161  0.22355752  1  -0.018164  0  -0.071343  -0.149793  0  3.91839  0
C  C286  1  0.03692790  0.82038938  0.22467974  1  -0.012669  0  0.01501  0.113058  0  4.002267  0
C  C287  1  0.98985523  0.74664599  0.22872726  1  0.017345  0  -0.069224  -0.157038  0  3.910123  0
C  C288  1  0.03275027  0.67121153  0.23276069  1  0.436272  0  0.061956  0.108448  0  3.910094  0
C  C289  1  0.99377222  0.90043558  0.22370343  1  0.677927  0  0.086929  0.069744  0  3.889852  0
C  C290  1  0.02984856  0.10637203  0.22531098  1  0.603072  0  0.086011  0.06674  0  3.891183  0
C  C291  1  0.98644180  0.18599989  0.23085084  1  -0.012268  0  0.015499  0.114569  0  3.999838  0
C  C292  1  0.03233707  0.26055456  0.22811831  1  -0.011923  0  -0.068995  -0.155919  0  3.907478  0
C  C293  1  0.98917372  0.33556510  0.23426571  1  0.522159  0  0.062242  0.107488  0  3.907439  0
C  C294  1  0.85959020  0.26726148  0.24601577  1  0.401174  0  0.052162  0.099605  0  3.930052  0
C  C295  1  0.89766951  0.19043924  0.23997225  1  0.070367  0  -0.071034  -0.151173  0  3.920533  0
N  N296  1  0.61849246  0.66673807  0.26781987  1  -1.201757  0  -0.318173  -0.204853  0  3.506733  0
N  N297  1  0.53765315  0.96845099  0.27577095  1  -0.756628  0  -0.206089  -0.165547  0  3.310223  0
N  N298  1  0.48641546  0.03813665  0.27293822  1  -0.751654  0  -0.205286  -0.1647  0  3.314577  0
N  N299  1  0.40435403  0.33880338  0.25677277  1  -1.24725  0  -0.319097  -0.206979  0  3.512513  0
N  N300  1  0.11849463  0.33326312  0.73217975  1  -1.201864  0  -0.318179  -0.20493  0  3.506691  0
N  N301  1  0.03765394  0.03155001  0.72422957  1  -0.756723  0  -0.206062  -0.165508  0  3.310246  0
N  N302  1  0.98641717  0.96186290  0.72706183  1  -0.751568  0  -0.205293  -0.164705  0  3.314546  0
N  N303  1  0.90435054  0.66119970  0.74322640  1  -1.247434  0  -0.319068  -0.206871  0  3.51249  0
N  N304  1  0.61848884  0.33326371  0.76782259  1  -1.201784  0  -0.318105  -0.204775  0  3.506527  0
N  N305  1  0.53764816  0.03155123  0.77577042  1  -0.757079  0  -0.206024  -0.165418  0  3.310194  0
N  N306  1  0.48641209  0.96186297  0.77293682  1  -0.751294  0  -0.205377  -0.164842  0  3.314513  0
N  N307  1  0.40435185  0.66119913  0.75677167  1  -1.24722  0  -0.31903  -0.206866  0  3.512417  0
N  N308  1  0.11849057  0.66673810  0.23218057  1  -1.201674  0  -0.318206  -0.204855  0  3.506608  0
N  N309  1  0.03765382  0.96845101  0.22423053  1  -0.756677  0  -0.206158  -0.165651  0  3.310195  0
N  N310  1  0.98641863  0.03813968  0.22706058  1  -0.751551  0  -0.205225  -0.16469  0  3.31469  0
N  N311  1  0.90435208  0.33880085  0.24322662  1  -1.247258  0  -0.319083  -0.206957  0  3.512729  0
O  O312  1  0.76848586  0.60867897  0.19389531  1  -1.176559  0  -0.318212  -0.563885  0  2.348945  0
O  O313  1  0.87071163  0.51086380  0.17880909  1  -1.165132  0  -0.319344  -0.54237  0  2.304999  0
O  O314  1  0.23171292  0.60314840  0.79563700  1  -1.186849  0  -0.317845  -0.574905  0  2.389143  0
O  O315  1  0.12676860  0.50723323  0.80538582  1  -1.155297  0  -0.309654  -0.529411  0  2.305442  0
O  O316  1  0.77045008  0.40587707  0.32680849  1  -1.177721  0  -0.318235  -0.554362  0  2.349477  0
O  O317  1  0.64478354  0.47609798  0.32019197  1  -1.169049  0  -0.316093  -0.543576  0  2.314678  0
O  O318  1  0.39976466  0.47048955  0.69741417  1  -1.16727  0  -0.311589  -0.536881  0  2.323588  0
O  O319  1  0.27788825  0.39831790  0.67992878  1  -1.18927  0  -0.315486  -0.56137  0  2.382273  0
O  O320  1  0.26849200  0.39133372  0.80610298  1  -1.176319  0  -0.31816  -0.563867  0  2.349291  0
O  O321  1  0.37071736  0.48914850  0.82119451  1  -1.165427  0  -0.319151  -0.542064  0  2.305162  0
O  O322  1  0.73170691  0.39686482  0.20436217  1  -1.187447  0  -0.317816  -0.574871  0  2.389573  0
O  O323  1  0.62675708  0.49277851  0.19461292  1  -1.155584  0  -0.309833  -0.529691  0  2.305032  0
O  O324  1  0.27046311  0.59412943  0.67319068  1  -1.176757  0  -0.3181  -0.55423  0  2.349259  0
O  O325  1  0.14479767  0.52391008  0.67980633  1  -1.170135  0  -0.316038  -0.543487  0  2.314982  0
O  O326  1  0.89974746  0.52951415  0.30258942  1  -1.168024  0  -0.311487  -0.536707  0  2.32398  0
O  O327  1  0.77786995  0.60168613  0.32007217  1  -1.188987  0  -0.315554  -0.561448  0  2.381867  0
O  O328  1  0.76847664  0.39131006  0.69389806  1  -1.176524  0  -0.318203  -0.563889  0  2.348685  0
O  O329  1  0.87070073  0.48912917  0.67881055  1  -1.165131  0  -0.319371  -0.542226  0  2.305212  0
O  O330  1  0.23171013  0.39686120  0.29563593  1  -1.187213  0  -0.317802  -0.574866  0  2.38942  0
O  O331  1  0.12676094  0.49277489  0.30539054  1  -1.155461  0  -0.309817  -0.529598  0  2.305044  0
O  O332  1  0.77043816  0.59411706  0.82680868  1  -1.178098  0  -0.318517  -0.554691  0  2.349551  0
O  O333  1  0.64477655  0.52389647  0.82018947  1  -1.169132  0  -0.316101  -0.543643  0  2.314532  0
O  O334  1  0.39975516  0.52951662  0.19741183  1  -1.167949  0  -0.311519  -0.536789  0  2.323902  0
O  O335  1  0.27787893  0.60169293  0.17992824  1  -1.188803  0  -0.31561  -0.561491  0  2.381793  0
O  O336  1  0.26848717  0.60867350  0.30610112  1  -1.176526  0  -0.318178  -0.563834  0  2.349083  0
O  O337  1  0.37071357  0.51086020  0.32119083  1  -1.165254  0  -0.319265  -0.542155  0  2.305248  0
O  O338  1  0.73169692  0.60313405  0.70436325  1  -1.1873  0  -0.317811  -0.574819  0  2.389778  0
O  O339  1  0.62674941  0.50721702  0.69461174  1  -1.155564  0  -0.309777  -0.529615  0  2.304667  0
O  O340  1  0.27045715  0.40587766  0.17319050  1  -1.177674  0  -0.318058  -0.554221  0  2.349595  0
O  O341  1  0.14479124  0.47609424  0.17980971  1  -1.169217  0  -0.316028  -0.543534  0  2.314855  0
O  O342  1  0.89974546  0.47047839  0.80259087  1  -1.167888  0  -0.311439  -0.536605  0  2.324188  0
O  O343  1  0.77786777  0.39830677  0.82007270  1  -1.188882  0  -0.31554  -0.561388  0  2.381676  0
F  F344  1  0.01657289  0.88338564  0.07371738  1  -0.614678  0  -0.104115  -0.207732  0  1.332356  0
F  F345  1  0.12082702  0.79818473  0.05273932  1  -0.619746  0  -0.098501  -0.204653  0  1.305535  0
F  F346  1  0.09690340  0.90652050  0.99650829  1  -0.610006  0  -0.100249  -0.207212  0  1.347367  0
F  F347  1  0.97722081  0.88853747  0.91032029  1  -0.608928  0  -0.10499  -0.206233  0  1.310775  0
F  F348  1  0.89768441  0.90952979  0.98833133  1  -0.611797  0  -0.099046  -0.203134  0  1.351413  0
F  F349  1  0.87054586  0.80533697  0.92933908  1  -0.629979  0  -0.088602  -0.20084  0  1.358235  0
F  F350  1  0.41643387  0.17780716  0.44830455  1  -0.621406  0  -0.100446  -0.207202  0  1.301079  0
F  F351  1  0.52528327  0.09722111  0.42970887  1  -0.620827  0  -0.105618  -0.208573  0  1.324436  0
F  F352  1  0.44439629  0.07259927  0.50655966  1  -0.613371  0  -0.099659  -0.207067  0  1.359879  0
F  F353  1  0.64331369  0.07830639  0.51486173  1  -0.614586  0  -0.101414  -0.205018  0  1.333249  0
F  F354  1  0.56291037  0.09707186  0.59278786  1  -0.610785  0  -0.105254  -0.206026  0  1.308018  0
F  F355  1  0.66576179  0.18443786  0.57309875  1  -0.629609  0  -0.089786  -0.201679  0  1.34827  0
F  F356  1  0.51657062  0.11661160  0.92628357  1  -0.614708  0  -0.104185  -0.207776  0  1.332346  0
F  F357  1  0.62082368  0.20181584  0.94726340  1  -0.619629  0  -0.098486  -0.204655  0  1.305342  0
F  F358  1  0.59690177  0.09348126  0.00349531  1  -0.610346  0  -0.100259  -0.207233  0  1.347317  0
F  F359  1  0.47721673  0.11147012  0.08968064  1  -0.608836  0  -0.104933  -0.206159  0  1.310889  0
F  F360  1  0.39768412  0.09047265  0.01167049  1  -0.611673  0  -0.099057  -0.203133  0  1.3514  0
F  F361  1  0.37053751  0.19466355  0.07065699  1  -0.630047  0  -0.088644  -0.200889  0  1.358144  0
F  F362  1  0.91643462  0.82218789  0.55169815  1  -0.621508  0  -0.100428  -0.207133  0  1.301013  0
F  F363  1  0.02528364  0.90277243  0.57029253  1  -0.620834  0  -0.105615  -0.208517  0  1.324514  0
F  F364  1  0.94439921  0.92739832  0.49344349  1  -0.613313  0  -0.099589  -0.206934  0  1.360037  0
F  F365  1  0.14331155  0.92169176  0.48514143  1  -0.614638  0  -0.101449  -0.205125  0  1.333191  0
F  F366  1  0.06290563  0.90292920  0.40721486  1  -0.610783  0  -0.105281  -0.206103  0  1.307938  0
F  F367  1  0.16576131  0.81556468  0.42689954  1  -0.629601  0  -0.089788  -0.201727  0  1.348234  0
F  F368  1  0.01657450  0.11661210  0.57371469  1  -0.614613  0  -0.104182  -0.207823  0  1.332267  0
F  F369  1  0.12083011  0.20181570  0.55273711  1  -0.619768  0  -0.098398  -0.204639  0  1.30554  0
F  F370  1  0.09690434  0.09347907  0.49650530  1  -0.61006  0  -0.100255  -0.207285  0  1.347279  0
F  F371  1  0.97721733  0.11146713  0.41032173  1  -0.608808  0  -0.10494  -0.206149  0  1.310948  0
F  F372  1  0.89769110  0.09047222  0.48833408  1  -0.611752  0  -0.098993  -0.203092  0  1.351414  0
F  F373  1  0.87054002  0.19466120  0.42934764  1  -0.62999  0  -0.088589  -0.200808  0  1.35832  0
F  F374  1  0.41643464  0.82218379  0.94830220  1  -0.621346  0  -0.100387  -0.207145  0  1.30091  0
F  F375  1  0.52528168  0.90277194  0.92970832  1  -0.620831  0  -0.105496  -0.20843  0  1.324718  0
F  F376  1  0.44439862  0.92739937  0.00655839  1  -0.613328  0  -0.09964  -0.207045  0  1.359798  0
F  F377  1  0.64331536  0.92169272  0.01486179  1  -0.614609  0  -0.10143  -0.205095  0  1.333253  0
F  F378  1  0.56291072  0.90293272  0.09278526  1  -0.610762  0  -0.105259  -0.206133  0  1.307964  0
F  F379  1  0.66576577  0.81556446  0.07310186  1  -0.629573  0  -0.0898  -0.201748  0  1.348182  0
F  F380  1  0.51657348  0.88338762  0.42628273  1  -0.61471  0  -0.104121  -0.207708  0  1.332474  0
F  F381  1  0.62082570  0.79818488  0.44726163  1  -0.619695  0  -0.098488  -0.204649  0  1.305461  0
F  F382  1  0.59690083  0.90651897  0.50349389  1  -0.609959  0  -0.100225  -0.207164  0  1.347342  0
F  F383  1  0.47721574  0.88853054  0.58967964  1  -0.608807  0  -0.104917  -0.206092  0  1.310937  0
F  F384  1  0.39769468  0.90953085  0.51166906  1  -0.611699  0  -0.099027  -0.203086  0  1.351419  0
F  F385  1  0.37053632  0.80533871  0.57065242  1  -0.63006  0  -0.088644  -0.200846  0  1.358275  0
F  F386  1  0.91643449  0.17781188  0.05169520  1  -0.621465  0  -0.100371  -0.207107  0  1.301011  0
F  F387  1  0.02527885  0.09722284  0.07028909  1  -0.620754  0  -0.105594  -0.208496  0  1.324569  0
F  F388  1  0.94439369  0.07260256  0.99343989  1  -0.613407  0  -0.099726  -0.207064  0  1.359916  0
F  F389  1  0.14331498  0.07830914  0.98514138  1  -0.614653  0  -0.10141  -0.205125  0  1.333415  0
F  F390  1  0.06290592  0.09705967  0.90721790  1  -0.610851  0  -0.105297  -0.206184  0  1.307902  0
F  F391  1  0.16576309  0.18443126  0.92689467  1  -0.629578  0  -0.089783  -0.201835  0  1.348066  0
