# generated using pymatgen
data_Zn3H38C44(N2O5)4
_symmetry_space_group_name_H-M   'P 1'
_cell_length_a   16.38458028
_cell_length_b   16.56525080
_cell_length_c   18.46350705
_cell_angle_alpha   89.99996110
_cell_angle_beta   89.99999130
_cell_angle_gamma   109.93655424
_symmetry_Int_Tables_number   1
_chemical_formula_structural   Zn3H38C44(N2O5)4
_chemical_formula_sum   'Zn12 H152 C176 N32 O80'
_cell_volume   4710.94555231
_cell_formula_units_Z   4
loop_
 _symmetry_equiv_pos_site_id
 _symmetry_equiv_pos_as_xyz
  1  'x, y, z'
loop_
 _atom_site_type_symbol
 _atom_site_label
 _atom_site_symmetry_multiplicity
 _atom_site_fract_x
 _atom_site_fract_y
 _atom_site_fract_z
 _atom_site_occupancy
 _atom_site_pbe_bader_charge
 _atom_site_pbe_bader_spin_density
 _atom_site_pbe_cm5_charge
 _atom_site_pbe_ddec_charge
 _atom_site_pbe_ddec_spin_density
 _atom_site_pbe_ddec_sum_bond_order
 _atom_site_pbe_magmom
Zn  Zn0  1  0.12572200  0.18692071  0.60671187  1  1.33764  0  0.691116  0.955125  0  2.26091  0
Zn  Zn1  1  0.37427563  0.81307975  0.10671402  1  1.337807  0  0.691052  0.955027  0  2.26103  0
Zn  Zn2  1  0.87427565  0.81308153  0.39328900  1  1.337677  0  0.691098  0.955127  0  2.260858  0
Zn  Zn3  1  0.62572250  0.18691862  0.89328739  1  1.337753  0  0.691099  0.955113  0  2.260784  0
Zn  Zn4  1  0.35463820  0.30735666  0.61788249  1  1.331297  0  0.691636  0.933744  0  2.320076  0
Zn  Zn5  1  0.14535866  0.69264508  0.11788259  1  1.33118  0  0.691626  0.933812  0  2.319997  0
Zn  Zn6  1  0.64535756  0.69264365  0.38211837  1  1.331177  0  0.6916  0.933718  0  2.320152  0
Zn  Zn7  1  0.85463893  0.30735523  0.88211882  1  1.331136  0  0.691643  0.93375  0  2.320134  0
Zn  Zn8  1  0.99999893  0.00000038  0.50000081  1  1.428148  0  0.705505  1.044057  0  2.232864  0
Zn  Zn9  1  0.50000108  0.00000143  0.00000012  1  1.428207  0  0.705521  1.044075  0  2.232837  0
Zn  Zn10  1  0.49999830  0.50000048  0.49999746  1  1.430543  0  0.726681  1.065597  0  2.209566  0
Zn  Zn11  1  0.00000189  0.50000199  0.00000148  1  1.430601  0  0.726695  1.065592  0  2.209556  0
H  H12  1  0.39465640  0.16611696  0.76607540  1  0.094891  0  0.109267  0.115227  0  1.03049  0
H  H13  1  0.10534314  0.83388205  0.26607758  1  0.09503  0  0.109286  0.115251  0  1.030387  0
H  H14  1  0.60534371  0.83388011  0.23392276  1  0.094951  0  0.109316  0.115306  0  1.030369  0
H  H15  1  0.89465582  0.16611696  0.73392437  1  0.094906  0  0.109267  0.115218  0  1.030456  0
H  H16  1  0.34098738  0.91708352  0.85989864  1  0.108526  0  0.105376  0.108932  0  1.043285  0
H  H17  1  0.15901356  0.08291603  0.35990125  1  0.10861  0  0.10538  0.108919  0  1.04331  0
H  H18  1  0.65901074  0.08291485  0.14010223  1  0.108542  0  0.105388  0.108959  0  1.043258  0
H  H19  1  0.84098845  0.91708295  0.64010232  1  0.108524  0  0.105384  0.108953  0  1.043261  0
H  H20  1  0.15171574  0.96657966  0.72002218  1  0.084037  0  0.107128  0.117251  0  1.018325  0
H  H21  1  0.34828360  0.03341875  0.22002208  1  0.084057  0  0.107129  0.117227  0  1.018307  0
H  H22  1  0.84828277  0.03341806  0.27997923  1  0.084054  0  0.107107  0.117182  0  1.018333  0
H  H23  1  0.65171529  0.96657833  0.77997770  1  0.084025  0  0.107118  0.117228  0  1.018332  0
H  H24  1  0.22079597  0.85672554  0.91956068  1  0.127177  0  0.106764  0.10486  0  1.047938  0
H  H25  1  0.27920370  0.14327911  0.41955891  1  0.12725  0  0.106713  0.104829  0  1.047917  0
H  H26  1  0.77920094  0.14327284  0.08044236  1  0.127205  0  0.106776  0.104871  0  1.047929  0
H  H27  1  0.72079981  0.85672244  0.58044034  1  0.127142  0  0.106744  0.104849  0  1.047951  0
H  H28  1  0.03632727  0.60988007  0.86301679  1  0.193809  0  0.111288  0.125168  0  1.056236  0
H  H29  1  0.46367527  0.39011883  0.36301376  1  0.193798  0  0.111254  0.125089  0  1.056375  0
H  H30  1  0.96366903  0.39011832  0.13698299  1  0.193879  0  0.111265  0.125138  0  1.056224  0
H  H31  1  0.53633199  0.60987947  0.63698385  1  0.193819  0  0.111265  0.125129  0  1.056296  0
H  H32  1  0.12964249  0.80493007  0.69979963  1  0.083032  0  0.105509  0.110059  0  1.016287  0
H  H33  1  0.37036233  0.19506832  0.19979890  1  0.08302  0  0.105498  0.110067  0  1.016259  0
H  H34  1  0.87036073  0.19506890  0.30020232  1  0.083314  0  0.105517  0.110113  0  1.016308  0
H  H35  1  0.62963922  0.80492939  0.80020143  1  0.08304  0  0.105498  0.110032  0  1.016266  0
H  H36  1  0.01919585  0.11934646  0.32983763  1  0.139605  0  0.109986  0.123342  0  1.01729  0
H  H37  1  0.48080632  0.88065311  0.82983988  1  0.139585  0  0.109988  0.123316  0  1.017285  0
H  H38  1  0.98080660  0.88065381  0.67016108  1  0.139566  0  0.109965  0.123269  0  1.017308  0
H  H39  1  0.51919172  0.11934848  0.17015936  1  0.139595  0  0.109985  0.123359  0  1.017276  0
H  H40  1  0.16387630  0.32845817  0.19117484  1  0.106456  0  0.104727  0.096062  0  1.061271  0
H  H41  1  0.33612618  0.67153702  0.69117887  1  0.106627  0  0.104768  0.096063  0  1.061252  0
H  H42  1  0.83612342  0.67153954  0.80882332  1  0.106421  0  0.104733  0.096056  0  1.061241  0
H  H43  1  0.66387165  0.32845878  0.30882471  1  0.108445  0  0.104757  0.096101  0  1.061331  0
H  H44  1  0.19858397  0.34975066  0.42230697  1  0.096007  0  0.107675  0.116354  0  1.008758  0
H  H45  1  0.30142082  0.65024945  0.92231102  1  0.114841  0  0.107652  0.11632  0  1.008759  0
H  H46  1  0.80141842  0.65024768  0.57769173  1  0.114883  0  0.107677  0.116354  0  1.008733  0
H  H47  1  0.69858597  0.34975272  0.07769364  1  0.095994  0  0.107694  0.116377  0  1.008696  0
H  H48  1  0.17195806  0.47124440  0.21271567  1  0.1408  0  0.110031  0.124587  0  1.020634  0
H  H49  1  0.32804130  0.52874887  0.71272140  1  0.141101  0  0.109986  0.124536  0  1.020689  0
H  H50  1  0.82803955  0.52875076  0.78728304  1  0.140896  0  0.11  0.124613  0  1.020642  0
H  H51  1  0.67196185  0.47124818  0.28728705  1  0.140854  0  0.11003  0.12458  0  1.020671  0
H  H52  1  0.42152559  0.66198283  0.25101005  1  0.113449  0  0.107407  0.106303  0  1.051241  0
H  H53  1  0.07846922  0.33802008  0.75101269  1  0.113429  0  0.107367  0.106272  0  1.051215  0
H  H54  1  0.57846818  0.33801879  0.74898757  1  0.113389  0  0.10735  0.106221  0  1.051237  0
H  H55  1  0.92152744  0.66198280  0.24898764  1  0.113427  0  0.107355  0.106229  0  1.051266  0
H  H56  1  0.34307795  0.42849739  0.37478617  1  0.106845  0  0.103968  0.104389  0  1.071553  0
H  H57  1  0.15692322  0.57150279  0.87479083  1  0.106753  0  0.103964  0.104348  0  1.071522  0
H  H58  1  0.65692413  0.57150352  0.62521036  1  0.106785  0  0.103983  0.104393  0  1.071492  0
H  H59  1  0.84307735  0.42849556  0.12521545  1  0.106823  0  0.103982  0.104421  0  1.071493  0
H  H60  1  0.33745562  0.01075868  0.61989412  1  0.067015  0  0.095623  0.068185  0  0.998365  0
H  H61  1  0.16254656  0.98924431  0.11989566  1  0.066984  0  0.095584  0.068127  0  0.99834  0
H  H62  1  0.66254728  0.98924287  0.38010025  1  0.066703  0  0.095618  0.068177  0  0.998291  0
H  H63  1  0.83745247  0.01075663  0.88010142  1  0.06669  0  0.095614  0.068149  0  0.998329  0
H  H64  1  0.37428366  0.99367619  0.53157799  1  0.107345  0  0.103244  0.087616  0  1.019916  0
H  H65  1  0.12571870  0.00633074  0.03157904  1  0.107274  0  0.10326  0.087617  0  1.019876  0
H  H66  1  0.62571824  0.00633117  0.46841637  1  0.107187  0  0.103198  0.087519  0  1.019794  0
H  H67  1  0.87428026  0.99366826  0.96841750  1  0.107192  0  0.103187  0.087501  0  1.019833  0
H  H68  1  0.25168741  0.86696466  0.51220740  1  0.055704  0  0.096312  0.063048  0  0.986505  0
H  H69  1  0.24831672  0.13304035  0.01221106  1  0.055701  0  0.096306  0.063071  0  0.986461  0
H  H70  1  0.74831708  0.13304139  0.48778426  1  0.055764  0  0.096294  0.063009  0  0.986512  0
H  H71  1  0.75168186  0.86695931  0.98778602  1  0.055779  0  0.096314  0.063055  0  0.986495  0
H  H72  1  0.24392764  0.86448530  0.60874648  1  0.06513  0  0.105323  0.081643  0  0.981085  0
H  H73  1  0.25607736  0.13551704  0.10875068  1  0.061649  0  0.105338  0.081749  0  0.98101  0
H  H74  1  0.75607869  0.13551559  0.39124572  1  0.061492  0  0.105313  0.0817  0  0.981078  0
H  H75  1  0.74392006  0.86448456  0.89124694  1  0.061534  0  0.105302  0.081733  0  0.98104  0
H  H76  1  0.84301108  0.51713137  0.49927275  1  0.073693  0  0.103474  0.088053  0  1.022957  0
H  H77  1  0.65698901  0.48286738  0.99926879  1  0.074072  0  0.103515  0.088087  0  1.022967  0
H  H78  1  0.15698416  0.48286574  0.50073353  1  0.07402  0  0.103496  0.088076  0  1.022936  0
H  H79  1  0.34301352  0.51713482  0.00072828  1  0.073975  0  0.103476  0.08806  0  1.022957  0
H  H80  1  0.81041520  0.52991484  0.40897734  1  0.06451  0  0.096238  0.067824  0  1.020167  0
H  H81  1  0.68958766  0.47008654  0.90897392  1  0.06446  0  0.096211  0.067799  0  1.020196  0
H  H82  1  0.18958406  0.47008674  0.59102841  1  0.064287  0  0.096207  0.067812  0  1.020151  0
H  H83  1  0.31041714  0.52991693  0.09102315  1  0.064321  0  0.096213  0.067794  0  1.020154  0
H  H84  1  0.79755092  0.38278284  0.39499845  1  0.053644  0  0.107146  0.086623  0  0.972076  0
H  H85  1  0.70244989  0.61721792  0.89499766  1  0.053622  0  0.107158  0.086631  0  0.972118  0
H  H86  1  0.20244568  0.61721811  0.60500187  1  0.053666  0  0.107168  0.086651  0  0.972145  0
H  H87  1  0.29755453  0.38278619  0.10500104  1  0.053721  0  0.107161  0.086627  0  0.972089  0
H  H88  1  0.78902081  0.36394387  0.49029617  1  0.041129  0  0.098244  0.067492  0  0.985206  0
H  H89  1  0.71097729  0.63605618  0.99029591  1  0.0411  0  0.09825  0.067514  0  0.985159  0
H  H90  1  0.21097549  0.63605451  0.50970361  1  0.041101  0  0.098253  0.06748  0  0.985185  0
H  H91  1  0.28902668  0.36394665  0.00970388  1  0.041126  0  0.098241  0.067484  0  0.985219  0
H  H92  1  0.99918938  0.60871303  0.62523415  1  0.662655  0  0.300585  0.360392  0  0.989992  0
H  H93  1  0.50081536  0.39128668  0.12523337  1  0.662624  0  0.300563  0.360378  0  0.990041  0
H  H94  1  0.00081468  0.39128659  0.37476292  1  0.662641  0  0.300579  0.360398  0  0.989987  0
H  H95  1  0.49918610  0.60871424  0.87476534  1  0.662621  0  0.300578  0.360433  0  0.989967  0
H  H96  1  0.97438871  0.06175320  0.14622131  1  0.65571  0  0.29701  0.351167  0  0.994984  0
H  H97  1  0.52560978  0.93824782  0.64622361  1  0.655719  0  0.29694  0.350948  0  0.995187  0
H  H98  1  0.02560910  0.93824774  0.85377685  1  0.655707  0  0.296977  0.351083  0  0.995084  0
H  H99  1  0.47438979  0.06175119  0.35377780  1  0.655702  0  0.296992  0.351086  0  0.995056  0
H  H100  1  0.10418681  0.88586653  0.55009945  1  0.525404  0  0.309419  0.297815  0  0.97658  0
H  H101  1  0.39581610  0.11413330  0.05010093  1  0.525398  0  0.309385  0.297736  0  0.976635  0
H  H102  1  0.89581664  0.11413309  0.44989709  1  0.525641  0  0.3094  0.297801  0  0.976584  0
H  H103  1  0.60418254  0.88586829  0.94989832  1  0.525648  0  0.309384  0.297744  0  0.976653  0
H  H104  1  0.30203473  0.11347779  0.52960572  1  0.484739  0  0.308438  0.29212  0  0.974875  0
H  H105  1  0.19796284  0.88652596  0.02960569  1  0.484796  0  0.3085  0.292272  0  0.974727  0
H  H106  1  0.69796299  0.88652638  0.47039407  1  0.484812  0  0.308516  0.292311  0  0.974672  0
H  H107  1  0.80203779  0.11347432  0.97039464  1  0.484788  0  0.308498  0.292243  0  0.974746  0
H  H108  1  0.63488628  0.30635051  0.42410130  1  0.536437  0  0.310121  0.298169  0  0.980659  0
H  H109  1  0.86511330  0.69365024  0.92410152  1  0.536445  0  0.310104  0.298209  0  0.980574  0
H  H110  1  0.36511025  0.69364852  0.57589848  1  0.536499  0  0.310139  0.298205  0  0.980611  0
H  H111  1  0.13489044  0.30635195  0.07589772  1  0.536488  0  0.310123  0.298215  0  0.980636  0
H  H112  1  0.69672142  0.55379504  0.49028421  1  0.502165  0  0.309938  0.290955  0  0.979864  0
H  H113  1  0.80327730  0.44620501  0.99028458  1  0.502199  0  0.309956  0.290952  0  0.979875  0
H  H114  1  0.30327389  0.44620399  0.50971720  1  0.501988  0  0.309955  0.290961  0  0.979854  0
H  H115  1  0.19672462  0.55379719  0.00971520  1  0.502196  0  0.309944  0.290916  0  0.979941  0
H  H116  1  0.01922678  0.72013670  0.41143679  1  0.083008  0  0.107756  0.09766  0  0.988942  0
H  H117  1  0.48077057  0.27985961  0.91143994  1  0.083042  0  0.107774  0.097661  0  0.988941  0
H  H118  1  0.98077031  0.27985524  0.58855866  1  0.083031  0  0.107772  0.09763  0  0.988994  0
H  H119  1  0.51922467  0.72013750  0.08856255  1  0.082945  0  0.107729  0.0976  0  0.988935  0
H  H120  1  0.12378968  0.72960222  0.44588473  1  0.041268  0  0.095862  0.060368  0  0.982936  0
H  H121  1  0.37620956  0.27039597  0.94588736  1  0.041632  0  0.09584  0.060335  0  0.982866  0
H  H122  1  0.87621012  0.27039742  0.55410964  1  0.041605  0  0.095845  0.06035  0  0.982826  0
H  H123  1  0.62378809  0.72960626  0.05411621  1  0.041229  0  0.095844  0.060338  0  0.982894  0
H  H124  1  0.04760186  0.66857754  0.29623496  1  0.06289  0  0.10289  0.081429  0  1.002882  0
H  H125  1  0.45239336  0.33141439  0.79623646  1  0.062893  0  0.102901  0.081445  0  1.002919  0
H  H126  1  0.95239548  0.33140989  0.70376157  1  0.06285  0  0.102872  0.081458  0  1.002937  0
H  H127  1  0.54760159  0.66858014  0.20376495  1  0.062873  0  0.102887  0.081451  0  1.002857  0
H  H128  1  0.15830926  0.71829726  0.32043673  1  0.066816  0  0.102564  0.083096  0  0.982263  0
H  H129  1  0.34168852  0.28169849  0.82044153  1  0.066372  0  0.102608  0.083158  0  0.982198  0
H  H130  1  0.84168979  0.28169853  0.67955764  1  0.066141  0  0.102593  0.083142  0  0.982323  0
H  H131  1  0.65830762  0.71830118  0.17956259  1  0.06675  0  0.102609  0.083175  0  0.982155  0
H  H132  1  0.00694136  0.58538010  0.49501629  1  0.52988  0  0.306118  0.288991  0  1.006158  0
H  H133  1  0.49306166  0.41461674  0.99501611  1  0.529866  0  0.306144  0.289019  0  1.006104  0
H  H134  1  0.99306340  0.41461629  0.50498295  1  0.529842  0  0.306132  0.289049  0  1.006116  0
H  H135  1  0.50694201  0.58538352  0.00498367  1  0.529879  0  0.306158  0.289039  0  1.006092  0
H  H136  1  0.10087460  0.54590851  0.30281987  1  0.508554  0  0.31147  0.296254  0  0.964511  0
H  H137  1  0.39912540  0.45408660  0.80281914  1  0.508567  0  0.31147  0.296208  0  0.964538  0
H  H138  1  0.89913009  0.45408595  0.69718099  1  0.508571  0  0.311433  0.29612  0  0.964662  0
H  H139  1  0.60087783  0.54591238  0.19718064  1  0.508553  0  0.311447  0.296239  0  0.964483  0
H  H140  1  0.01345737  0.79137879  0.07400033  1  0.05962  0  0.102668  0.084819  0  0.98331  0
H  H141  1  0.48654233  0.20862233  0.57399757  1  0.059543  0  0.102674  0.084785  0  0.983261  0
H  H142  1  0.98653755  0.20862089  0.92599999  1  0.059819  0  0.102697  0.084864  0  0.983328  0
H  H143  1  0.51345724  0.79137667  0.42600384  1  0.059957  0  0.102688  0.084804  0  0.983334  0
H  H144  1  0.90203849  0.73100339  0.05930156  1  0.07511  0  0.106501  0.087131  0  0.987523  0
H  H145  1  0.59796149  0.26899834  0.55929882  1  0.075058  0  0.10645  0.087028  0  0.987605  0
H  H146  1  0.09795673  0.26899886  0.94070094  1  0.075129  0  0.106475  0.087095  0  0.987601  0
H  H147  1  0.40203709  0.73100131  0.44070097  1  0.075039  0  0.106475  0.087107  0  0.987524  0
H  H148  1  0.85971951  0.77034959  0.17562777  1  0.026619  0  0.100286  0.075086  0  0.966627  0
H  H149  1  0.64028025  0.22965333  0.67562505  1  0.026619  0  0.100282  0.075071  0  0.966708  0
H  H150  1  0.14027936  0.22965264  0.82437635  1  0.026642  0  0.100288  0.075078  0  0.966663  0
H  H151  1  0.35972167  0.77034888  0.32437474  1  0.026674  0  0.100264  0.075024  0  0.966642  0
H  H152  1  0.96978351  0.78573937  0.19826809  1  0.063914  0  0.109178  0.091955  0  1.001514  0
H  H153  1  0.53021791  0.21426480  0.69826648  1  0.063924  0  0.109121  0.091875  0  1.001543  0
H  H154  1  0.03021786  0.21426477  0.80173169  1  0.063901  0  0.109174  0.09191  0  1.001542  0
H  H155  1  0.46978522  0.78573740  0.30173493  1  0.063917  0  0.109146  0.091864  0  1.00152  0
H  H156  1  0.95465064  0.88204504  0.99372637  1  0.505162  0  0.314567  0.293179  0  0.956219  0
H  H157  1  0.54534997  0.11795692  0.49372465  1  0.505193  0  0.314523  0.293109  0  0.956364  0
H  H158  1  0.04534573  0.11795527  0.00627504  1  0.50519  0  0.314566  0.293136  0  0.956305  0
H  H159  1  0.45465066  0.88204336  0.50627622  1  0.505169  0  0.31455  0.293148  0  0.956331  0
H  H160  1  0.93530309  0.92843398  0.20759889  1  0.471435  0  0.324664  0.299461  0  0.927076  0
H  H161  1  0.56469810  0.07156954  0.70759681  1  0.469461  0  0.324674  0.2994  0  0.927242  0
H  H162  1  0.06469767  0.07157016  0.79240306  1  0.469455  0  0.324691  0.299475  0  0.927178  0
H  H163  1  0.43530504  0.92843266  0.29240460  1  0.471535  0  0.324717  0.299466  0  0.92711  0
C  C164  1  0.27110318  0.07193662  0.73833964  1  0.019907  0  -0.024855  -0.052594  0  4.01023  0
C  C165  1  0.22889584  0.92806435  0.23834121  1  0.0199  0  -0.0249  -0.05283  0  4.010482  0
C  C166  1  0.72889662  0.92806302  0.26165960  1  0.01989  0  -0.024863  -0.052647  0  4.01022  0
C  C167  1  0.77110258  0.07193659  0.76165857  1  0.01978  0  -0.024917  -0.052761  0  4.010301  0
C  C168  1  0.35158749  0.10025551  0.77332594  1  -0.027132  0  -0.078376  -0.108595  0  3.943571  0
C  C169  1  0.14841174  0.89974607  0.27332808  1  -0.02751  0  -0.078327  -0.108472  0  3.94342  0
C  C170  1  0.64841148  0.89974350  0.22667330  1  -0.027375  0  -0.078431  -0.108729  0  3.943437  0
C  C171  1  0.85158668  0.10025487  0.72667333  1  -0.027116  0  -0.078316  -0.108482  0  3.943511  0
C  C172  1  0.37624076  0.04408279  0.81718490  1  -0.015414  0  -0.021555  -0.035679  0  4.004545  0
C  C173  1  0.12375966  0.95591874  0.31718809  1  -0.015523  0  -0.021585  -0.03573  0  4.004611  0
C  C174  1  0.62375897  0.95591493  0.18281434  1  -0.015299  0  -0.021536  -0.035593  0  4.004485  0
C  C175  1  0.87624097  0.04408154  0.68281548  1  -0.015424  0  -0.021548  -0.035634  0  4.00453  0
C  C176  1  0.32020723  0.95979686  0.82557416  1  -0.017431  0  -0.071998  -0.114419  0  3.90242  0
C  C177  1  0.17979463  0.04020529  0.32557626  1  -0.017609  0  -0.072021  -0.114468  0  3.902509  0
C  C178  1  0.67979256  0.04020279  0.17442617  1  -0.017408  0  -0.071995  -0.114424  0  3.902345  0
C  C179  1  0.82020668  0.95979692  0.67442624  1  -0.01744  0  -0.072007  -0.114456  0  3.902471  0
C  C180  1  0.23899383  0.93020148  0.79125079  1  0.037072  0  -0.004496  0.066526  0  3.991802  0
C  C181  1  0.26100638  0.06979943  0.29125232  1  0.03699  0  -0.004504  0.066473  0  3.991821  0
C  C182  1  0.76100574  0.06979752  0.20875008  1  0.037078  0  -0.004544  0.066393  0  3.991821  0
C  C183  1  0.73899281  0.93020022  0.70874801  1  0.036637  0  -0.004493  0.066511  0  3.991916  0
C  C184  1  0.21475437  0.98697894  0.74685889  1  -0.053229  0  -0.073904  -0.125947  0  3.898371  0
C  C185  1  0.28524464  0.01302202  0.24685882  1  -0.053047  0  -0.073862  -0.125773  0  3.898337  0
C  C186  1  0.78524436  0.01301943  0.25314198  1  -0.053237  0  -0.073881  -0.125802  0  3.898422  0
C  C187  1  0.71475371  0.98697699  0.75313988  1  -0.053042  0  -0.073903  -0.125891  0  3.89844  0
C  C188  1  0.18136602  0.84176364  0.80769624  1  -0.069494  0  -0.005757  0.070228  0  3.998291  0
C  C189  1  0.31863456  0.15823661  0.30769608  1  -0.069788  0  -0.005769  0.070214  0  3.998231  0
C  C190  1  0.81863377  0.15823600  0.19230571  1  -0.069453  0  -0.005727  0.070374  0  3.9982  0
C  C191  1  0.68136745  0.84176238  0.69230371  1  -0.069149  0  -0.005742  0.07017  0  3.998369  0
C  C192  1  0.18049525  0.81330644  0.87931103  1  -0.003959  0  -0.071433  -0.115406  0  3.891726  0
C  C193  1  0.31950627  0.18669824  0.37931031  1  -0.00374  0  -0.07133  -0.115295  0  3.891687  0
C  C194  1  0.81950455  0.18669320  0.12069201  1  -0.004099  0  -0.071465  -0.115487  0  3.891719  0
C  C195  1  0.68049808  0.81330395  0.62069002  1  -0.003922  0  -0.071479  -0.115321  0  3.891733  0
C  C196  1  0.12954053  0.73035182  0.89976437  1  -0.09718  0  -0.0167  -0.032019  0  3.99083  0
C  C197  1  0.37046290  0.26964961  0.39976251  1  -0.097052  0  -0.016747  -0.032105  0  3.990932  0
C  C198  1  0.87045943  0.26964654  0.10023487  1  -0.097072  0  -0.016696  -0.031984  0  3.990848  0
C  C199  1  0.62954404  0.73035127  0.60023511  1  -0.097172  0  -0.016767  -0.032297  0  3.991256  0
C  C200  1  0.07727536  0.67467139  0.84836029  1  -0.014128  0  -0.070178  -0.095894  0  3.909046  0
C  C201  1  0.42272733  0.32533138  0.34835947  1  -0.014266  0  -0.070184  -0.095851  0  3.908941  0
C  C202  1  0.92272200  0.32532827  0.15163895  1  -0.013695  0  -0.070173  -0.095867  0  3.908944  0
C  C203  1  0.57727939  0.67466886  0.65163760  1  -0.0141  0  -0.070175  -0.095815  0  3.908919  0
C  C204  1  0.07793764  0.70188505  0.77669676  1  -0.006947  0  -0.020272  -0.049821  0  4.007459  0
C  C205  1  0.42206478  0.29811522  0.27669325  1  -0.007167  0  -0.020278  -0.049917  0  4.007338  0
C  C206  1  0.92205805  0.29811334  0.22330357  1  -0.007075  0  -0.02037  -0.049873  0  4.007432  0
C  C207  1  0.57794050  0.70188439  0.72330491  1  -0.006994  0  -0.020228  -0.049751  0  4.007141  0
C  C208  1  0.12964661  0.78515034  0.75610313  1  -0.008207  0  -0.074014  -0.127028  0  3.911969  0
C  C209  1  0.37035492  0.21484738  0.25610293  1  -0.008231  0  -0.073952  -0.126864  0  3.911734  0
C  C210  1  0.87035251  0.21484738  0.24389882  1  -0.008538  0  -0.073898  -0.126964  0  3.911866  0
C  C211  1  0.62964625  0.78515097  0.74389577  1  -0.008224  0  -0.073955  -0.126883  0  3.911837  0
C  C212  1  0.24807133  0.13536900  0.69245019  1  1.564673  0  0.220593  0.595489  0  4.19071  0
C  C213  1  0.25192581  0.86463009  0.19245179  1  1.564993  0  0.220554  0.595606  0  4.191032  0
C  C214  1  0.75192908  0.86463064  0.30754906  1  1.565002  0  0.220628  0.595528  0  4.190596  0
C  C215  1  0.74807132  0.13536893  0.80754962  1  1.565004  0  0.220617  0.595525  0  4.1906  0
C  C216  1  0.46095407  0.07306007  0.85646182  1  1.535997  0  0.215696  0.59437  0  4.176802  0
C  C217  1  0.03904557  0.92694271  0.35646451  1  1.536495  0  0.21566  0.594269  0  4.176842  0
C  C218  1  0.53904589  0.92693828  0.14353688  1  1.536006  0  0.215586  0.594128  0  4.176925  0
C  C219  1  0.96095429  0.07305886  0.64353799  1  1.536002  0  0.215637  0.594234  0  4.176856  0
C  C220  1  0.13405435  0.70087671  0.97516555  1  1.512882  0  0.224318  0.607203  0  4.135016  0
C  C221  1  0.36594622  0.29912531  0.47516367  1  1.514086  0  0.224335  0.607303  0  4.13496  0
C  C222  1  0.86594553  0.29911971  0.02483369  1  1.512856  0  0.224192  0.607043  0  4.135297  0
C  C223  1  0.63405615  0.70087818  0.52483503  1  1.512906  0  0.224356  0.607327  0  4.135093  0
C  C224  1  0.02421399  0.63701250  0.72448352  1  1.531669  0  0.227286  0.577269  0  4.135807  0
C  C225  1  0.47579125  0.36299230  0.22448700  1  1.531846  0  0.227097  0.576981  0  4.136336  0
C  C226  1  0.97578321  0.36298846  0.27551519  1  1.531508  0  0.227165  0.576961  0  4.136123  0
C  C227  1  0.52421130  0.63700475  0.77551170  1  1.532368  0  0.227087  0.57691  0  4.136384  0
C  C228  1  0.10622400  0.23167015  0.38320015  1  -0.025634  0  -0.017815  -0.039123  0  3.964148  0
C  C229  1  0.39377936  0.76832936  0.88320302  1  -0.025856  0  -0.017859  -0.039363  0  3.964159  0
C  C230  1  0.89377595  0.76832821  0.61680018  1  -0.025624  0  -0.017852  -0.039303  0  3.964205  0
C  C231  1  0.60622255  0.23167284  0.11679947  1  -0.026104  0  -0.017875  -0.03933  0  3.964161  0
C  C232  1  0.06571547  0.18389362  0.32243706  1  -0.02592  0  -0.070415  -0.096376  0  3.898647  0
C  C233  1  0.43428549  0.81610596  0.82244044  1  -0.025144  0  -0.070396  -0.096281  0  3.89848  0
C  C234  1  0.93428661  0.81610729  0.67756056  1  -0.025764  0  -0.070394  -0.096203  0  3.898522  0
C  C235  1  0.56571315  0.18389562  0.17756097  1  -0.025512  0  -0.070405  -0.096384  0  3.898573  0
C  C236  1  0.08832048  0.21856128  0.25289717  1  -0.014403  0  -0.020881  -0.055192  0  4.003703  0
C  C237  1  0.41167983  0.78143644  0.75289950  1  -0.01475  0  -0.020791  -0.055065  0  4.003418  0
C  C238  1  0.91167985  0.78143643  0.74710045  1  -0.014468  0  -0.020844  -0.055221  0  4.003626  0
C  C239  1  0.58831753  0.21856322  0.24710300  1  -0.014216  0  -0.02086  -0.055045  0  4.003573  0
C  C240  1  0.14804089  0.30165820  0.24530541  1  -0.076659  0  -0.072954  -0.122076  0  3.922496  0
C  C241  1  0.35196301  0.69833758  0.74530888  1  -0.076921  0  -0.073062  -0.122133  0  3.922408  0
C  C242  1  0.85196271  0.69834013  0.75469329  1  -0.076615  0  -0.073046  -0.122204  0  3.922511  0
C  C243  1  0.64803550  0.30166014  0.25469470  1  -0.078904  0  -0.07303  -0.122272  0  3.922547  0
C  C244  1  0.18806193  0.35055259  0.30546623  1  0.002872  0  -0.003342  0.073623  0  3.994204  0
C  C245  1  0.31194361  0.64944441  0.80547189  1  0.002689  0  -0.003395  0.073546  0  3.99431  0
C  C246  1  0.81194061  0.64944446  0.69453248  1  0.002805  0  -0.003282  0.073768  0  3.994069  0
C  C247  1  0.68805839  0.35055458  0.19453439  1  0.002841  0  -0.003308  0.073735  0  3.994039  0
C  C248  1  0.16785061  0.31393319  0.37437189  1  -0.01375  0  -0.069625  -0.110128  0  3.883595  0
C  C249  1  0.33215314  0.68606568  0.87437537  1  -0.032535  0  -0.069521  -0.109928  0  3.88352  0
C  C250  1  0.83215246  0.68606707  0.62562789  1  -0.032578  0  -0.069594  -0.110095  0  3.883641  0
C  C251  1  0.66784992  0.31393458  0.12562875  1  -0.0137  0  -0.069606  -0.11005  0  3.883479  0
C  C252  1  0.25080079  0.43802084  0.29397055  1  -0.063767  0  -0.005221  0.066689  0  3.985058  0
C  C253  1  0.24920255  0.56197683  0.79397682  1  -0.063723  0  -0.00517  0.066681  0  3.98494  0
C  C254  1  0.74920076  0.56197686  0.70602707  1  -0.063719  0  -0.005184  0.066618  0  3.985012  0
C  C255  1  0.75080083  0.43802086  0.20603055  1  -0.06378  0  -0.005197  0.066584  0  3.985028  0
C  C256  1  0.23373199  0.49149055  0.24152329  1  -0.048627  0  -0.073557  -0.12804  0  3.901855  0
C  C257  1  0.26626598  0.50850399  0.74152959  1  -0.048466  0  -0.07356  -0.127959  0  3.9018  0
C  C258  1  0.76626523  0.50850526  0.75847379  1  -0.048108  0  -0.07356  -0.12801  0  3.901919  0
C  C259  1  0.73373618  0.49149371  0.25847832  1  -0.048988  0  -0.073563  -0.127906  0  3.901848  0
C  C260  1  0.29473529  0.57254715  0.22739594  1  0.021209  0  -0.02463  -0.050325  0  4.026397  0
C  C261  1  0.20525933  0.42745000  0.72740121  1  0.020736  0  -0.024678  -0.050411  0  4.026545  0
C  C262  1  0.70526078  0.42745059  0.77260060  1  0.020491  0  -0.024649  -0.0504  0  4.026541  0
C  C263  1  0.79473841  0.57254902  0.27260453  1  0.021591  0  -0.0246  -0.050386  0  4.026579  0
C  C264  1  0.37386775  0.59984960  0.26401464  1  -0.097804  0  -0.077447  -0.1065  0  3.950088  0
C  C265  1  0.12612760  0.40015137  0.76401886  1  -0.097551  0  -0.077299  -0.106377  0  3.949939  0
C  C266  1  0.62612740  0.40015072  0.73598406  1  -0.097529  0  -0.077288  -0.106253  0  3.949829  0
C  C267  1  0.87387210  0.59985150  0.23598471  1  -0.097876  0  -0.07741  -0.106438  0  3.950033  0
C  C268  1  0.39103813  0.54793772  0.31702300  1  -0.001721  0  -0.018863  -0.035441  0  3.986206  0
C  C269  1  0.10895940  0.45206254  0.81702720  1  -0.001808  0  -0.018998  -0.035656  0  3.986223  0
C  C270  1  0.60895923  0.45206194  0.68297516  1  -0.001748  0  -0.01896  -0.035673  0  3.986289  0
C  C271  1  0.89104085  0.54793839  0.18297746  1  -0.0017  0  -0.018885  -0.035475  0  3.986151  0
C  C272  1  0.32882252  0.46792501  0.33287538  1  0.023308  0  -0.071308  -0.116005  0  3.898114  0
C  C273  1  0.17117882  0.53207392  0.83288114  1  0.023278  0  -0.071237  -0.115806  0  3.897877  0
C  C274  1  0.67117773  0.53207592  0.66712224  1  0.023284  0  -0.071308  -0.115917  0  3.897983  0
C  C275  1  0.82882228  0.46792249  0.16712514  1  0.023335  0  -0.071291  -0.11596  0  3.897985  0
C  C276  1  0.08547329  0.19466194  0.45798498  1  1.559976  0  0.223671  0.609051  0  4.140766  0
C  C277  1  0.41452995  0.80534072  0.95798783  1  1.559688  0  0.223672  0.609092  0  4.140808  0
C  C278  1  0.91452475  0.80533965  0.54201319  1  1.559758  0  0.223612  0.609138  0  4.140689  0
C  C279  1  0.58547386  0.19466340  0.04201412  1  1.559857  0  0.223711  0.609153  0  4.140694  0
C  C280  1  0.05259345  0.16977184  0.18518199  1  1.538952  0  0.230324  0.586636  0  4.121512  0
C  C281  1  0.44740452  0.83022790  0.68518482  1  1.538947  0  0.230355  0.58653  0  4.121404  0
C  C282  1  0.94740512  0.83022782  0.81481834  1  1.539038  0  0.230457  0.586829  0  4.121432  0
C  C283  1  0.55259139  0.16977113  0.31481713  1  1.539188  0  0.230325  0.586573  0  4.121458  0
C  C284  1  0.27604085  0.63280547  0.17530831  1  1.56651  0  0.220464  0.594426  0  4.201025  0
C  C285  1  0.22395258  0.36719173  0.67530982  1  1.566698  0  0.220317  0.594116  0  4.201493  0
C  C286  1  0.72395189  0.36718972  0.82469040  1  1.566621  0  0.220416  0.594269  0  4.201291  0
C  C287  1  0.77604728  0.63280984  0.32469321  1  1.566685  0  0.220308  0.594221  0  4.201405  0
C  C288  1  0.47662180  0.57710445  0.35468701  1  1.567307  0  0.226864  0.611549  0  4.148863  0
C  C289  1  0.02337646  0.42289963  0.85469015  1  1.566735  0  0.226923  0.6117  0  4.148805  0
C  C290  1  0.52337668  0.42289842  0.64531006  1  1.567258  0  0.22688  0.611668  0  4.148953  0
C  C291  1  0.97662203  0.57710324  0.14531180  1  1.567282  0  0.226882  0.611613  0  4.14899  0
C  C292  1  0.18683301  0.00939611  0.53219411  1  1.83113  0  0.332075  0.642043  0  4.191269  0
C  C293  1  0.31316715  0.99060633  0.03219454  1  1.831186  0  0.332028  0.641947  0  4.191318  0
C  C294  1  0.81316746  0.99060546  0.46780405  1  1.831186  0  0.332154  0.642246  0  4.19104  0
C  C295  1  0.68683309  0.00939460  0.96780524  1  1.831182  0  0.332045  0.641957  0  4.191185  0
C  C296  1  0.31744816  0.99211324  0.56358925  1  0.258095  0  -0.056578  -0.015692  0  3.850353  0
C  C297  1  0.18255434  0.00789238  0.06359029  1  0.258175  0  -0.056501  -0.015518  0  3.850196  0
C  C298  1  0.68255511  0.00789282  0.43640620  1  0.258519  0  -0.056524  -0.015528  0  3.850001  0
C  C299  1  0.81744447  0.99210792  0.93640679  1  0.258544  0  -0.056487  -0.015486  0  3.850084  0
C  C300  1  0.24447871  0.90331906  0.56046149  1  0.303405  0  -0.048898  -0.006424  0  3.881591  0
C  C301  1  0.25552433  0.09668463  0.06046517  1  0.306928  0  -0.048985  -0.006695  0  3.881564  0
C  C302  1  0.75552571  0.09668506  0.43953017  1  0.30702  0  -0.048906  -0.006515  0  3.881495  0
C  C303  1  0.74447386  0.90331567  0.93953191  1  0.307011  0  -0.048931  -0.006611  0  3.881558  0
C  C304  1  0.64159737  0.42577984  0.46776415  1  1.860057  0  0.336443  0.641387  0  4.186257  0
C  C305  1  0.85840363  0.57422150  0.96776390  1  1.860058  0  0.336427  0.641384  0  4.186324  0
C  C306  1  0.35839877  0.57421983  0.53223617  1  1.860003  0  0.336442  0.641388  0  4.186278  0
C  C307  1  0.14159951  0.42578070  0.03223588  1  1.860042  0  0.336442  0.641446  0  4.186205  0
C  C308  1  0.79090758  0.49293568  0.45938489  1  0.294387  0  -0.057292  -0.017517  0  3.856355  0
C  C309  1  0.70909198  0.50706504  0.95938253  1  0.293992  0  -0.057342  -0.017588  0  3.856463  0
C  C310  1  0.20908818  0.50706464  0.54061977  1  0.293963  0  -0.057314  -0.01754  0  3.856413  0
C  C311  1  0.29091055  0.49293716  0.04061508  1  0.294236  0  -0.057292  -0.017515  0  3.85635  0
C  C312  1  0.76788206  0.39565270  0.44506532  1  0.346801  0  -0.049027  -0.00772  0  3.87413  0
C  C313  1  0.73211911  0.60434737  0.94506399  1  0.346838  0  -0.04905  -0.00772  0  3.874169  0
C  C314  1  0.23211530  0.60434696  0.55493609  1  0.346787  0  -0.049033  -0.00772  0  3.874078  0
C  C315  1  0.26788486  0.39565546  0.05493363  1  0.346731  0  -0.049024  -0.007737  0  3.874137  0
C  C316  1  0.05911346  0.54594626  0.40595576  1  1.801599  0  0.333066  0.62036  0  4.217698  0
C  C317  1  0.44088678  0.45405132  0.90595610  1  1.801625  0  0.333035  0.620477  0  4.217639  0
C  C318  1  0.94089258  0.45405205  0.59404403  1  1.801698  0  0.33308  0.620466  0  4.217782  0
C  C319  1  0.55911475  0.54595153  0.09404314  1  1.801641  0  0.333032  0.620429  0  4.217844  0
C  C320  1  0.06813562  0.68863303  0.41382691  1  0.28979  0  -0.050294  -0.009038  0  3.869454  0
C  C321  1  0.43186379  0.31136391  0.91382843  1  0.289724  0  -0.050261  -0.0089  0  3.869407  0
C  C322  1  0.93186503  0.31136211  0.58616908  1  0.290406  0  -0.05019  -0.008729  0  3.869396  0
C  C323  1  0.56813434  0.68863446  0.08617352  1  0.289896  0  -0.050211  -0.008857  0  3.8694  0
C  C324  1  0.09666910  0.67032703  0.33742919  1  0.284195  0  -0.053655  -0.012664  0  3.851215  0
C  C325  1  0.40332928  0.32966870  0.83743178  1  0.284379  0  -0.053735  -0.012866  0  3.851406  0
C  C326  1  0.90333126  0.32966553  0.66256735  1  0.28428  0  -0.053749  -0.012955  0  3.851489  0
C  C327  1  0.59666824  0.67032967  0.16257125  1  0.284246  0  -0.053718  -0.012816  0  3.851155  0
C  C328  1  0.94475974  0.93002047  0.09535207  1  1.831403  0  0.330787  0.614389  0  4.2217  0
C  C329  1  0.55524067  0.06998251  0.59535108  1  1.831389  0  0.33075  0.614291  0  4.221828  0
C  C330  1  0.05523898  0.06998304  0.90464772  1  1.83142  0  0.330815  0.614407  0  4.221576  0
C  C331  1  0.44476141  0.93001840  0.40465088  1  1.831624  0  0.330686  0.614274  0  4.221732  0
C  C332  1  0.94677098  0.79137636  0.08114625  1  0.312805  0  -0.053013  -0.010642  0  3.854252  0
C  C333  1  0.55322959  0.20862535  0.58114355  1  0.312639  0  -0.052977  -0.010488  0  3.854193  0
C  C334  1  0.05322561  0.20862460  0.91885516  1  0.312699  0  -0.053019  -0.010661  0  3.854317  0
C  C335  1  0.44677142  0.79137428  0.41885732  1  0.312134  0  -0.053027  -0.010635  0  3.854141  0
C  C336  1  0.92798892  0.80532214  0.16111805  1  0.348116  0  -0.05157  -0.014089  0  3.877273  0
C  C337  1  0.57201162  0.19467949  0.66111698  1  0.348128  0  -0.051511  -0.014003  0  3.87725  0
C  C338  1  0.07201079  0.19468072  0.83888282  1  0.348104  0  -0.051535  -0.013968  0  3.877065  0
C  C339  1  0.42799046  0.80532142  0.33888388  1  0.348119  0  -0.051486  -0.013837  0  3.87697  0
N  N340  1  0.16663988  0.92711836  0.55549927  1  -1.24705  0  -0.434665  -0.41988  0  3.457726  0
N  N341  1  0.33336287  0.07288275  0.05550133  1  -1.247134  0  -0.434636  -0.419734  0  3.457753  0
N  N342  1  0.83336386  0.07288383  0.44449618  1  -1.247419  0  -0.434719  -0.419933  0  3.457696  0
N  N343  1  0.66663638  0.92711883  0.94449738  1  -1.247403  0  -0.434638  -0.41976  0  3.457763  0
N  N344  1  0.27453641  0.04805280  0.53193466  1  -1.196582  0  -0.433947  -0.410947  0  3.449092  0
N  N345  1  0.22546421  0.95195093  0.03193513  1  -1.196653  0  -0.433957  -0.411069  0  3.448875  0
N  N346  1  0.72546458  0.95195199  0.46806350  1  -1.196591  0  -0.434025  -0.411237  0  3.448921  0
N  N347  1  0.77453642  0.04804935  0.96806357  1  -1.196655  0  -0.433982  -0.411051  0  3.448859  0
N  N348  1  0.67336016  0.36648846  0.44025748  1  -1.285008  0  -0.43172  -0.4222  0  3.4878  0
N  N349  1  0.82663873  0.63351035  0.94025719  1  -1.285036  0  -0.431727  -0.422262  0  3.487863  0
N  N350  1  0.32663636  0.63351056  0.55974448  1  -1.285139  0  -0.431803  -0.422265  0  3.487804  0
N  N351  1  0.17336395  0.36649057  0.05974151  1  -1.285054  0  -0.431722  -0.422203  0  3.487785  0
N  N352  1  0.70882782  0.49742936  0.48670581  1  -1.235296  0  -0.438768  -0.421746  0  3.453888  0
N  N353  1  0.79117105  0.50256941  0.98670507  1  -1.235282  0  -0.438741  -0.421691  0  3.453775  0
N  N354  1  0.29116665  0.50256904  0.51329776  1  -1.234745  0  -0.438774  -0.421751  0  3.453942  0
N  N355  1  0.20883125  0.49743215  0.01329471  1  -1.235368  0  -0.438786  -0.421734  0  3.453898  0
N  N356  1  0.03361116  0.60245080  0.44442785  1  -1.243683  0  -0.432457  -0.413037  0  3.49453  0
N  N357  1  0.46638922  0.39754546  0.94442985  1  -1.243718  0  -0.432512  -0.413158  0  3.494313  0
N  N358  1  0.96639375  0.39754430  0.55557086  1  -1.244188  0  -0.432572  -0.41334  0  3.494446  0
N  N359  1  0.53361262  0.60245481  0.05556994  1  -1.243852  0  -0.432518  -0.413165  0  3.494509  0
N  N360  1  0.10455543  0.58523729  0.34627531  1  -1.165906  0  -0.438776  -0.429216  0  3.424597  0
N  N361  1  0.39544728  0.41476033  0.84627731  1  -1.166028  0  -0.438735  -0.429127  0  3.42471  0
N  N362  1  0.89545321  0.41475972  0.65372447  1  -1.165875  0  -0.438729  -0.429039  0  3.424512  0
N  N363  1  0.60455479  0.58524059  0.15372301  1  -1.165857  0  -0.438728  -0.429205  0  3.424584  0
N  N364  1  0.93551080  0.86633177  0.04595031  1  -1.211036  0  -0.431763  -0.420668  0  3.446376  0
N  N365  1  0.56449123  0.13367061  0.54594766  1  -1.211021  0  -0.431728  -0.420641  0  3.446492  0
N  N366  1  0.06448641  0.13366918  0.95405110  1  -1.211387  0  -0.431769  -0.420642  0  3.446438  0
N  N367  1  0.43551046  0.86633095  0.45405321  1  -1.2111  0  -0.431729  -0.420664  0  3.446476  0
N  N368  1  0.94701005  0.89804196  0.16315447  1  -1.216864  0  -0.434304  -0.418701  0  3.465168  0
N  N369  1  0.55299176  0.10196160  0.66315238  1  -1.214742  0  -0.434282  -0.418588  0  3.465406  0
N  N370  1  0.05298965  0.10196091  0.83684586  1  -1.214779  0  -0.434369  -0.418773  0  3.465266  0
N  N371  1  0.44701114  0.89803996  0.33684849  1  -1.216842  0  -0.434331  -0.418726  0  3.465184  0
O  O372  1  0.17212535  0.11188754  0.66466729  1  -1.166711  0  -0.308718  -0.543094  0  2.376776  0
O  O373  1  0.32787491  0.88811349  0.16467103  1  -1.166951  0  -0.308669  -0.543104  0  2.376747  0
O  O374  1  0.82787269  0.88811405  0.33533141  1  -1.167009  0  -0.3087  -0.543051  0  2.376725  0
O  O375  1  0.67212687  0.11188486  0.83533255  1  -1.167014  0  -0.308728  -0.543079  0  2.376692  0
O  O376  1  0.30636452  0.20855126  0.68541899  1  -1.205926  0  -0.321289  -0.571326  0  2.425503  0
O  O377  1  0.19363558  0.79145104  0.18541902  1  -1.205935  0  -0.321284  -0.57138  0  2.425834  0
O  O378  1  0.69363582  0.79144645  0.31458025  1  -1.205937  0  -0.321324  -0.571375  0  2.4255  0
O  O379  1  0.80636489  0.20855053  0.81458185  1  -1.205905  0  -0.321295  -0.571329  0  2.425466  0
O  O380  1  0.50669899  0.15302777  0.85191770  1  -1.161868  0  -0.31556  -0.548848  0  2.326298  0
O  O381  1  0.99330024  0.84697370  0.35192252  1  -1.162068  0  -0.315588  -0.548828  0  2.326225  0
O  O382  1  0.49330035  0.84697060  0.14808100  1  -1.161985  0  -0.315533  -0.548776  0  2.3264  0
O  O383  1  0.00669879  0.15302724  0.64808052  1  -1.161834  0  -0.315578  -0.548835  0  2.326319  0
O  O384  1  0.48296787  0.01771878  0.89097587  1  -1.187953  0  -0.315548  -0.574661  0  2.394392  0
O  O385  1  0.01703220  0.98228526  0.39097744  1  -1.188058  0  -0.31549  -0.574538  0  2.394353  0
O  O386  1  0.51703026  0.98227959  0.10902338  1  -1.187933  0  -0.315469  -0.574481  0  2.394289  0
O  O387  1  0.98296811  0.01771760  0.60902343  1  -1.188001  0  -0.315477  -0.574544  0  2.394344  0
O  O388  1  0.15288899  0.75797107  0.02602136  1  -1.156849  0  -0.310268  -0.55687  0  2.319377  0
O  O389  1  0.34710949  0.24203525  0.52601914  1  -1.158054  0  -0.310208  -0.556831  0  2.319538  0
O  O390  1  0.84711051  0.24202600  0.97397842  1  -1.156975  0  -0.310211  -0.556808  0  2.319588  0
O  O391  1  0.65288724  0.75796957  0.47397902  1  -1.156893  0  -0.310247  -0.556841  0  2.319431  0
O  O392  1  0.12214855  0.62255243  0.98865705  1  -1.192318  0  -0.304503  -0.58952  0  2.331035  0
O  O393  1  0.37785125  0.37745087  0.48865134  1  -1.192506  0  -0.304543  -0.589584  0  2.330891  0
O  O394  1  0.87784829  0.37744402  0.01134328  1  -1.192285  0  -0.304436  -0.589412  0  2.330877  0
O  O395  1  0.62214907  0.62255199  0.51134520  1  -1.192432  0  -0.304519  -0.589576  0  2.330963  0
O  O396  1  0.97372247  0.56644440  0.74449645  1  -1.168192  0  -0.287771  -0.499495  0  2.170068  0
O  O397  1  0.52627561  0.43355202  0.24449347  1  -1.168343  0  -0.287611  -0.499234  0  2.170624  0
O  O398  1  0.02626909  0.43355788  0.25550171  1  -1.168169  0  -0.287706  -0.499425  0  2.170217  0
O  O399  1  0.47372985  0.56644114  0.75550469  1  -1.168385  0  -0.287567  -0.499225  0  2.170762  0
O  O400  1  0.03676871  0.66047048  0.65506658  1  -1.187071  0  -0.344584  -0.502106  0  2.287876  0
O  O401  1  0.46323277  0.33953055  0.15506195  1  -1.18673  0  -0.344566  -0.502092  0  2.287749  0
O  O402  1  0.96323284  0.33952722  0.34493267  1  -1.18711  0  -0.34453  -0.501965  0  2.287944  0
O  O403  1  0.53676664  0.66046974  0.84493512  1  -1.187419  0  -0.344578  -0.502092  0  2.287719  0
O  O404  1  0.01518412  0.13289432  0.46908636  1  -1.201355  0  -0.31202  -0.585679  0  2.332633  0
O  O405  1  0.48481729  0.86710834  0.96908808  1  -1.201202  0  -0.312015  -0.585621  0  2.332736  0
O  O406  1  0.98481461  0.86710404  0.53091126  1  -1.20116  0  -0.312024  -0.585703  0  2.332679  0
O  O407  1  0.51518508  0.13289515  0.03091333  1  -1.201294  0  -0.312041  -0.585733  0  2.332633  0
O  O408  1  0.14226509  0.22964816  0.50703306  1  -1.148293  0  -0.316722  -0.550614  0  2.341407  0
O  O409  1  0.35773814  0.77035429  0.00703362  1  -1.148342  0  -0.316733  -0.550608  0  2.34141  0
O  O410  1  0.85772997  0.77035538  0.49296780  1  -1.148359  0  -0.316657  -0.550642  0  2.341383  0
O  O411  1  0.64226545  0.22964919  0.99296671  1  -1.148433  0  -0.316726  -0.55062  0  2.341429  0
O  O412  1  0.99321115  0.09314615  0.19609536  1  -1.191069  0  -0.330497  -0.493733  0  2.335518  0
O  O413  1  0.50678542  0.90685290  0.69609767  1  -1.191018  0  -0.330432  -0.493473  0  2.335674  0
O  O414  1  0.00678682  0.90685351  0.80390334  1  -1.191028  0  -0.33047  -0.493663  0  2.335576  0
O  O415  1  0.49321293  0.09314611  0.30390428  1  -1.191046  0  -0.330437  -0.493597  0  2.335691  0
O  O416  1  0.07724189  0.19821825  0.12363517  1  -1.171575  0  -0.301986  -0.519902  0  2.118297  0
O  O417  1  0.42275390  0.80178221  0.62363586  1  -1.171516  0  -0.302055  -0.519947  0  2.118236  0
O  O418  1  0.92275538  0.80178463  0.87636191  1  -1.171622  0  -0.302136  -0.520101  0  2.118585  0
O  O419  1  0.57724361  0.19821617  0.37636610  1  -1.171576  0  -0.302034  -0.519948  0  2.11819  0
O  O420  1  0.19867337  0.61041705  0.15020691  1  -1.163729  0  -0.314808  -0.540456  0  2.379019  0
O  O421  1  0.30132029  0.38958082  0.65020732  1  -1.163683  0  -0.314734  -0.540296  0  2.37915  0
O  O422  1  0.80132104  0.38957942  0.84979287  1  -1.163677  0  -0.314747  -0.540341  0  2.378998  0
O  O423  1  0.69867873  0.61042012  0.34979571  1  -1.16374  0  -0.314732  -0.540328  0  2.379045  0
O  O424  1  0.33783212  0.70145621  0.16099464  1  -1.197231  0  -0.316566  -0.564127  0  2.410072  0
O  O425  1  0.16216054  0.29854230  0.66099512  1  -1.197337  0  -0.316503  -0.563959  0  2.410226  0
O  O426  1  0.66216258  0.29854283  0.83900298  1  -1.197353  0  -0.316616  -0.564085  0  2.410197  0
O  O427  1  0.83783688  0.70145929  0.33900629  1  -1.197352  0  -0.31652  -0.564051  0  2.410263  0
O  O428  1  0.52627713  0.65473290  0.34275642  1  -1.165946  0  -0.31208  -0.544003  0  2.331902  0
O  O429  1  0.97371935  0.34527117  0.84275845  1  -1.165776  0  -0.312087  -0.544041  0  2.331858  0
O  O430  1  0.47372036  0.34527063  0.65724174  1  -1.165831  0  -0.312072  -0.544041  0  2.331912  0
O  O431  1  0.02627664  0.65472979  0.15724187  1  -1.165876  0  -0.312043  -0.544021  0  2.331982  0
O  O432  1  0.49717981  0.52456757  0.39399375  1  -1.19896  0  -0.314896  -0.578125  0  2.456674  0
O  O433  1  0.00281699  0.47543585  0.89399686  1  -1.198668  0  -0.31491  -0.578175  0  2.456729  0
O  O434  1  0.50282012  0.47543594  0.60600170  1  -1.199115  0  -0.314891  -0.57813  0  2.456723  0
O  O435  1  0.99717922  0.52456576  0.10600509  1  -1.199091  0  -0.31495  -0.578166  0  2.456685  0
O  O436  1  0.13410124  0.04571240  0.51247195  1  -1.196299  0  -0.313815  -0.590663  0  2.375319  0
O  O437  1  0.36589909  0.95428877  0.01247132  1  -1.196281  0  -0.313781  -0.590595  0  2.37523  0
O  O438  1  0.86589779  0.95428853  0.48752891  1  -1.19628  0  -0.313792  -0.590678  0  2.37525  0
O  O439  1  0.63410199  0.04571280  0.98752955  1  -1.196308  0  -0.31378  -0.590588  0  2.375223  0
O  O440  1  0.56184722  0.41384269  0.47591213  1  -1.176511  0  -0.311253  -0.561467  0  2.314147  0
O  O441  1  0.93815172  0.58615801  0.97591456  1  -1.176495  0  -0.31121  -0.561458  0  2.314338  0
O  O442  1  0.43814748  0.58615635  0.52408495  1  -1.176492  0  -0.311202  -0.561457  0  2.314132  0
O  O443  1  0.06185058  0.41384354  0.02408630  1  -1.176462  0  -0.311211  -0.561506  0  2.314188  0
O  O444  1  0.04452806  0.46829918  0.42393395  1  -1.21262  0  -0.314995  -0.574998  0  2.261483  0
O  O445  1  0.45547362  0.53169902  0.92393479  1  -1.212582  0  -0.314981  -0.575061  0  2.261558  0
O  O446  1  0.95547906  0.53169526  0.57606638  1  -1.212595  0  -0.314935  -0.574909  0  2.261849  0
O  O447  1  0.54453256  0.46830316  0.07606554  1  -1.212541  0  -0.314969  -0.575001  0  2.261586  0
O  O448  1  0.95057557  0.00623503  0.08065795  1  -1.193124  0  -0.310977  -0.551588  0  2.204767  0
O  O449  1  0.54942568  0.99376861  0.58065804  1  -1.193032  0  -0.310961  -0.551483  0  2.204719  0
O  O450  1  0.04942369  0.99376655  0.91934184  1  -1.193034  0  -0.310987  -0.551576  0  2.204546  0
O  O451  1  0.45057639  0.00623231  0.41934283  1  -1.193088  0  -0.310942  -0.551498  0  2.204639  0
