# generated using pymatgen
data_CaH19C21N3O8
_symmetry_space_group_name_H-M   'P 1'
_cell_length_a   13.62620020
_cell_length_b   21.07983435
_cell_length_c   21.08239516
_cell_angle_alpha   83.98902638
_cell_angle_beta   71.15326316
_cell_angle_gamma   71.15674882
_symmetry_Int_Tables_number   1
_chemical_formula_structural   CaH19C21N3O8
_chemical_formula_sum   'Ca8 H152 C168 N24 O64'
_cell_volume   5423.84866994
_cell_formula_units_Z   8
loop_
 _symmetry_equiv_pos_site_id
 _symmetry_equiv_pos_as_xyz
  1  'x, y, z'
loop_
 _atom_site_type_symbol
 _atom_site_label
 _atom_site_symmetry_multiplicity
 _atom_site_fract_x
 _atom_site_fract_y
 _atom_site_fract_z
 _atom_site_occupancy
 _atom_site_pbe_bader_charge
 _atom_site_pbe_bader_spin_density
 _atom_site_pbe_cm5_charge
 _atom_site_pbe_ddec_charge
 _atom_site_pbe_ddec_spin_density
 _atom_site_pbe_ddec_sum_bond_order
 _atom_site_pbe_magmom
Ca  Ca0  1  0.62786634  0.18304076  0.80519833  1  1.650818  0  0.869564  1.396229  0  1.480822  0
Ca  Ca1  1  0.43312485  0.19471827  0.68302706  1  1.65129  0  0.869058  1.396714  0  1.480343  0
Ca  Ca2  1  0.11608221  0.31696770  0.69477230  1  1.651023  0  0.869874  1.396939  0  1.480163  0
Ca  Ca3  1  0.81093203  0.30526959  0.81693098  1  1.650601  0  0.86916  1.396744  0  1.479229  0
Ca  Ca4  1  0.37213322  0.81695874  0.19480494  1  1.65077  0  0.86955  1.396218  0  1.480807  0
Ca  Ca5  1  0.56687242  0.80527872  0.31697588  1  1.651326  0  0.869062  1.396824  0  1.480185  0
Ca  Ca6  1  0.88392259  0.68303231  0.30522702  1  1.651028  0  0.869877  1.396948  0  1.480185  0
Ca  Ca7  1  0.18907278  0.69473342  0.18306994  1  1.6506  0  0.869177  1.396701  0  1.479337  0
H  H8  1  0.21876590  0.24438377  0.80813421  1  0.11961  0  0.124095  0.114059  0  1.055951  0
H  H9  1  0.02667412  0.19187407  0.74432582  1  0.118451  0  0.124491  0.113456  0  1.055949  0
H  H10  1  0.77131601  0.25553589  0.69177499  1  0.12147  0  0.12447  0.113872  0  1.055761  0
H  H11  1  0.46319007  0.30812783  0.75558618  1  0.118182  0  0.124265  0.113755  0  1.056015  0
H  H12  1  0.78123398  0.75561624  0.19186382  1  0.119628  0  0.124082  0.113986  0  1.055948  0
H  H13  1  0.97332269  0.80812744  0.25567221  1  0.118517  0  0.124504  0.113436  0  1.055931  0
H  H14  1  0.22868677  0.74446512  0.30822273  1  0.121729  0  0.124477  0.113875  0  1.055739  0
H  H15  1  0.53681346  0.69187167  0.24441155  1  0.118177  0  0.124263  0.11376  0  1.056024  0
H  H16  1  0.96717768  0.26059173  0.99706987  1  0.036704  0  0.10685  0.110896  0  1.026751  0
H  H17  1  0.96371973  0.00296735  0.76065408  1  0.085666  0  0.10773  0.112734  0  1.026973  0
H  H18  1  0.72485780  0.23913322  0.50286105  1  0.086857  0  0.107438  0.112292  0  1.027084  0
H  H19  1  0.22736095  0.49695601  0.73960039  1  0.064095  0  0.106608  0.110248  0  1.02715  0
H  H20  1  0.03282732  0.73940777  0.00293183  1  0.03651  0  0.106879  0.110919  0  1.026674  0
H  H21  1  0.03627735  0.99703315  0.23934807  1  0.085695  0  0.107731  0.112752  0  1.026975  0
H  H22  1  0.27514434  0.76086378  0.49713778  1  0.086885  0  0.107441  0.112275  0  1.027015  0
H  H23  1  0.77264208  0.50304449  0.26039734  1  0.076099  0  0.106608  0.110222  0  1.02715  0
H  H24  1  0.29934383  0.23112703  0.99091245  1  0.107576  0  0.112832  0.122915  0  0.998191  0
H  H25  1  0.28981447  0.00903033  0.73112125  1  0.116146  0  0.111844  0.121395  0  0.998681  0
H  H26  1  0.02119606  0.26895639  0.50896203  1  0.103564  0  0.112222  0.121912  0  0.997686  0
H  H27  1  0.53022326  0.49107105  0.76868226  1  0.106401  0  0.112503  0.122966  0  0.997939  0
H  H28  1  0.70066338  0.76887448  0.00908291  1  0.107623  0  0.112855  0.122892  0  0.998167  0
H  H29  1  0.71018132  0.99097218  0.26887963  1  0.116152  0  0.111847  0.121397  0  0.998648  0
H  H30  1  0.97880190  0.73104963  0.49103569  1  0.103588  0  0.112217  0.121907  0  0.997739  0
H  H31  1  0.46977725  0.50892845  0.23132006  1  0.106074  0  0.112506  0.122949  0  0.997881  0
H  H32  1  0.12795958  0.08025576  0.18882073  1  0.125122  0  0.122278  0.128916  0  0.987259  0
H  H33  1  0.31664294  0.81127412  0.58031773  1  0.123557  0  0.123187  0.129889  0  0.986373  0
H  H34  1  0.89709165  0.41964924  0.31108663  1  0.129995  0  0.122307  0.128836  0  0.987135  0
H  H35  1  0.20797243  0.68872122  0.91967798  1  0.122937  0  0.122325  0.129351  0  0.987089  0
H  H36  1  0.87204338  0.91974926  0.81117637  1  0.125271  0  0.122263  0.128946  0  0.987302  0
H  H37  1  0.68335672  0.18872539  0.41968077  1  0.123615  0  0.123191  0.129885  0  0.986339  0
H  H38  1  0.10290558  0.58035226  0.68891330  1  0.130028  0  0.122322  0.128872  0  0.987135  0
H  H39  1  0.79202919  0.31127928  0.08032117  1  0.122921  0  0.122337  0.129402  0  0.987112  0
H  H40  1  0.95802588  0.41813776  0.18441547  1  0.159386  0  0.120981  0.127207  0  0.986421  0
H  H41  1  0.14242098  0.81540403  0.91815000  1  0.128829  0  0.120556  0.126303  0  0.986493  0
H  H42  1  0.06061051  0.08178026  0.31547498  1  0.126261  0  0.120688  0.126652  0  0.986616  0
H  H43  1  0.37605613  0.68459582  0.58182767  1  0.125449  0  0.120446  0.126505  0  0.986682  0
H  H44  1  0.04196076  0.58186575  0.81558554  1  0.159136  0  0.121018  0.127161  0  0.986523  0
H  H45  1  0.85758788  0.18459597  0.08184679  1  0.128712  0  0.120547  0.126246  0  0.986522  0
H  H46  1  0.93938800  0.91822125  0.68452289  1  0.126181  0  0.120638  0.126582  0  0.986663  0
H  H47  1  0.62394255  0.31540318  0.41817052  1  0.125623  0  0.120471  0.126523  0  0.986643  0
H  H48  1  0.48433272  0.05756997  0.77575211  1  0.111568  0  0.132875  0.061262  0  1.006678  0
H  H49  1  0.26036974  0.22437123  0.55755847  1  0.113473  0  0.13297  0.061214  0  1.0074  0
H  H50  1  0.81782337  0.44261108  0.72421484  1  0.141445  0  0.132542  0.06158  0  1.006294  0
H  H51  1  0.54197561  0.27571968  0.94230856  1  0.147813  0  0.132991  0.06193  0  1.006065  0
H  H52  1  0.51567029  0.94242652  0.22424688  1  0.111573  0  0.132853  0.061238  0  1.006702  0
H  H53  1  0.73963024  0.77563028  0.44244337  1  0.113485  0  0.132972  0.06123  0  1.007381  0
H  H54  1  0.18217653  0.55738491  0.27578985  1  0.141285  0  0.13254  0.061554  0  1.006259  0
H  H55  1  0.45802099  0.72427932  0.05769327  1  0.147927  0  0.133003  0.061975  0  1.006016  0
H  H56  1  0.51263591  0.07560964  0.93684064  1  0.127766  0  0.11855  0.1369  0  1.007031  0
H  H57  1  0.44917856  0.06311483  0.57561227  1  0.120551  0  0.118039  0.136953  0  1.008464  0
H  H58  1  0.02502579  0.42430639  0.56313077  1  0.103765  0  0.11783  0.135589  0  1.007594  0
H  H59  1  0.58800841  0.43687983  0.92427454  1  0.106608  0  0.118608  0.137062  0  1.006494  0
H  H60  1  0.48736216  0.92438735  0.06316072  1  0.127938  0  0.118575  0.136976  0  1.007116  0
H  H61  1  0.55082389  0.93688618  0.42438657  1  0.120548  0  0.118029  0.136951  0  1.008498  0
H  H62  1  0.97497231  0.57569661  0.43687378  1  0.103878  0  0.117792  0.135553  0  1.007631  0
H  H63  1  0.41198678  0.56311916  0.07572872  1  0.106523  0  0.118629  0.137083  0  1.006334  0
H  H64  1  0.43874576  0.01663892  0.97239642  1  0.040281  0  0.102176  0.11004  0  1.003447  0
H  H65  1  0.41086852  0.02766502  0.51657179  1  0.05352  0  0.101537  0.110515  0  1.002732  0
H  H66  1  0.92787808  0.48331027  0.52749335  1  0.05224  0  0.101727  0.110122  0  1.003663  0
H  H67  1  0.45525099  0.47238294  0.98327426  1  0.053772  0  0.101472  0.110334  0  1.003014  0
H  H68  1  0.56125072  0.98335757  0.02760445  1  0.039917  0  0.102175  0.110067  0  1.003281  0
H  H69  1  0.58913332  0.97233599  0.48342689  1  0.053519  0  0.10152  0.110529  0  1.002804  0
H  H70  1  0.07211835  0.51669324  0.47251262  1  0.052199  0  0.101701  0.110084  0  1.003741  0
H  H71  1  0.54474514  0.52761606  0.01672805  1  0.053627  0  0.10148  0.110315  0  1.002969  0
H  H72  1  0.36723372  0.10384684  0.97250789  1  0.064803  0  0.101399  0.119007  0  1.010339  0
H  H73  1  0.33927274  0.02754634  0.60374814  1  0.073705  0  0.10247  0.12089  0  1.008989  0
H  H74  1  0.94334111  0.39613638  0.52753519  1  0.058852  0  0.1013  0.11869  0  1.011593  0
H  H75  1  0.47076331  0.47253567  0.89608661  1  0.060211  0  0.101296  0.117795  0  1.011318  0
H  H76  1  0.63276309  0.89614966  0.02749188  1  0.064731  0  0.101386  0.119035  0  1.010316  0
H  H77  1  0.66072887  0.97245416  0.39625101  1  0.073666  0  0.102467  0.120882  0  1.008991  0
H  H78  1  0.05665768  0.60386713  0.47246841  1  0.058687  0  0.101245  0.118605  0  1.011699  0
H  H79  1  0.52923368  0.52746282  0.10391585  1  0.060135  0  0.101297  0.117762  0  1.01133  0
H  H80  1  0.28235495  0.03452394  0.92730515  1  0.066916  0  0.107987  0.120007  0  1.007804  0
H  H81  1  0.20923702  0.07305376  0.53438083  1  0.039096  0  0.107373  0.119998  0  1.008706  0
H  H82  1  0.74397227  0.46576105  0.57274715  1  0.037386  0  0.108147  0.120742  0  1.007556  0
H  H83  1  0.31668044  0.42718766  0.96552023  1  0.074883  0  0.107255  0.119652  0  1.007975  0
H  H84  1  0.71764563  0.96547155  0.07269367  1  0.067075  0  0.107974  0.12001  0  1.007785  0
H  H85  1  0.79076582  0.92694674  0.46561865  1  0.039092  0  0.10736  0.120009  0  1.00866  0
H  H86  1  0.25602974  0.53423695  0.42725597  1  0.037256  0  0.108118  0.120696  0  1.007506  0
H  H87  1  0.68331619  0.57281034  0.03448208  1  0.07488  0  0.107263  0.119658  0  1.007917  0
H  H88  1  0.34793172  0.00164518  0.84449849  1  0.042893  0  0.10283  0.113475  0  0.990584  0
H  H89  1  0.19232586  0.15591176  0.50154563  1  0.063802  0  0.102962  0.113713  0  0.990259  0
H  H90  1  0.69410736  0.49853431  0.65559361  1  0.044048  0  0.10237  0.113044  0  0.99091  0
H  H91  1  0.34957625  0.34434900  0.99839553  1  0.044922  0  0.102456  0.11269  0  0.992252  0
H  H92  1  0.65207020  0.99834981  0.15550002  1  0.043097  0  0.102834  0.113481  0  0.990668  0
H  H93  1  0.80767503  0.84408925  0.49845400  1  0.063813  0  0.102968  0.11374  0  0.990236  0
H  H94  1  0.30589203  0.50146619  0.34440855  1  0.044123  0  0.102358  0.113025  0  0.990963  0
H  H95  1  0.65041948  0.65564900  0.00160534  1  0.044912  0  0.102461  0.112712  0  0.992233  0
H  H96  1  0.27699239  0.08896427  0.85701100  1  0.071596  0  0.106015  0.124899  0  1.002781  0
H  H97  1  0.13390761  0.14331798  0.58885467  1  0.087534  0  0.105229  0.124239  0  1.005265  0
H  H98  1  0.72283543  0.41125291  0.64299971  1  0.067359  0  0.105437  0.124064  0  1.005079  0
H  H99  1  0.36570248  0.35692080  0.91109825  1  0.077689  0  0.105151  0.124237  0  1.003952  0
H  H100  1  0.72300794  0.91103172  0.14298782  1  0.071552  0  0.106004  0.12489  0  1.002858  0
H  H101  1  0.86609392  0.85668202  0.41114559  1  0.087524  0  0.105206  0.124231  0  1.005281  0
H  H102  1  0.27716344  0.58874759  0.35700531  1  0.067342  0  0.105439  0.124064  0  1.005111  0
H  H103  1  0.63429615  0.64307820  0.08890231  1  0.077802  0  0.105212  0.124301  0  1.004029  0
H  H104  1  0.77327709  0.19395892  0.93407407  1  0.125533  0  0.131214  0.055068  0  1.020287  0
H  H105  1  0.70730787  0.06572085  0.69391156  1  0.124  0  0.131699  0.055833  0  1.020515  0
H  H106  1  0.40158326  0.30600582  0.56569760  1  0.129367  0  0.131111  0.055646  0  1.020921  0
H  H107  1  0.96756802  0.43417362  0.80611654  1  0.128157  0  0.131505  0.054775  0  1.021185  0
H  H108  1  0.22671375  0.80604008  0.06593044  1  0.125441  0  0.131244  0.055116  0  1.020208  0
H  H109  1  0.29268975  0.93427715  0.30608741  1  0.123951  0  0.131651  0.055769  0  1.020502  0
H  H110  1  0.59841632  0.69399468  0.43430282  1  0.12934  0  0.13107  0.055632  0  1.020942  0
H  H111  1  0.03243240  0.56582738  0.19388356  1  0.128159  0  0.131508  0.054783  0  1.02116  0
H  H112  1  0.75309237  0.03563089  0.89809343  1  0.100511  0  0.118096  0.135224  0  1.005923  0
H  H113  1  0.65105180  0.10197214  0.53564077  1  0.088213  0  0.11695  0.13482  0  1.005742  0
H  H114  1  0.18681215  0.46410872  0.60198037  1  0.100993  0  0.117229  0.13363  0  1.007319  0
H  H115  1  0.78877246  0.39798751  0.96419724  1  0.10555  0  0.116944  0.134312  0  1.006968  0
H  H116  1  0.24690831  0.96436761  0.10190223  1  0.100597  0  0.118113  0.135246  0  1.005914  0
H  H117  1  0.34894730  0.89802535  0.46435852  1  0.088218  0  0.116937  0.134835  0  1.005735  0
H  H118  1  0.81318786  0.53588978  0.39801750  1  0.101045  0  0.117215  0.133571  0  1.007386  0
H  H119  1  0.21122916  0.60201299  0.03580191  1  0.105511  0  0.116969  0.134337  0  1.007097  0
H  H120  1  0.78865477  0.00211091  0.97217893  1  0.045538  0  0.098371  0.109201  0  1.008631  0
H  H121  1  0.76056110  0.02790744  0.50204457  1  0.035543  0  0.098261  0.109069  0  1.008671  0
H  H122  1  0.26259104  0.49785427  0.52793303  1  0.048502  0  0.098165  0.108219  0  1.010097  0
H  H123  1  0.79063097  0.47205222  0.99782406  1  0.056922  0  0.098507  0.108684  0  1.008772  0
H  H124  1  0.21134437  0.99788508  0.02781719  1  0.045587  0  0.098352  0.109152  0  1.008654  0
H  H125  1  0.23943615  0.97209006  0.49795424  1  0.035596  0  0.098295  0.109144  0  1.008644  0
H  H126  1  0.73740915  0.50214473  0.47206675  1  0.048538  0  0.098162  0.108234  0  1.010014  0
H  H127  1  0.20937046  0.52794678  0.00217605  1  0.056806  0  0.0985  0.108691  0  1.008763  0
H  H128  1  0.89307989  0.99376534  0.89425765  1  0.068229  0  0.100191  0.113222  0  1.025538  0
H  H129  1  0.78720321  0.10580462  0.49376459  1  0.083015  0  0.100152  0.11378  0  1.025237  0
H  H130  1  0.28092735  0.50612375  0.60582620  1  0.060946  0  0.099636  0.113077  0  1.025102  0
H  H131  1  0.88663120  0.39412991  0.00628923  1  0.074233  0  0.098699  0.111564  0  1.025898  0
H  H132  1  0.10692025  0.00623416  0.10574038  1  0.068294  0  0.10017  0.113174  0  1.025574  0
H  H133  1  0.21279505  0.89419237  0.50623502  1  0.083007  0  0.100129  0.113754  0  1.025177  0
H  H134  1  0.71906949  0.49387826  0.39417309  1  0.061017  0  0.09966  0.113127  0  1.025115  0
H  H135  1  0.11336983  0.60586959  0.99371024  1  0.074232  0  0.098704  0.111553  0  1.025896  0
H  H136  1  0.92646863  0.14100226  0.94978920  1  0.090355  0  0.108047  0.126999  0  1.021263  0
H  H137  1  0.87617265  0.05001984  0.64095754  1  0.09155  0  0.107547  0.126683  0  1.021454  0
H  H138  1  0.51739703  0.35923196  0.54979458  1  0.094454  0  0.107648  0.126706  0  1.020951  0
H  H139  1  0.06757378  0.44981878  0.85938230  1  0.090269  0  0.107368  0.126999  0  1.020416  0
H  H140  1  0.07352738  0.85899574  0.05021294  1  0.090308  0  0.108035  0.12702  0  1.021238  0
H  H141  1  0.12382439  0.94997866  0.35904254  1  0.091537  0  0.107553  0.126717  0  1.021436  0
H  H142  1  0.48260264  0.64077055  0.45020552  1  0.094412  0  0.107615  0.126693  0  1.020974  0
H  H143  1  0.93242592  0.55018422  0.14061907  1  0.09001  0  0.107305  0.126967  0  1.020417  0
H  H144  1  0.99566556  0.05776579  0.91755269  1  0.079522  0  0.104055  0.126639  0  0.99152  0
H  H145  1  0.91319206  0.08228859  0.55773015  1  0.07402  0  0.104182  0.126812  0  0.992268  0
H  H146  1  0.47097390  0.44247127  0.58204078  1  0.076542  0  0.104247  0.126432  0  0.992784  0
H  H147  1  0.05320783  0.41750775  0.94263526  1  0.072087  0  0.104384  0.126817  0  0.993038  0
H  H148  1  0.00433020  0.94223271  0.08244945  1  0.079414  0  0.104048  0.126645  0  0.991484  0
H  H149  1  0.08680458  0.91771040  0.44226930  1  0.073945  0  0.104157  0.126775  0  0.992375  0
H  H150  1  0.52902499  0.55753023  0.41796138  1  0.076593  0  0.104251  0.126427  0  0.992839  0
H  H151  1  0.94679137  0.58249476  0.05736531  1  0.072087  0  0.104368  0.12679  0  0.99302  0
H  H152  1  0.91496447  0.06992626  0.00370151  1  0.05894  0  0.098635  0.117114  0  1.001934  0
H  H153  1  0.91849606  0.99614406  0.56991080  1  0.062538  0  0.098322  0.117086  0  1.002609  0
H  H154  1  0.48822744  0.43028265  0.49595121  1  0.063415  0  0.098531  0.117372  0  1.002631  0
H  H155  1  0.98474300  0.50367280  0.93039943  1  0.071779  0  0.098144  0.117627  0  1.002073  0
H  H156  1  0.08503056  0.93007124  0.99630031  1  0.059057  0  0.098626  0.1171  0  1.001999  0
H  H157  1  0.08150330  0.00385444  0.43008929  1  0.062768  0  0.098352  0.117127  0  1.002541  0
H  H158  1  0.51177460  0.56971936  0.50405064  1  0.063409  0  0.098541  0.117381  0  1.002602  0
H  H159  1  0.01525600  0.49632821  0.06960209  1  0.071763  0  0.098163  0.117632  0  1.002075  0
C  C160  1  0.38980621  0.22000067  0.85770112  1  1.598594  0  0.210353  0.580392  0  4.247338  0
C  C161  1  0.24722813  0.14229685  0.72002877  1  1.599858  0  0.212252  0.58077  0  4.247899  0
C  C162  1  0.96747673  0.27993723  0.64221912  1  1.592301  0  0.20929  0.577356  0  4.247051  0
C  C163  1  0.60983833  0.35778797  0.77982165  1  1.595412  0  0.209612  0.577843  0  4.249897  0
C  C164  1  0.61019708  0.77999933  0.14229661  1  1.598478  0  0.210418  0.580461  0  4.247398  0
C  C165  1  0.75277029  0.85770315  0.27997307  1  1.600145  0  0.212362  0.580974  0  4.247774  0
C  C166  1  0.03252333  0.72006327  0.35778082  1  1.591803  0  0.209236  0.577301  0  4.247217  0
C  C167  1  0.39016168  0.64221103  0.22017988  1  1.595288  0  0.209549  0.577805  0  4.249872  0
C  C168  1  0.99888937  0.26721949  0.86485045  1  1.581157  0  0.208452  0.580612  0  4.244423  0
C  C169  1  0.86350232  0.13520857  0.76717626  1  1.587929  0  0.210272  0.580991  0  4.240492  0
C  C170  1  0.63096681  0.23268237  0.63511261  1  1.577938  0  0.208999  0.582491  0  4.242972  0
C  C171  1  0.26602087  0.36474643  0.73289505  1  1.588478  0  0.210283  0.582843  0  4.2418  0
C  C172  1  0.00111158  0.73278102  0.13515093  1  1.581411  0  0.208422  0.580573  0  4.244439  0
C  C173  1  0.13649346  0.86479294  0.23282748  1  1.587995  0  0.21027  0.580954  0  4.240405  0
C  C174  1  0.36904062  0.76730961  0.36488575  1  1.57719  0  0.208899  0.582466  0  4.243009  0
C  C175  1  0.73398204  0.63525207  0.26710537  1  1.588006  0  0.210167  0.582635  0  4.24189  0
C  C176  1  0.27101099  0.23495291  0.89575510  1  0.017539  0  -0.008891  -0.014778  0  3.968903  0
C  C177  1  0.16648512  0.10422266  0.73494105  1  0.034113  0  -0.010647  -0.017122  0  3.9665  0
C  C178  1  0.90169103  0.26499460  0.60413292  1  -0.052314  0  -0.008952  -0.014287  0  3.968133  0
C  C179  1  0.50590934  0.39583615  0.76493902  1  0.01857  0  -0.007996  -0.015249  0  3.970201  0
C  C180  1  0.72899190  0.76504760  0.10424199  1  0.017622  0  -0.008853  -0.014801  0  3.968966  0
C  C181  1  0.83351103  0.89577884  0.26505919  1  0.033853  0  -0.010666  -0.01722  0  3.966603  0
C  C182  1  0.09830649  0.73501042  0.39586575  1  -0.052292  0  -0.008914  -0.014329  0  3.968183  0
C  C183  1  0.49409239  0.60416385  0.23505950  1  0.018526  0  -0.008033  -0.015372  0  3.970215  0
C  C184  1  0.19347105  0.24481989  0.86263234  1  -0.00562  0  -0.060142  -0.09854  0  3.892509  0
C  C185  1  0.05586358  0.13736308  0.74477818  1  -0.046228  0  -0.059357  -0.094926  0  3.889333  0
C  C186  1  0.80095466  0.25508858  0.63727090  1  -0.036079  0  -0.059526  -0.09588  0  3.88984  0
C  C187  1  0.43825575  0.36264317  0.75518028  1  0.003444  0  -0.061459  -0.097958  0  3.892117  0
C  C188  1  0.80653216  0.75517961  0.13736650  1  -0.005821  0  -0.060095  -0.098384  0  3.892318  0
C  C189  1  0.94413522  0.86263843  0.25522096  1  -0.046181  0  -0.059312  -0.094837  0  3.889314  0
C  C190  1  0.19904503  0.74491493  0.36272634  1  -0.036477  0  -0.059579  -0.095922  0  3.889756  0
C  C191  1  0.56174948  0.63735633  0.24481729  1  0.003474  0  -0.061479  -0.098077  0  3.891987  0
C  C192  1  0.08401899  0.25483413  0.89913427  1  0.008519  0  -0.007236  -0.0069  0  3.964911  0
C  C193  1  0.98286200  0.10087277  0.75480685  1  -0.023927  0  -0.009845  -0.011236  0  3.968388  0
C  C194  1  0.73802047  0.24501375  0.60077757  1  -0.016136  0  -0.007974  -0.009798  0  3.965907  0
C  C195  1  0.33869375  0.39908727  0.74527554  1  -0.00872  0  -0.008668  -0.009662  0  3.966709  0
C  C196  1  0.91598385  0.74516638  0.10086521  1  0.008582  0  -0.007218  -0.006893  0  3.964866  0
C  C197  1  0.01713603  0.89912774  0.24519435  1  -0.023953  0  -0.009866  -0.011214  0  3.968455  0
C  C198  1  0.26197977  0.75498675  0.39922063  1  -0.016132  0  -0.007943  -0.009757  0  3.965875  0
C  C199  1  0.66131062  0.60091423  0.25472267  1  -0.008767  0  -0.008635  -0.009372  0  3.966421  0
C  C200  1  0.05228957  0.25426200  0.96910779  1  -0.01024  0  -0.077082  -0.164865  0  3.941691  0
C  C201  1  0.02095660  0.03089353  0.75428883  1  -0.051132  0  -0.077757  -0.166172  0  3.943045  0
C  C202  1  0.77564389  0.24554475  0.53080486  1  -0.034722  0  -0.077031  -0.165648  0  3.941526  0
C  C203  1  0.30623255  0.46906556  0.74585641  1  -0.037718  0  -0.076396  -0.162872  0  3.940101  0
C  C204  1  0.94771595  0.74573901  0.03089185  1  -0.00997  0  -0.077112  -0.164883  0  3.94163  0
C  C205  1  0.97904371  0.96910647  0.24571111  1  -0.051149  0  -0.077766  -0.166207  0  3.943063  0
C  C206  1  0.22435661  0.75445525  0.46919333  1  -0.034704  0  -0.077019  -0.165606  0  3.941405  0
C  C207  1  0.69377254  0.53093394  0.25414053  1  -0.049734  0  -0.0764  -0.162939  0  3.939972  0
C  C208  1  0.12952385  0.24667847  0.00142997  1  0.315969  0  0.080305  0.178873  0  4.069504  0
C  C209  1  0.13049824  0.99855283  0.74667387  1  0.379587  0  0.07903  0.176038  0  4.071221  0
C  C210  1  0.87753483  0.25323359  0.49847483  1  0.336207  0  0.080392  0.176879  0  4.069644  0
C  C211  1  0.37587563  0.50143852  0.75332272  1  0.262239  0  0.079201  0.17558  0  4.067309  0
C  C212  1  0.87048114  0.75332454  0.99856919  1  0.315939  0  0.080293  0.178709  0  4.069505  0
C  C213  1  0.86949782  0.00144667  0.25332669  1  0.37958  0  0.079036  0.176003  0  4.071341  0
C  C214  1  0.12246636  0.74676841  0.50152321  1  0.33595  0  0.080438  0.176967  0  4.069469  0
C  C215  1  0.62412830  0.49856048  0.24667564  1  0.262238  0  0.079225  0.175619  0  4.067231  0
C  C216  1  0.23840396  0.23744147  0.96574176  1  -0.024114  0  -0.076698  -0.169324  0  3.947445  0
C  C217  1  0.20373432  0.03423822  0.73742780  1  -0.06107  0  -0.073618  -0.164267  0  3.945947  0
C  C218  1  0.94146536  0.26255173  0.53415231  1  0.062338  0  -0.076238  -0.167452  0  3.946102  0
C  C219  1  0.47564906  0.46582016  0.76244272  1  -0.033128  0  -0.075299  -0.166692  0  3.945695  0
C  C220  1  0.76160245  0.76256004  0.03425519  1  -0.024158  0  -0.076731  -0.169239  0  3.947407  0
C  C221  1  0.79626314  0.96576229  0.26257086  1  -0.061253  0  -0.073631  -0.164239  0  3.946218  0
C  C222  1  0.05853082  0.73745379  0.46584667  1  0.062626  0  -0.076261  -0.167488  0  3.946081  0
C  C223  1  0.52435342  0.53417984  0.23755659  1  -0.032732  0  -0.0753  -0.166607  0  3.945511  0
C  C224  1  0.04856744  0.31109346  0.10461493  1  1.321149  0  0.24591  0.438943  0  4.103301  0
C  C225  1  0.15303219  0.89529708  0.81109365  1  1.320148  0  0.244354  0.440037  0  4.10143  0
C  C226  1  0.96408004  0.18883309  0.39527433  1  1.351217  0  0.24583  0.44075  0  4.100407  0
C  C227  1  0.35922987  0.60469625  0.68888871  1  1.320492  0  0.246783  0.437761  0  4.102589  0
C  C228  1  0.95142776  0.68891155  0.89538373  1  1.321611  0  0.245869  0.438784  0  4.103598  0
C  C229  1  0.84697218  0.10470292  0.18890376  1  1.320278  0  0.244483  0.440246  0  4.101456  0
C  C230  1  0.03591974  0.81117042  0.60472593  1  1.351182  0  0.245881  0.440718  0  4.100453  0
C  C231  1  0.64077185  0.39530375  0.31110981  1  1.320463  0  0.246766  0.437716  0  4.102664  0
C  C232  1  0.11251794  0.18521453  0.10630587  1  1.292348  0  0.245409  0.437822  0  4.10143  0
C  C233  1  0.21862017  0.89369911  0.68523700  1  1.297465  0  0.245223  0.437794  0  4.103279  0
C  C234  1  0.90423164  0.31470434  0.39357329  1  1.387956  0  0.247348  0.439396  0  4.098664  0
C  C235  1  0.29730337  0.60630404  0.81475808  1  1.411529  0  0.247158  0.438355  0  4.100666  0
C  C236  1  0.88749270  0.81479149  0.89369158  1  1.288719  0  0.245402  0.437699  0  4.101767  0
C  C237  1  0.78137344  0.10630039  0.31476292  1  1.297505  0  0.24526  0.437755  0  4.103166  0
C  C238  1  0.09577032  0.68529917  0.60642635  1  1.387986  0  0.247184  0.439187  0  4.098839  0
C  C239  1  0.70269607  0.39369646  0.18524170  1  1.411459  0  0.24717  0.438454  0  4.1006  0
C  C240  1  0.08805719  0.12741489  0.21636781  1  -0.0135  0  -0.060404  -0.067699  0  3.917236  0
C  C241  1  0.30432708  0.78367094  0.62746479  1  -0.010325  0  -0.061757  -0.070075  0  3.915439  0
C  C242  1  0.93194615  0.37249321  0.28352598  1  -0.012707  0  -0.059739  -0.067142  0  3.915076  0
C  C243  1  0.21524792  0.71632048  0.87252499  1  -0.009314  0  -0.059921  -0.0682  0  3.915227  0
C  C244  1  0.91194348  0.87258912  0.78362976  1  -0.013769  0  -0.060456  -0.067814  0  3.917117  0
C  C245  1  0.69567241  0.21632956  0.37253261  1  -0.010314  0  -0.061757  -0.069996  0  3.915397  0
C  C246  1  0.06805031  0.62750929  0.71647268  1  -0.012631  0  -0.059724  -0.067136  0  3.91496  0
C  C247  1  0.78475540  0.28367852  0.12747321  1  -0.009342  0  -0.05989  -0.068245  0  3.915171  0
C  C248  1  0.07471243  0.18709441  0.18044063  1  0.092482  0  -0.002784  -0.061678  0  3.989394  0
C  C249  1  0.25502875  0.81956016  0.68713735  1  0.049002  0  -0.003872  -0.061957  0  3.989232  0
C  C250  1  0.94239291  0.31281346  0.31944939  1  -0.036461  0  -0.003934  -0.061401  0  3.989311  0
C  C251  1  0.26145757  0.68043451  0.81285787  1  -0.061072  0  -0.004275  -0.062578  0  3.990787  0
C  C252  1  0.92528975  0.81290960  0.81955852  1  0.092581  0  -0.002749  -0.061644  0  3.989515  0
C  C253  1  0.74497236  0.18043984  0.31286100  1  0.049017  0  -0.00392  -0.062139  0  3.989396  0
C  C254  1  0.05760768  0.68719006  0.68054929  1  -0.036904  0  -0.003996  -0.061407  0  3.989402  0
C  C255  1  0.73854539  0.31956549  0.18714097  1  -0.061008  0  -0.004293  -0.062633  0  3.990638  0
C  C256  1  0.96639775  0.37164904  0.21316553  1  -0.049447  0  -0.061679  -0.067687  0  3.916404  0
C  C257  1  0.17945918  0.78668773  0.87166838  1  -0.064082  0  -0.060751  -0.064176  0  3.914028  0
C  C258  1  0.05126071  0.12826890  0.28672813  1  -0.055725  0  -0.061267  -0.066912  0  3.91794  0
C  C259  1  0.33788413  0.71331003  0.62831752  1  0.000977  0  -0.060445  -0.065287  0  3.915388  0
C  C260  1  0.03359689  0.62835397  0.78683392  1  -0.049131  0  -0.061663  -0.067634  0  3.916526  0
C  C261  1  0.82054743  0.21331177  0.12833015  1  -0.06396  0  -0.060758  -0.064142  0  3.914026  0
C  C262  1  0.94873853  0.87173361  0.71327006  1  -0.05565  0  -0.061151  -0.066751  0  3.917768  0
C  C263  1  0.66211495  0.28668998  0.37168210  1  0.000826  0  -0.060451  -0.06528  0  3.915274  0
C  C264  1  0.01244310  0.31107566  0.17878450  1  0.013829  0  -0.004162  -0.064289  0  3.989861  0
C  C265  1  0.19106526  0.82112802  0.81109636  1  0.01886  0  -0.003221  -0.065835  0  3.990275  0
C  C266  1  0.00230317  0.18884064  0.32109961  1  0.051286  0  -0.004211  -0.064814  0  3.992277  0
C  C267  1  0.32322009  0.67887350  0.68889111  1  -0.041832  0  -0.004412  -0.064253  0  3.991036  0
C  C268  1  0.98754937  0.68892885  0.82121637  1  0.012951  0  -0.004237  -0.064348  0  3.990043  0
C  C269  1  0.80893686  0.17887149  0.18890280  1  0.018763  0  -0.00319  -0.065769  0  3.990166  0
C  C270  1  0.99769633  0.81116136  0.67889858  1  0.051171  0  -0.004247  -0.064876  0  3.992499  0
C  C271  1  0.67677812  0.32112700  0.31110834  1  -0.041842  0  -0.004503  -0.064367  0  3.99088  0
C  C272  1  0.02552615  0.24951492  0.21428570  1  -0.171637  0  0.003603  0.030987  0  3.998133  0
C  C273  1  0.23963038  0.78566514  0.74955044  1  0.062739  0  0.003513  0.030504  0  3.999885  0
C  C274  1  0.98941900  0.25039729  0.28559734  1  0.020179  0  0.003771  0.028687  0  4.00176  0
C  C275  1  0.27475284  0.71432937  0.75042941  1  -0.091687  0  0.003354  0.02887  0  4.000843  0
C  C276  1  0.97447393  0.75048809  0.78571218  1  -0.170653  0  0.003631  0.031065  0  3.998219  0
C  C277  1  0.76037051  0.21433436  0.25044839  1  0.062701  0  0.003482  0.030529  0  3.999958  0
C  C278  1  0.01057909  0.74960572  0.71439942  1  0.020206  0  0.003719  0.028613  0  4.001978  0
C  C279  1  0.72524673  0.28566963  0.24957021  1  -0.091658  0  0.003376  0.028934  0  4.000614  0
C  C280  1  0.50363246  0.06347861  0.82143420  1  1.381729  0  0.186146  0.313045  0  4.105722  0
C  C281  1  0.32518271  0.17859333  0.56347226  1  1.373753  0  0.183518  0.311186  0  4.110976  0
C  C282  1  0.88864787  0.43659747  0.67849615  1  1.343208  0  0.185241  0.311523  0  4.107125  0
C  C283  1  0.56705047  0.32145575  0.93639969  1  1.343255  0  0.185904  0.313266  0  4.105979  0
C  C284  1  0.49636865  0.93651788  0.17856669  1  1.382215  0  0.186178  0.313197  0  4.105845  0
C  C285  1  0.67481715  0.82140718  0.43652942  1  1.373625  0  0.183498  0.311133  0  4.111114  0
C  C286  1  0.11135092  0.56340103  0.32150918  1  1.343425  0  0.185249  0.311667  0  4.107174  0
C  C287  1  0.43294533  0.67854325  0.06360373  1  1.343284  0  0.185815  0.313143  0  4.105968  0
C  C288  1  0.43736092  0.06355324  0.94394925  1  0.239417  0  -0.132365  -0.274475  0  3.897538  0
C  C289  1  0.38100436  0.05608558  0.56348938  1  0.220118  0  -0.133066  -0.278151  0  3.89904  0
C  C290  1  0.94478354  0.43643129  0.55600670  1  0.251687  0  -0.130881  -0.272891  0  3.898357  0
C  C291  1  0.50067868  0.44397117  0.93635342  1  0.253578  0  -0.132053  -0.274488  0  3.898675  0
C  C292  1  0.56263528  0.93644325  0.05605036  1  0.239378  0  -0.132385  -0.274599  0  3.897387  0
C  C293  1  0.61899690  0.94391593  0.43651040  1  0.220178  0  -0.133035  -0.278141  0  3.899088  0
C  C294  1  0.05521642  0.56357072  0.44399880  1  0.251643  0  -0.130786  -0.272791  0  3.898308  0
C  C295  1  0.49931856  0.55602683  0.06364905  1  0.253982  0  -0.132055  -0.274377  0  3.898332  0
C  C296  1  0.32833562  0.04482411  0.87631590  1  0.27086  0  -0.129379  -0.269013  0  3.903248  0
C  C297  1  0.20448631  0.12399230  0.54470759  1  0.253558  0  -0.130027  -0.270911  0  3.90764  0
C  C298  1  0.74939897  0.45538083  0.62371609  1  0.29164  0  -0.13011  -0.270666  0  3.9075  0
C  C299  1  0.37303730  0.37621270  0.95519675  1  0.252605  0  -0.127902  -0.267968  0  3.907214  0
C  C300  1  0.67166680  0.95517138  0.12368340  1  0.270104  0  -0.129277  -0.268917  0  3.903327  0
C  C301  1  0.79551484  0.87600820  0.45529203  1  0.253515  0  -0.130033  -0.270983  0  3.907669  0
C  C302  1  0.25059915  0.54461967  0.37628813  1  0.291682  0  -0.130074  -0.270686  0  3.90759  0
C  C303  1  0.62695782  0.62378680  0.04480476  1  0.252561  0  -0.127924  -0.267991  0  3.907271  0
C  C304  1  0.75335183  0.14922574  0.92594127  1  1.357849  0  0.182204  0.304238  0  4.114627  0
C  C305  1  0.67924314  0.07388703  0.64918858  1  1.365182  0  0.180866  0.303447  0  4.118339  0
C  C306  1  0.32873232  0.35067932  0.57394924  1  1.343195  0  0.182353  0.302508  0  4.116159  0
C  C307  1  0.90285963  0.42597386  0.85076870  1  1.340732  0  0.182954  0.307161  0  4.115431  0
C  C308  1  0.24664312  0.85077125  0.07406166  1  1.357853  0  0.182072  0.304141  0  4.114691  0
C  C309  1  0.32075457  0.92610796  0.35081182  1  1.36514  0  0.18088  0.303532  0  4.118213  0
C  C310  1  0.67126807  0.64932268  0.42605039  1  1.343183  0  0.182412  0.302455  0  4.115893  0
C  C311  1  0.09714105  0.57402815  0.14923220  1  1.341242  0  0.182978  0.307132  0  4.115503  0
C  C312  1  0.81439838  0.02702756  0.92388751  1  0.27109  0  -0.136637  -0.277221  0  3.908972  0
C  C313  1  0.73812288  0.07613163  0.52700664  1  0.261858  0  -0.133823  -0.276096  0  3.906648  0
C  C314  1  0.26516939  0.47287076  0.57615150  1  0.255123  0  -0.134324  -0.273569  0  3.907801  0
C  C315  1  0.84134692  0.42379020  0.97294882  1  0.242404  0  -0.133356  -0.272371  0  3.906391  0
C  C316  1  0.18560063  0.97297144  0.07610957  1  0.270984  0  -0.136634  -0.277109  0  3.908839  0
C  C317  1  0.26187488  0.92386486  0.47299218  1  0.261871  0  -0.133794  -0.276156  0  3.906625  0
C  C318  1  0.73483129  0.52712924  0.42384494  1  0.254983  0  -0.134321  -0.27359  0  3.907797  0
C  C319  1  0.15865495  0.57621131  0.02705113  1  0.242736  0  -0.133376  -0.27242  0  3.906508  0
C  C320  1  0.92116666  0.08984909  0.95259390  1  0.236414  0  -0.13307  -0.28209  0  3.897518  0
C  C321  1  0.87366090  0.04725598  0.58980618  1  0.235145  0  -0.133439  -0.283482  0  3.899735  0
C  C322  1  0.46355275  0.41033170  0.54707051  1  0.235528  0  -0.13399  -0.284066  0  3.900801  0
C  C323  1  0.01096338  0.45257235  0.91046107  1  0.230129  0  -0.134145  -0.285139  0  3.900279  0
C  C324  1  0.07883111  0.91014891  0.04740571  1  0.23644  0  -0.133035  -0.282077  0  3.897624  0
C  C325  1  0.12633712  0.95274152  0.41019343  1  0.23493  0  -0.133447  -0.283522  0  3.899821  0
C  C326  1  0.53644789  0.58966981  0.45292912  1  0.235578  0  -0.133996  -0.284106  0  3.900904  0
C  C327  1  0.98903682  0.54742966  0.08954030  1  0.230477  0  -0.134098  -0.285106  0  3.900256  0
N  N328  1  0.09561708  0.24778303  0.07363891  1  -1.21407  0  -0.230366  -0.221937  0  3.610827  0
N  N329  1  0.16883840  0.92632753  0.74779039  1  -1.216727  0  -0.230406  -0.22191  0  3.611466  0
N  N330  1  0.91694354  0.25213900  0.42625815  1  -1.23999  0  -0.231937  -0.221918  0  3.609345  0
N  N331  1  0.34297551  0.57367730  0.75219349  1  -1.153418  0  -0.231649  -0.220323  0  3.609425  0
N  N332  1  0.90438790  0.75222248  0.92636057  1  -1.214065  0  -0.230264  -0.22161  0  3.610566  0
N  N333  1  0.83116254  0.07367348  0.25220686  1  -1.216779  0  -0.230381  -0.22186  0  3.611382  0
N  N334  1  0.08305401  0.74786501  0.57374099  1  -1.239677  0  -0.231906  -0.221829  0  3.609129  0
N  N335  1  0.65702708  0.42632220  0.24780518  1  -1.153451  0  -0.231709  -0.220351  0  3.609411  0
N  N336  1  0.42749175  0.05632191  0.87858297  1  -1.202018  0  -0.284368  0.016013  0  3.692901  0
N  N337  1  0.30599962  0.12153379  0.55619842  1  -1.184829  0  -0.280936  0.020014  0  3.693176  0
N  N338  1  0.86234943  0.44382857  0.62138532  1  -1.177021  0  -0.282293  0.018778  0  3.692669  0
N  N339  1  0.48365164  0.37855810  0.94362093  1  -1.201739  0  -0.283472  0.017272  0  3.694074  0
N  N340  1  0.57250763  0.94367408  0.12141680  1  -1.201849  0  -0.284476  0.015832  0  3.693038  0
N  N341  1  0.69400236  0.87846721  0.44380089  1  -1.184711  0  -0.280925  0.020024  0  3.693078  0
N  N342  1  0.13765053  0.55617193  0.37861938  1  -1.177001  0  -0.282341  0.018839  0  3.692552  0
N  N343  1  0.51634604  0.62144090  0.05638059  1  -1.202078  0  -0.283521  0.017157  0  3.694182  0
N  N344  1  0.82684409  0.09095053  0.93361968  1  -1.211184  0  -0.283621  0.025051  0  3.709977  0
N  N345  1  0.76036690  0.06627788  0.59090925  1  -1.202299  0  -0.283512  0.025939  0  3.709178  0
N  N346  1  0.35143881  0.40902750  0.56624804  1  -1.200035  0  -0.281517  0.028137  0  3.706458  0
N  N347  1  0.91787694  0.43359030  0.90912545  1  -1.194276  0  -0.282111  0.02444  0  3.710209  0
N  N348  1  0.17315200  0.90904646  0.06638056  1  -1.211245  0  -0.283608  0.024922  0  3.70998  0
N  N349  1  0.23963111  0.93371962  0.40909036  1  -1.202301  0  -0.283487  0.025969  0  3.709258  0
N  N350  1  0.64856245  0.59097400  0.43375175  1  -1.200005  0  -0.281552  0.028184  0  3.706373  0
N  N351  1  0.08212460  0.56640971  0.09087482  1  -1.194951  0  -0.282109  0.024498  0  3.710144  0
O  O352  1  0.42185420  0.20391964  0.79607603  1  -1.235389  0  -0.370909  -0.657061  0  2.30879  0
O  O353  1  0.21770392  0.20393060  0.70392139  1  -1.234308  0  -0.371121  -0.656677  0  2.310736  0
O  O354  1  0.92180426  0.29602017  0.70384641  1  -1.233723  0  -0.370968  -0.656359  0  2.308293  0
O  O355  1  0.62581612  0.29614961  0.79597593  1  -1.235446  0  -0.369313  -0.655103  0  2.310564  0
O  O356  1  0.57815126  0.79608037  0.20392107  1  -1.235302  0  -0.370945  -0.657117  0  2.308857  0
O  O357  1  0.78229895  0.79606890  0.29607855  1  -1.234326  0  -0.371146  -0.656765  0  2.310637  0
O  O358  1  0.07819581  0.70397783  0.29615320  1  -1.233252  0  -0.370929  -0.656306  0  2.308234  0
O  O359  1  0.37417892  0.70385089  0.20402748  1  -1.235387  0  -0.369282  -0.655051  0  2.310537  0
O  O360  1  0.45365585  0.22243657  0.88919651  1  -1.200811  0  -0.360196  -0.608521  0  2.195862  0
O  O361  1  0.34252604  0.11082830  0.72256474  1  -1.195916  0  -0.361297  -0.60967  0  2.195336  0
O  O362  1  0.06527153  0.27746141  0.61077661  1  -1.196652  0  -0.359593  -0.607269  0  2.193226  0
O  O363  1  0.67621641  0.38926162  0.77727080  1  -1.197013  0  -0.361271  -0.608931  0  2.193727  0
O  O364  1  0.54634403  0.77756494  0.11080232  1  -1.200855  0  -0.360219  -0.608599  0  2.195841  0
O  O365  1  0.65746982  0.88917020  0.27744042  1  -1.19591  0  -0.3614  -0.60981  0  2.195424  0
O  O366  1  0.93472902  0.72253809  0.38922333  1  -1.196623  0  -0.359596  -0.607224  0  2.193298  0
O  O367  1  0.32378696  0.61073538  0.22272835  1  -1.196828  0  -0.36123  -0.608901  0  2.193579  0
O  O368  1  0.01878225  0.28956274  0.80495428  1  -1.233228  0  -0.36898  -0.657577  0  2.30519  0
O  O369  1  0.82359945  0.19507533  0.78957655  1  -1.234387  0  -0.369415  -0.656763  0  2.304439  0
O  O370  1  0.61329876  0.21039153  0.69503700  1  -1.229336  0  -0.368665  -0.657459  0  2.30357  0
O  O371  1  0.30832860  0.30486833  0.71052177  1  -1.233362  0  -0.368378  -0.656954  0  2.304253  0
O  O372  1  0.98121750  0.71043676  0.19504724  1  -1.233293  0  -0.369031  -0.657622  0  2.305219  0
O  O373  1  0.17639848  0.80492518  0.21042942  1  -1.234476  0  -0.369381  -0.656693  0  2.304347  0
O  O374  1  0.38671169  0.78960246  0.30496122  1  -1.229416  0  -0.368628  -0.657446  0  2.303487  0
O  O375  1  0.69167511  0.69513017  0.28947707  1  -1.233287  0  -0.36835  -0.656947  0  2.304395  0
O  O376  1  0.90926672  0.25676055  0.89749666  1  -1.201027  0  -0.358865  -0.610579  0  2.167451  0
O  O377  1  0.80649566  0.10262312  0.75664155  1  -1.200941  0  -0.359197  -0.610373  0  2.164335  0
O  O378  1  0.56348600  0.24315262  0.60249088  1  -1.20727  0  -0.360115  -0.611798  0  2.167712  0
O  O379  1  0.16592868  0.39734621  0.74335473  1  -1.197855  0  -0.359826  -0.611957  0  2.166211  0
O  O380  1  0.09073160  0.74324145  0.10250661  1  -1.201053  0  -0.35883  -0.610516  0  2.167448  0
O  O381  1  0.19350237  0.89737888  0.24336045  1  -1.200853  0  -0.359229  -0.610414  0  2.164401  0
O  O382  1  0.43652321  0.75683185  0.39750637  1  -1.206454  0  -0.360063  -0.611795  0  2.167826  0
O  O383  1  0.83407301  0.60265178  0.25664950  1  -1.197538  0  -0.359741  -0.611842  0  2.166026  0
O  O384  1  0.03870564  0.36288134  0.07103791  1  -1.104528  0  -0.263222  -0.435784  0  2.122463  0
O  O385  1  0.10975416  0.92884372  0.86286765  1  -1.101537  0  -0.262389  -0.435996  0  2.11932  0
O  O386  1  0.97219531  0.13704457  0.42884545  1  -1.105054  0  -0.263106  -0.436762  0  2.121015  0
O  O387  1  0.40108112  0.57114048  0.63711956  1  -1.104276  0  -0.263258  -0.434727  0  2.122385  0
O  O388  1  0.96128800  0.63712367  0.92896153  1  -1.104941  0  -0.263193  -0.43571  0  2.122699  0
O  O389  1  0.89024856  0.07115428  0.13713087  1  -1.101655  0  -0.262439  -0.436123  0  2.119393  0
O  O390  1  0.02780933  0.86295794  0.57115356  1  -1.105202  0  -0.263164  -0.436781  0  2.121104  0
O  O391  1  0.59891829  0.42885952  0.36287895  1  -1.104209  0  -0.263172  -0.434639  0  2.122433  0
O  O392  1  0.15576220  0.13273248  0.07405363  1  -1.1026  0  -0.257473  -0.419265  0  2.107133  0
O  O393  1  0.22970380  0.92598148  0.63274981  1  -1.103066  0  -0.256586  -0.418973  0  2.110182  0
O  O394  1  0.86302097  0.36719107  0.42581192  1  -1.105404  0  -0.257897  -0.420044  0  2.107671  0
O  O395  1  0.28804790  0.57400327  0.86723713  1  -1.104061  0  -0.257614  -0.419278  0  2.107913  0
O  O396  1  0.84426172  0.86727153  0.92594703  1  -1.099153  0  -0.257511  -0.419243  0  2.10729  0
O  O397  1  0.77028198  0.07401701  0.36724912  1  -1.10305  0  -0.256645  -0.418973  0  2.110117  0
O  O398  1  0.13697953  0.63281194  0.57418786  1  -1.105249  0  -0.257769  -0.419928  0  2.107699  0
O  O399  1  0.71195143  0.42599472  0.13276170  1  -1.104022  0  -0.25763  -0.419373  0  2.107906  0
O  O400  1  0.58869871  0.07617674  0.81834476  1  -1.196028  0  -0.341219  -0.525675  0  2.273815  0
O  O401  1  0.40718353  0.18151115  0.57626247  1  -1.194469  0  -0.339614  -0.524172  0  2.277576  0
O  O402  1  0.98337922  0.42375754  0.68150919  1  -1.195172  0  -0.340782  -0.525348  0  2.275607  0
O  O403  1  0.66477108  0.31847931  0.92363472  1  -1.193791  0  -0.341088  -0.526575  0  2.276243  0
O  O404  1  0.41130079  0.92382176  0.18165597  1  -1.19611  0  -0.341196  -0.525712  0  2.273937  0
O  O405  1  0.59281796  0.81848885  0.42374017  1  -1.194404  0  -0.339575  -0.52413  0  2.277741  0
O  O406  1  0.01662027  0.57624146  0.31849519  1  -1.195124  0  -0.340716  -0.525387  0  2.275664  0
O  O407  1  0.33522585  0.68151969  0.07636600  1  -1.193925  0  -0.341054  -0.526516  0  2.276236  0
O  O408  1  0.66995998  0.15394915  0.91051136  1  -1.197915  0  -0.339254  -0.519652  0  2.285805  0
O  O409  1  0.58042012  0.08935445  0.65392720  1  -1.193684  0  -0.33919  -0.520451  0  2.289529  0
O  O410  1  0.23468968  0.34584676  0.58951873  1  -1.183195  0  -0.340573  -0.520162  0  2.288362  0
O  O411  1  0.82428947  0.41053368  0.84589788  1  -1.192957  0  -0.340714  -0.521224  0  2.286877  0
O  O412  1  0.33003352  0.84604735  0.08949173  1  -1.197836  0  -0.339139  -0.519518  0  2.285901  0
O  O413  1  0.41957917  0.91063803  0.34607209  1  -1.193595  0  -0.33921  -0.520521  0  2.289442  0
O  O414  1  0.76531186  0.65415474  0.41048233  1  -1.183283  0  -0.340564  -0.520111  0  2.288184  0
O  O415  1  0.17571389  0.58946732  0.15410239  1  -1.193048  0  -0.340718  -0.52121  0  2.287023  0
