# generated using pymatgen
data_CuH10(C9O2)2
_symmetry_space_group_name_H-M   'P 1'
_cell_length_a   23.42998217
_cell_length_b   23.42982195
_cell_length_c   23.42998659
_cell_angle_alpha   109.47104333
_cell_angle_beta   109.47166198
_cell_angle_gamma   109.47112495
_symmetry_Int_Tables_number   1
_chemical_formula_structural   CuH10(C9O2)2
_chemical_formula_sum   'Cu12 H120 C216 O48'
_cell_volume   9901.25380670
_cell_formula_units_Z   12
loop_
 _symmetry_equiv_pos_site_id
 _symmetry_equiv_pos_as_xyz
  1  'x, y, z'
loop_
 _atom_site_type_symbol
 _atom_site_label
 _atom_site_symmetry_multiplicity
 _atom_site_fract_x
 _atom_site_fract_y
 _atom_site_fract_z
 _atom_site_occupancy
 _atom_site_pbe_bader_charge
 _atom_site_pbe_bader_spin_density
 _atom_site_pbe_cm5_charge
 _atom_site_pbe_ddec_charge
 _atom_site_pbe_ddec_spin_density
 _atom_site_pbe_ddec_sum_bond_order
 _atom_site_pbe_magmom
Cu  Cu0  1  0.14612523  0.64612405  0.49999926  1  1.051365  0.543989  0.699252  0.833345  0.707178  2.180991  0.546
Cu  Cu1  1  0.23626781  0.73626803  0.50000006  1  1.089854  0.548839  0.712741  0.843149  0.712841  2.255711  0.55
Cu  Cu2  1  0.85387492  0.35387546  0.50000040  1  1.051375  0.543987  0.699277  0.833325  0.707175  2.18103  0.546
Cu  Cu3  1  0.76373192  0.26373159  0.49999990  1  1.089839  0.548838  0.712765  0.843182  0.712841  2.255665  0.55
Cu  Cu4  1  0.50000009  0.14612539  0.64612563  1  1.051422  0.54399  0.699246  0.833205  0.707177  2.181118  0.546
Cu  Cu5  1  0.50000006  0.23626835  0.73626806  1  1.089871  0.548839  0.712745  0.843173  0.712842  2.255669  0.55
Cu  Cu6  1  0.50000065  0.85387524  0.35387487  1  1.051433  0.54399  0.699276  0.83329  0.707178  2.181018  0.546
Cu  Cu7  1  0.49999931  0.76373194  0.26373159  1  1.089855  0.548839  0.71267  0.843165  0.712841  2.255663  0.55
Cu  Cu8  1  0.64612583  0.50000006  0.14612529  1  1.051411  0.543988  0.699253  0.833267  0.707177  2.1811  0.546
Cu  Cu9  1  0.73626886  0.50000048  0.23626882  1  1.089888  0.548841  0.712761  0.8432  0.712843  2.255592  0.55
Cu  Cu10  1  0.35387448  0.50000014  0.85387480  1  1.051472  0.543986  0.699277  0.833329  0.707173  2.181003  0.546
Cu  Cu11  1  0.26373104  0.49999983  0.76373157  1  1.089892  0.548838  0.712721  0.843189  0.712839  2.255558  0.55
H  H12  1  0.21312555  0.49082944  0.47544009  1  0.111498  0.000412  0.109835  0.116723  0.00034  0.985619  0.0
H  H13  1  0.26513319  0.41657944  0.44428602  1  0.074433  0.000275  0.104365  0.106638  0.000144  0.995055  0.0
H  H14  1  0.41777527  0.58170930  0.44370306  1  0.086214  0.000244  0.097772  0.097822  0.000113  1.049705  0.0
H  H15  1  0.36520647  0.65474002  0.47425981  1  0.07624  0.000399  0.107748  0.11652  0.000346  0.996604  0.0
H  H16  1  0.36387763  0.40899214  0.49177316  1  0.03807  1.5e-05  0.101636  0.101299  1.1e-05  1.027858  0.0
H  H17  1  0.98461121  0.50917077  0.72229637  1  0.084485  0.000421  0.109849  0.116766  0.00034  0.985588  0.0
H  H18  1  0.02770724  0.58342066  0.84855332  1  0.056047  0.000279  0.104389  0.106651  0.000144  0.995103  0.0
H  H19  1  0.86199380  0.41829072  0.83606548  1  0.065646  0.000247  0.097785  0.097855  0.000113  1.049703  0.0
H  H20  1  0.81952034  0.34526090  0.71046666  1  0.099077  0.000396  0.107768  0.116543  0.000346  0.996638  0.0
H  H21  1  0.08278175  0.59100786  0.95488528  1  0.045  1.5e-05  0.10163  0.102263  1.1e-05  1.026581  0.0
H  H22  1  0.78687503  0.26231658  0.27770665  1  0.089455  0.000419  0.109874  0.116782  0.00034  0.985682  0.0
H  H23  1  0.73486879  0.17915710  0.15144998  1  0.062665  0.000277  0.104346  0.106625  0.000144  0.995047  0.0
H  H24  1  0.58222459  0.02592818  0.16393197  1  0.066851  0.000249  0.097785  0.09785  0.000113  1.049714  0.0
H  H25  1  0.63479323  0.10905205  0.28953126  1  0.099523  0.000398  0.107761  0.116564  0.000346  0.996595  0.0
H  H26  1  0.63612250  0.12789794  0.04511517  1  0.036777  1.5e-05  0.101613  0.101266  1.1e-05  1.027892  0.0
H  H27  1  0.01539071  0.73768339  0.52455923  1  0.118004  0.000408  0.109876  0.116785  0.00034  0.985706  0.0
H  H28  1  0.97229289  0.82084312  0.55571200  1  0.068524  0.000276  0.104341  0.106616  0.000144  0.995061  0.0
H  H29  1  0.13800426  0.97407211  0.55629734  1  0.08763  0.000243  0.097792  0.097847  0.000113  1.04972  0.0
H  H30  1  0.18047953  0.89094794  0.52574170  1  0.076169  0.000404  0.107772  0.116557  0.000346  0.996608  0.0
H  H31  1  0.91721766  0.87210191  0.50822437  1  0.043046  1.5e-05  0.101617  0.101263  1.1e-05  1.027916  0.0
H  H32  1  0.47544125  0.21312432  0.49083163  1  0.11144  0.000412  0.109882  0.11679  0.00034  0.985635  0.0
H  H33  1  0.44428813  0.26513139  0.41658036  1  0.074395  0.000275  0.10436  0.106662  0.000144  0.995023  0.0
H  H34  1  0.44370315  0.41777500  0.58170664  1  0.086346  0.000243  0.097796  0.097852  0.000113  1.049661  0.0
H  H35  1  0.47425876  0.36520648  0.65473788  1  0.079112  0.000399  0.107777  0.116566  0.000346  0.996608  0.0
H  H36  1  0.49177551  0.36387839  0.40899308  1  0.038063  1.5e-05  0.101616  0.101267  1.1e-05  1.027877  0.0
H  H37  1  0.72229470  0.98461051  0.50916957  1  0.084428  0.000421  0.109839  0.116745  0.00034  0.98556  0.0
H  H38  1  0.84855249  0.02770672  0.58341969  1  0.056038  0.000279  0.104369  0.106664  0.000144  0.995037  0.0
H  H39  1  0.83606661  0.86199509  0.41829118  1  0.065609  0.000247  0.097794  0.097839  0.000113  1.049705  0.0
H  H40  1  0.71046649  0.81951984  0.34526049  1  0.099065  0.000396  0.107754  0.116511  0.000346  0.996627  0.0
H  H41  1  0.95488544  0.08278252  0.59100846  1  0.045029  1.5e-05  0.101604  0.101243  1.1e-05  1.027877  0.0
H  H42  1  0.27770639  0.78687554  0.26231678  1  0.089454  0.000419  0.109848  0.116767  0.00034  0.985678  0.0
H  H43  1  0.15144830  0.73486796  0.17915618  1  0.062628  0.000277  0.104344  0.106634  0.000144  0.995047  0.0
H  H44  1  0.16393200  0.58222477  0.02592847  1  0.066857  0.000249  0.097797  0.097819  0.000113  1.049813  0.0
H  H45  1  0.28953135  0.63479418  0.10905281  1  0.099483  0.000398  0.107769  0.116563  0.000346  0.99659  0.0
H  H46  1  0.04511436  0.63612137  0.12789680  1  0.036814  1.5e-05  0.101624  0.10128  1.1e-05  1.02788  0.0
H  H47  1  0.52455944  0.01538909  0.73768455  1  0.116673  0.000408  0.109867  0.116773  0.00034  0.985627  0.0
H  H48  1  0.55571364  0.97229260  0.82084630  1  0.068513  0.000276  0.104357  0.106638  0.000144  0.995039  0.0
H  H49  1  0.55629642  0.13800518  0.97407156  1  0.087503  0.000243  0.097799  0.097825  0.000113  1.049746  0.0
H  H50  1  0.52573994  0.18047947  0.89094581  1  0.0708  0.000403  0.107746  0.116491  0.000346  0.996625  0.0
H  H51  1  0.50822582  0.91721758  0.87210317  1  0.043082  1.5e-05  0.101619  0.101273  1.1e-05  1.027894  0.0
H  H52  1  0.49082948  0.47544107  0.21312395  1  0.111428  0.000412  0.109842  0.116752  0.00034  0.985649  0.0
H  H53  1  0.41658017  0.44428876  0.26513147  1  0.074392  0.000275  0.104361  0.106664  0.000144  0.995022  0.0
H  H54  1  0.58170838  0.44370320  0.41777482  1  0.08635  0.000243  0.09779  0.097856  0.000113  1.049678  0.0
H  H55  1  0.65473794  0.47425834  0.36520649  1  0.07909  0.000399  0.107767  0.116549  0.000346  0.996613  0.0
H  H56  1  0.40899208  0.49177517  0.36387630  1  0.037961  1.5e-05  0.101617  0.10129  1.1e-05  1.027847  0.0
H  H57  1  0.50916888  0.72229343  0.98460971  1  0.084397  0.000421  0.109875  0.116814  0.00034  0.985665  0.0
H  H58  1  0.58342012  0.84855159  0.02770743  1  0.058936  0.000279  0.104347  0.106614  0.000144  0.995075  0.0
H  H59  1  0.41829256  0.83606831  0.86199581  1  0.0656  0.000247  0.097771  0.09781  0.000113  1.049727  0.0
H  H60  1  0.34526119  0.71046778  0.81952056  1  0.099072  0.000396  0.107734  0.116512  0.000346  0.996655  0.0
H  H61  1  0.59100752  0.95488526  0.08278274  1  0.044931  1.5e-05  0.101612  0.101252  1.1e-05  1.027889  0.0
H  H62  1  0.26231605  0.27770574  0.78687505  1  0.089486  0.000419  0.109862  0.116777  0.00034  0.985649  0.0
H  H63  1  0.17915496  0.15144782  0.73486805  1  0.053886  0.000277  0.104356  0.106646  0.000144  0.995042  0.0
H  H64  1  0.02592761  0.16393257  0.58222387  1  0.066815  0.000249  0.097787  0.097835  0.000113  1.049715  0.0
H  H65  1  0.10905317  0.28953292  0.63479335  1  0.084661  0.000399  0.107738  0.116526  0.000346  0.9966  0.0
H  H66  1  0.12789701  0.04511478  0.63612198  1  0.036813  1.5e-05  0.101625  0.101289  1.1e-05  1.027884  0.0
H  H67  1  0.73768387  0.52455939  0.01538944  1  0.116836  0.000408  0.109853  0.116753  0.00034  0.985663  0.0
H  H68  1  0.82084342  0.55571133  0.97229224  1  0.068522  0.000276  0.104362  0.106676  0.000144  0.995023  0.0
H  H69  1  0.97407196  0.55629620  0.13800462  1  0.087426  0.000243  0.097787  0.097835  0.000113  1.049734  0.0
H  H70  1  0.89094833  0.52574137  0.18047976  1  0.076151  0.000403  0.107749  0.11654  0.000346  0.996623  0.0
H  H71  1  0.87210183  0.50822458  0.91721683  1  0.043036  1.5e-05  0.101609  0.101275  1.1e-05  1.027897  0.0
H  H72  1  0.78687449  0.50917049  0.52455926  1  0.111489  0.000412  0.109843  0.116744  0.00034  0.985596  0.0
H  H73  1  0.73486670  0.58342033  0.55571363  1  0.074425  0.000275  0.104392  0.106681  0.000144  0.995076  0.0
H  H74  1  0.58222462  0.41829048  0.55629660  1  0.086215  0.000244  0.097763  0.097835  0.000113  1.049709  0.0
H  H75  1  0.63479399  0.34526033  0.52573997  1  0.075923  0.000399  0.107748  0.11649  0.000346  0.996624  0.0
H  H76  1  0.63612226  0.59100763  0.50822649  1  0.038072  1.5e-05  0.101619  0.101275  1.1e-05  1.027904  0.0
H  H77  1  0.01538868  0.49082900  0.27770328  1  0.084422  0.000421  0.109841  0.116764  0.00034  0.985634  0.0
H  H78  1  0.97229307  0.41657954  0.15144676  1  0.056244  0.000279  0.104376  0.106682  0.000144  0.995051  0.0
H  H79  1  0.13800626  0.58170975  0.16393460  1  0.065606  0.000247  0.097768  0.09781  0.000113  1.049772  0.0
H  H80  1  0.18047955  0.65473887  0.28953300  1  0.099067  0.000396  0.107758  0.116528  0.000346  0.996653  0.0
H  H81  1  0.91721872  0.40899250  0.04511450  1  0.044998  1.5e-05  0.101629  0.101274  1.1e-05  1.027867  0.0
H  H82  1  0.21312485  0.73768320  0.72229300  1  0.089443  0.000419  0.109859  0.116784  0.00034  0.985697  0.0
H  H83  1  0.26513137  0.82084295  0.84855040  1  0.062662  0.000277  0.104346  0.106626  0.000144  0.995041  0.0
H  H84  1  0.41777546  0.97407228  0.83606811  1  0.066834  0.000249  0.097776  0.097785  0.000113  1.049852  0.0
H  H85  1  0.36520666  0.89094773  0.71046839  1  0.099524  0.000398  0.107764  0.11658  0.000346  0.996564  0.0
H  H86  1  0.36387696  0.87210141  0.95488406  1  0.03677  1.5e-05  0.101606  0.101238  1.1e-05  1.027888  0.0
H  H87  1  0.98460946  0.26231666  0.47544115  1  0.118013  0.000408  0.10989  0.116816  0.00034  0.985675  0.0
H  H88  1  0.02770742  0.17915708  0.44428808  1  0.068531  0.000276  0.104361  0.106657  0.000144  0.995015  0.0
H  H89  1  0.86199616  0.02592768  0.44370304  1  0.087434  0.000243  0.097774  0.097831  0.000113  1.049733  0.0
H  H90  1  0.81952079  0.10905227  0.47425838  1  0.076152  0.000403  0.107775  0.116555  0.000346  0.996612  0.0
H  H91  1  0.08278276  0.12789789  0.49177601  1  0.043044  1.5e-05  0.101616  0.101278  1.1e-05  1.027894  0.0
H  H92  1  0.52455849  0.78687531  0.50916832  1  0.111435  0.000412  0.109854  0.116768  0.00034  0.985628  0.0
H  H93  1  0.55571161  0.73486823  0.58341960  1  0.0744  0.000275  0.104366  0.106659  0.000144  0.995023  0.0
H  H94  1  0.55629685  0.58222436  0.41829331  1  0.086348  0.000243  0.097782  0.097845  0.000113  1.049625  0.0
H  H95  1  0.52574183  0.63479400  0.34526293  1  0.079141  0.000399  0.107784  0.116578  0.000346  0.996591  0.0
H  H96  1  0.50822423  0.63612123  0.59100688  1  0.038065  1.5e-05  0.101618  0.101263  1.1e-05  1.027889  0.0
H  H97  1  0.27770493  0.01538952  0.49083009  1  0.084419  0.000421  0.109846  0.11678  0.00034  0.985642  0.0
H  H98  1  0.15144725  0.97229290  0.41658027  1  0.056031  0.000279  0.104364  0.106652  0.000144  0.995044  0.0
H  H99  1  0.16393328  0.13800469  0.58170848  1  0.065605  0.000247  0.097778  0.097813  0.000113  1.049722  0.0
H  H100  1  0.28953340  0.18047993  0.65473916  1  0.099065  0.000396  0.107757  0.116525  0.000346  0.996652  0.0
H  H101  1  0.04511541  0.91721770  0.40899235  1  0.045074  1.5e-05  0.101611  0.101257  1.1e-05  1.027895  0.0
H  H102  1  0.72229366  0.21312492  0.73768330  1  0.089476  0.000419  0.10986  0.116786  0.00034  0.985639  0.0
H  H103  1  0.84855201  0.26513224  0.82084390  1  0.062634  0.000277  0.104353  0.106649  0.000144  0.99503  0.0
H  H104  1  0.83606842  0.41777502  0.97407192  1  0.066874  0.000249  0.097787  0.097849  0.000113  1.049686  0.0
H  H105  1  0.71046870  0.36520628  0.89094727  1  0.099562  0.000398  0.107761  0.116553  0.000346  0.996617  0.0
H  H106  1  0.95488553  0.36387841  0.87210286  1  0.036809  1.5e-05  0.101615  0.101252  1.1e-05  1.027907  0.0
H  H107  1  0.47544088  0.98461112  0.26231553  1  0.116667  0.000408  0.109861  0.116791  0.00034  0.985594  0.0
H  H108  1  0.44428625  0.02770717  0.17915336  1  0.068503  0.000276  0.104377  0.106679  0.000144  0.995019  0.0
H  H109  1  0.44370390  0.86199502  0.02592852  1  0.087432  0.000243  0.097795  0.097837  0.000113  1.049726  0.0
H  H110  1  0.47425953  0.81952042  0.10905415  1  0.070787  0.000403  0.10776  0.116518  0.000346  0.996609  0.0
H  H111  1  0.49177434  0.08278248  0.12789722  1  0.043079  1.5e-05  0.101622  0.101274  1.1e-05  1.027888  0.0
H  H112  1  0.50917100  0.52455982  0.78687656  1  0.111423  0.000412  0.10986  0.116792  0.00034  0.98568  0.0
H  H113  1  0.58341946  0.55571128  0.73486818  1  0.074389  0.000275  0.10437  0.106687  0.000144  0.995051  0.0
H  H114  1  0.41829177  0.55629631  0.58222483  1  0.086344  0.000243  0.097786  0.097827  0.000113  1.049726  0.0
H  H115  1  0.34526180  0.52574129  0.63479346  1  0.079106  0.000399  0.107753  0.116539  0.000346  0.996642  0.0
H  H116  1  0.59100781  0.50822461  0.63612335  1  0.037993  1.5e-05  0.101625  0.101291  1.1e-05  1.027894  0.0
H  H117  1  0.49083127  0.27770608  0.01538994  1  0.084413  0.000421  0.109858  0.116788  0.00034  0.985659  0.0
H  H118  1  0.41658105  0.15144947  0.97229351  1  0.05896  0.000279  0.104357  0.106606  0.000144  0.995169  0.0
H  H119  1  0.58170802  0.16393164  0.13800427  1  0.065586  0.000247  0.097779  0.097799  0.000113  1.049739  0.0
H  H120  1  0.65473898  0.28953227  0.18047983  1  0.099067  0.000396  0.107748  0.11653  0.000346  0.996644  0.0
H  H121  1  0.40899264  0.04511480  0.91721764  1  0.044968  1.5e-05  0.101613  0.102255  1.1e-05  1.026617  0.0
H  H122  1  0.73768384  0.72229404  0.21312460  1  0.089485  0.000419  0.109866  0.116784  0.00034  0.98565  0.0
H  H123  1  0.82084535  0.84855238  0.26513203  1  0.053688  0.000277  0.104383  0.106677  0.000144  0.995029  0.0
H  H124  1  0.97407271  0.83606763  0.41777621  1  0.066806  0.000249  0.097792  0.097827  0.000113  1.049715  0.0
H  H125  1  0.89094703  0.71046769  0.36520643  1  0.084659  0.000399  0.107742  0.116517  0.000346  0.996636  0.0
H  H126  1  0.87210330  0.95488542  0.36387810  1  0.036825  1.5e-05  0.101616  0.10126  1.1e-05  1.027887  0.0
H  H127  1  0.26231644  0.47544081  0.98461064  1  0.116834  0.000408  0.109851  0.116755  0.00034  0.985667  0.0
H  H128  1  0.17915674  0.44428872  0.02770815  1  0.068518  0.000276  0.104338  0.106624  0.000144  0.995046  0.0
H  H129  1  0.02592819  0.44370331  0.86199503  1  0.087429  0.000243  0.097774  0.097813  0.000113  1.049754  0.0
H  H130  1  0.10905167  0.47425799  0.81952019  1  0.076146  0.000403  0.107761  0.116522  0.000346  0.99662  0.0
H  H131  1  0.12789806  0.49177520  0.08278283  1  0.043033  1.5e-05  0.101604  0.101253  1.1e-05  1.027915  0.0
C  C132  1  0.25446177  0.62179667  0.49309016  1  1.514008  -0.001435  0.215629  0.578618  -0.001754  4.151412  -0.005
C  C133  1  0.28630766  0.57747275  0.47723097  1  -0.07117  0.016841  -0.019357  -0.03554  0.012129  3.973804  0.013
C  C134  1  0.25827457  0.51023331  0.46874179  1  0.036425  0.000469  -0.079501  -0.082109  0.000123  3.968987  0.001
C  C135  1  0.28757223  0.46898569  0.45126109  1  -0.113875  0.001093  -0.088868  -0.136904  0.000636  3.979873  0.001
C  C136  1  0.34516154  0.49358894  0.44145335  1  -0.040477  -0.001294  -0.001673  0.075867  -0.001453  3.991237  -0.001
C  C137  1  0.37230809  0.56091829  0.44952790  1  -0.040274  0.001133  -0.091422  -0.137998  0.000664  3.981579  0.001
C  C138  1  0.34362231  0.60244220  0.46747125  1  -0.003969  0.000745  -0.081805  -0.082058  0.000343  3.970395  0.001
C  C139  1  0.38019317  0.45289976  0.42730769  1  -0.002088  0.000254  -0.007863  0.073065  0.000144  4.020684  0.0
C  C140  1  0.38736348  0.41268618  0.45915693  1  -0.00783  -0.000661  -0.085308  -0.169411  -0.000729  3.921297  0.0
C  C141  1  0.87129410  0.37820365  0.63266537  1  1.511865  -0.001278  0.215627  0.578613  -0.001754  4.151474  -0.005
C  C142  1  0.89975840  0.42252716  0.70883462  1  -0.017237  0.016687  -0.019374  -0.035554  0.01213  3.973855  0.013
C  C143  1  0.95850964  0.48976724  0.74804168  1  -0.042444  0.000526  -0.079577  -0.082248  0.000123  3.968876  0.001
C  C144  1  0.98227638  0.53101469  0.81858756  1  -0.001913  0.001075  -0.088843  -0.136856  0.000636  3.97993  0.001
C  C145  1  0.94786522  0.50641086  0.85157245  1  -0.064844  -0.001295  -0.001696  0.075775  -0.001453  3.991298  -0.001
C  C146  1  0.88861025  0.43908208  0.81139058  1  0.008296  0.001131  -0.091448  -0.138012  0.000664  3.981503  0.001
C  C147  1  0.86502985  0.39755837  0.74118046  1  -0.024913  0.000748  -0.081831  -0.082078  0.000343  3.970428  0.001
C  C148  1  0.97440860  0.54710049  0.92729387  1  -0.022979  0.000252  -0.007818  0.073013  0.000144  4.021035  0.0
C  C149  1  0.04647084  0.58731386  0.97467733  1  -0.040869  -0.000661  -0.085272  -0.169975  -0.000729  3.920973  0.0
C  C150  1  0.74553797  0.23862864  0.36733516  1  1.541565  -0.001485  0.215602  0.578513  -0.001753  4.151643  -0.005
C  C151  1  0.71369137  0.19092337  0.29116550  1  -0.066148  0.016929  -0.01938  -0.035527  0.012129  3.973894  0.013
C  C152  1  0.74172671  0.21047076  0.25196106  1  -0.039541  0.000506  -0.079521  -0.082186  0.000123  3.968871  0.001
C  C153  1  0.71242796  0.16369135  0.18141374  1  -0.031817  0.001074  -0.088873  -0.1369  0.000636  3.979803  0.001
C  C154  1  0.65483927  0.09629501  0.14842827  1  -0.046244  -0.001295  -0.001657  0.075961  -0.001453  3.991236  -0.001
C  C155  1  0.62769185  0.07722101  0.18860944  1  -0.064056  0.001146  -0.091433  -0.138059  0.000664  3.981555  0.001
C  C156  1  0.65637770  0.12384910  0.25881855  1  0.038257  0.000725  -0.081866  -0.082128  0.000344  3.970482  0.001
C  C157  1  0.61980734  0.04711689  0.07270677  1  0.026615  0.000254  -0.007839  0.073034  0.000144  4.020929  0.0
C  C158  1  0.61263628  0.07179526  0.02532287  1  0.001423  -0.00066  -0.085284  -0.169339  -0.000729  3.921394  0.0
C  C159  1  0.12870622  0.76137087  0.50690935  1  1.498576  -0.001318  0.215596  0.578509  -0.001754  4.151612  -0.005
C  C160  1  0.10024278  0.80907670  0.52276865  1  -0.041408  0.016726  -0.019336  -0.035404  0.012129  3.973845  0.013
C  C161  1  0.04149052  0.78952884  0.53125637  1  0.009197  0.000491  -0.07954  -0.082308  0.000123  3.969002  0.001
C  C162  1  0.01772285  0.83630903  0.54873734  1  -0.109567  0.00109  -0.088865  -0.136812  0.000636  3.979856  0.001
C  C163  1  0.05213337  0.90370541  0.55854494  1  -0.009934  -0.001292  -0.001684  0.075854  -0.001453  3.991274  -0.001
C  C164  1  0.11138897  0.92277964  0.55047182  1  -0.034492  0.00113  -0.091416  -0.137979  0.000664  3.981474  0.001
C  C165  1  0.13497022  0.87615072  0.53252918  1  -0.009916  0.000743  -0.081856  -0.082157  0.000344  3.970507  0.001
C  C166  1  0.02559073  0.95288352  0.57269110  1  -0.030644  0.000253  -0.007808  0.073075  0.000144  4.020841  0.0
C  C167  1  0.95352760  0.92820528  0.54084145  1  -0.053301  -0.000662  -0.085292  -0.169351  -0.000729  3.921459  0.0
C  C168  1  0.49309082  0.25446237  0.62179695  1  1.514308  -0.001434  0.215545  0.578485  -0.001754  4.151529  -0.005
C  C169  1  0.47723255  0.28630841  0.57747426  1  -0.064558  0.016836  -0.019396  -0.03553  0.012128  3.973842  0.013
C  C170  1  0.46874466  0.25827391  0.51023454  1  0.029679  0.000472  -0.079498  -0.082186  0.000123  3.96898  0.001
C  C171  1  0.45126384  0.28757220  0.46898607  1  -0.115585  0.001092  -0.088898  -0.136954  0.000636  3.979837  0.001
C  C172  1  0.44145622  0.34516191  0.49358887  1  -0.038684  -0.001294  -0.001692  0.075911  -0.001453  3.991281  -0.001
C  C173  1  0.44952902  0.37230827  0.56091668  1  -0.040239  0.001132  -0.091415  -0.137982  0.000664  3.981524  0.001
C  C174  1  0.46747098  0.34362269  0.60244088  1  -0.006823  0.000746  -0.081856  -0.082138  0.000344  3.970366  0.001
C  C175  1  0.42730980  0.38019336  0.45289905  1  -0.007285  0.000254  -0.007894  0.072919  0.000144  4.020705  0.0
C  C176  1  0.45915897  0.38736574  0.41268583  1  -0.007378  -0.000661  -0.085273  -0.169322  -0.000729  3.9214  0.0
C  C177  1  0.63266488  0.87129329  0.37820318  1  1.511843  -0.001278  0.215594  0.578566  -0.001754  4.151548  -0.005
C  C178  1  0.70883471  0.89975834  0.42252672  1  -0.015427  0.016684  -0.019383  -0.035532  0.012129  3.973937  0.013
C  C179  1  0.74804089  0.95850933  0.48976635  1  -0.044266  0.000529  -0.079526  -0.082166  0.000123  3.969012  0.001
C  C180  1  0.81858618  0.98227666  0.53101385  1  -0.001892  0.001075  -0.088856  -0.136894  0.000636  3.979971  0.001
C  C181  1  0.85157177  0.94786580  0.50641067  1  -0.064654  -0.001295  -0.001693  0.075853  -0.001453  3.991303  -0.001
C  C182  1  0.81139058  0.88861078  0.43908157  1  0.008216  0.001131  -0.091456  -0.138041  0.000664  3.981538  0.001
C  C183  1  0.74117985  0.86502955  0.39755797  1  -0.024861  0.000748  -0.081825  -0.082025  0.000343  3.97038  0.001
C  C184  1  0.92729415  0.97440929  0.54710064  1  -0.023603  0.000252  -0.007863  0.073027  0.000144  4.020826  0.0
C  C185  1  0.97467768  0.04647149  0.58731424  1  -0.042489  -0.000661  -0.085309  -0.169356  -0.000729  3.921387  0.0
C  C186  1  0.36733494  0.74553803  0.23862870  1  1.541557  -0.001485  0.21561  0.578596  -0.001754  4.151493  -0.005
C  C187  1  0.29116551  0.71369184  0.19092401  1  -0.066167  0.016929  -0.01938  -0.035566  0.012129  3.973844  0.013
C  C188  1  0.25195966  0.74172670  0.21047034  1  -0.03962  0.000506  -0.079533  -0.082203  0.000123  3.968863  0.001
C  C189  1  0.18141281  0.71242733  0.16369106  1  -0.031519  0.001074  -0.088853  -0.136892  0.000636  3.97985  0.001
C  C190  1  0.14842711  0.65483888  0.09629510  1  -0.046562  -0.001295  -0.001717  0.075851  -0.001453  3.991301  -0.001
C  C191  1  0.18860895  0.62769220  0.07722138  1  -0.06395  0.001146  -0.091418  -0.138053  0.000664  3.981585  0.001
C  C192  1  0.25881853  0.65637777  0.12384926  1  0.038355  0.000725  -0.081871  -0.082123  0.000344  3.970445  0.001
C  C193  1  0.07270606  0.61980760  0.04711708  1  0.02647  0.000254  -0.007899  0.072854  0.000144  4.020907  0.0
C  C194  1  0.02532129  0.61263558  0.07179381  1  0.001577  -0.00066  -0.0853  -0.169341  -0.000729  3.921251  0.0
C  C195  1  0.50690984  0.12870656  0.76137164  1  1.498546  -0.001319  0.215586  0.578506  -0.001754  4.151496  -0.005
C  C196  1  0.52276853  0.10024195  0.80907693  1  -0.059841  0.016746  -0.019386  -0.035579  0.012129  3.973865  0.013
C  C197  1  0.53125742  0.04149038  0.78953215  1  0.028995  0.000471  -0.079548  -0.082198  0.000123  3.968963  0.001
C  C198  1  0.54873789  0.01772377  0.83631083  1  -0.109506  0.00109  -0.088819  -0.136829  0.000636  3.979911  0.001
C  C199  1  0.55854513  0.05213447  0.90370656  1  -0.01012  -0.001292  -0.00172  0.075777  -0.001453  3.991321  -0.001
C  C200  1  0.55047102  0.11138968  0.92277980  1  -0.034661  0.00113  -0.091449  -0.138014  0.000664  3.98166  0.001
C  C201  1  0.53252809  0.13496931  0.87614992  1  -0.004165  0.000742  -0.081811  -0.081971  0.000343  3.970456  0.001
C  C202  1  0.57269133  0.02559085  0.95288454  1  -0.030459  0.000253  -0.007825  0.073054  0.000144  4.02078  0.0
C  C203  1  0.54084263  0.95352910  0.92820610  1  -0.053471  -0.000662  -0.085293  -0.169366  -0.000729  3.921262  0.0
C  C204  1  0.62179694  0.49308923  0.25446176  1  1.513913  -0.001435  0.215611  0.57856  -0.001754  4.151578  -0.005
C  C205  1  0.57747286  0.47723123  0.28630652  1  -0.064574  0.016838  -0.019401  -0.035557  0.012129  3.973861  0.013
C  C206  1  0.51023358  0.46874352  0.25827385  1  0.029683  0.000472  -0.07951  -0.082178  0.000123  3.968963  0.001
C  C207  1  0.46898602  0.45126373  0.28757169  1  -0.104215  0.001093  -0.088865  -0.136944  0.000636  3.979822  0.001
C  C208  1  0.49358935  0.44145621  0.34516108  1  -0.050109  -0.001294  -0.001695  0.075938  -0.001454  3.991276  -0.001
C  C209  1  0.56091739  0.44952876  0.37230760  1  -0.040223  0.001132  -0.091426  -0.138052  0.000664  3.98158  0.001
C  C210  1  0.60244158  0.46747126  0.34362253  1  -0.006808  0.000746  -0.081805  -0.082064  0.000343  3.970338  0.001
C  C211  1  0.45290047  0.42730977  0.38019305  1  -0.007078  0.000253  -0.007865  0.072986  0.000144  4.020871  0.0
C  C212  1  0.41268606  0.45915865  0.38736295  1  -0.011939  -0.000661  -0.085256  -0.169327  -0.000729  3.921229  0.0
C  C213  1  0.37820145  0.63266451  0.87129274  1  1.511948  -0.001278  0.215667  0.578647  -0.001754  4.151339  -0.005
C  C214  1  0.42252552  0.70883338  0.89975757  1  -0.016077  0.016685  -0.019393  -0.035431  0.01213  3.973633  0.013
C  C215  1  0.48976668  0.74804007  0.95851022  1  -0.044233  0.000529  -0.079548  -0.082323  0.000123  3.969019  0.001
C  C216  1  0.53101448  0.81858594  0.98227730  1  -0.012777  0.001074  -0.088864  -0.136837  0.000636  3.979894  0.001
C  C217  1  0.50641161  0.85157277  0.94786695  1  -0.054724  -0.001295  -0.001666  0.075893  -0.001454  3.991218  -0.001
C  C218  1  0.43908238  0.81139146  0.88861103  1  0.006635  0.001131  -0.091446  -0.138002  0.000664  3.981428  0.001
C  C219  1  0.39755799  0.74118111  0.86502958  1  -0.024218  0.000748  -0.081817  -0.08212  0.000343  3.970391  0.001
C  C220  1  0.54710072  0.92729323  0.97441000  1  -0.02326  0.000252  -0.007834  0.073044  0.000144  4.020662  0.0
C  C221  1  0.58731441  0.97467906  0.04647245  1  -0.040875  -0.000661  -0.085308  -0.169379  -0.000729  3.921442  0.0
C  C222  1  0.23862781  0.36733440  0.74553653  1  1.541537  -0.001484  0.215615  0.57857  -0.001754  4.151471  -0.005
C  C223  1  0.19092456  0.29116630  0.71369210  1  -0.083018  0.016946  -0.019401  -0.035476  0.012128  3.973889  0.013
C  C224  1  0.21046919  0.25195974  0.74172604  1  -0.022742  0.000487  -0.079513  -0.082208  0.000123  3.969043  0.001
C  C225  1  0.16369061  0.18141405  0.71242808  1  -0.024193  0.001073  -0.088872  -0.13692  0.000636  3.97987  0.001
C  C226  1  0.09629308  0.14842772  0.65483817  1  -0.051621  -0.001295  -0.001677  0.075937  -0.001453  3.991396  -0.001
C  C227  1  0.07722019  0.18860942  0.62769155  1  -0.058294  0.001146  -0.091435  -0.138006  0.000664  3.981703  0.001
C  C228  1  0.12384849  0.25881925  0.65637705  1  0.054066  0.000723  -0.081816  -0.082124  0.000343  3.970354  0.001
C  C229  1  0.04711577  0.07270658  0.61980702  1  0.028857  0.000254  -0.007848  0.072957  0.000144  4.020806  0.0
C  C230  1  0.07179358  0.02532121  0.61263563  1  0.001344  -0.00066  -0.085307  -0.169368  -0.000729  3.921347  0.0
C  C231  1  0.76137327  0.50691058  0.12870815  1  1.498727  -0.00132  0.215596  0.578561  -0.001754  4.151655  -0.005
C  C232  1  0.80907630  0.52276863  0.10024239  1  -0.041538  0.016727  -0.019366  -0.03549  0.012129  3.973926  0.013
C  C233  1  0.78953004  0.53125646  0.04149054  1  0.010324  0.000491  -0.079503  -0.082162  0.000123  3.968981  0.001
C  C234  1  0.83630841  0.54873608  0.01772223  1  -0.109485  0.00109  -0.088847  -0.136932  0.000636  3.979796  0.001
C  C235  1  0.90370496  0.55854364  0.05213311  1  -0.009784  -0.001292  -0.001695  0.075942  -0.001453  3.991261  -0.001
C  C236  1  0.92277917  0.55047031  0.11138809  1  -0.034846  0.00113  -0.091442  -0.138054  0.000664  3.981657  0.001
C  C237  1  0.87615104  0.53252830  0.13497045  1  -0.009604  0.000742  -0.081815  -0.082104  0.000343  3.970451  0.001
C  C238  1  0.95288336  0.57269053  0.02559069  1  -0.030529  0.000253  -0.007827  0.073044  0.000144  4.020655  0.0
C  C239  1  0.92820482  0.54084129  0.95352724  1  -0.053369  -0.000662  -0.085322  -0.169422  -0.000729  3.921353  0.0
C  C240  1  0.74553771  0.37820322  0.50690980  1  1.513871  -0.001435  0.215618  0.578562  -0.001754  4.15151  -0.005
C  C241  1  0.71369234  0.42252662  0.52276899  1  -0.071205  0.016841  -0.019338  -0.035522  0.012129  3.973911  0.013
C  C242  1  0.74172533  0.48976700  0.53125860  1  0.036362  0.000469  -0.079573  -0.082258  0.000123  3.969034  0.001
C  C243  1  0.71242823  0.53101466  0.54873869  1  -0.113882  0.001093  -0.088857  -0.136857  0.000636  3.979838  0.001
C  C244  1  0.65483819  0.50641068  0.55854661  1  -0.040457  -0.001294  -0.001676  0.075825  -0.001454  3.991174  -0.001
C  C245  1  0.62769180  0.43908149  0.55047176  1  -0.040279  0.001132  -0.09145  -0.138086  0.000664  3.981612  0.001
C  C246  1  0.65637758  0.39755757  0.53252841  1  -0.003548  0.000745  -0.081771  -0.081921  0.000343  3.970422  0.001
C  C247  1  0.61980700  0.54710030  0.57269269  1  -0.002083  0.000254  -0.007828  0.073157  0.000144  4.020726  0.0
C  C248  1  0.61263626  0.58731344  0.54084303  1  -0.007947  -0.000661  -0.085278  -0.169395  -0.000729  3.921309  0.0
C  C249  1  0.12870605  0.62179586  0.36733428  1  1.511828  -0.001278  0.215606  0.578613  -0.001753  4.15154  -0.005
C  C250  1  0.10024235  0.57747347  0.29116589  1  -0.01733  0.016686  -0.01939  -0.035533  0.012129  3.973798  0.013
C  C251  1  0.04149010  0.51023238  0.25195828  1  -0.042369  0.000526  -0.079545  -0.082209  0.000123  3.968898  0.001
C  C252  1  0.01772336  0.46898493  0.18141240  1  -0.002127  0.001075  -0.088818  -0.136863  0.000636  3.97987  0.001
C  C253  1  0.05213452  0.49358877  0.14842751  1  -0.064402  -0.001295  -0.001687  0.075814  -0.001454  3.99126  -0.001
C  C254  1  0.11139049  0.56091855  0.18860993  1  0.007848  0.001131  -0.091433  -0.137978  0.000664  3.981602  0.001
C  C255  1  0.13497089  0.60244226  0.25882005  1  -0.024778  0.000748  -0.081836  -0.082092  0.000343  3.970451  0.001
C  C256  1  0.02559088  0.45289940  0.07270609  1  -0.02289  0.000252  -0.007837  0.073097  0.000144  4.020713  0.0
C  C257  1  0.95352864  0.41268603  0.02532262  1  -0.040843  -0.000661  -0.085311  -0.169375  -0.000729  3.921283  0.0
C  C258  1  0.25446119  0.76137041  0.63266467  1  1.541725  -0.001484  0.215589  0.578487  -0.001753  4.151578  -0.005
C  C259  1  0.28630867  0.80907655  0.70883385  1  -0.066154  0.016929  -0.019334  -0.035343  0.012129  3.973862  0.013
C  C260  1  0.25827276  0.78952859  0.74803817  1  -0.039399  0.000506  -0.079546  -0.082337  0.000123  3.968984  0.001
C  C261  1  0.28757236  0.83630886  0.81858634  1  -0.031919  0.001074  -0.088866  -0.136847  0.000636  3.979816  0.001
C  C262  1  0.34516104  0.90370520  0.85157181  1  -0.04625  -0.001295  -0.001676  0.075894  -0.001453  3.991244  -0.001
C  C263  1  0.37230820  0.92277945  0.81139064  1  -0.064043  0.001146  -0.091429  -0.138056  0.000664  3.981655  0.001
C  C264  1  0.34362219  0.87615067  0.74118111  1  0.038231  0.000725  -0.08187  -0.082217  0.000344  3.970479  0.001
C  C265  1  0.38019256  0.95288342  0.92729361  1  0.026558  0.000254  -0.007829  0.073013  0.000144  4.021066  0.0
C  C266  1  0.38736335  0.92820477  0.97467678  1  0.001423  -0.00066  -0.085254  -0.169267  -0.000729  3.921322  0.0
C  C267  1  0.87129352  0.23862875  0.49309061  1  1.49856  -0.001318  0.215599  0.57852  -0.001753  4.151578  -0.005
C  C268  1  0.89975728  0.19092376  0.47723143  1  -0.041354  0.016726  -0.019337  -0.035394  0.012129  3.973776  0.013
C  C269  1  0.95850948  0.21047052  0.46874359  1  0.009133  0.000491  -0.079552  -0.082355  0.000123  3.969023  0.001
C  C270  1  0.98227679  0.16369154  0.45126304  1  -0.109531  0.00109  -0.088872  -0.136849  0.000636  3.979846  0.001
C  C271  1  0.94786653  0.09629490  0.44145544  1  -0.009922  -0.001292  -0.001688  0.0759  -0.001453  3.99127  -0.001
C  C272  1  0.88861135  0.07722057  0.44952826  1  -0.03431  0.00113  -0.09146  -0.138101  0.000664  3.981648  0.001
C  C273  1  0.86503035  0.12384922  0.46747090  1  -0.00993  0.000742  -0.081824  -0.082065  0.000344  3.970495  0.001
C  C274  1  0.97440927  0.04711584  0.42730885  1  -0.030537  0.000253  -0.007832  0.072994  0.000144  4.020855  0.0
C  C275  1  0.04647272  0.07179492  0.45915863  1  -0.053376  -0.000662  -0.085301  -0.16936  -0.000729  3.921277  0.0
C  C276  1  0.50690949  0.74553783  0.37820313  1  1.514313  -0.001433  0.215624  0.578629  -0.001754  4.151597  -0.005
C  C277  1  0.52276793  0.71369248  0.42252624  1  -0.064585  0.016837  -0.019363  -0.03551  0.012129  3.973768  0.013
C  C278  1  0.53125587  0.74172547  0.48976614  1  0.029697  0.000472  -0.079533  -0.08223  0.000123  3.968961  0.001
C  C279  1  0.54873605  0.71242757  0.53101359  1  -0.115307  0.001092  -0.088863  -0.136899  0.000636  3.979881  0.001
C  C280  1  0.55854409  0.65483830  0.50641122  1  -0.038996  -0.001294  -0.00168  0.075936  -0.001454  3.991254  -0.001
C  C281  1  0.55047049  0.62769218  0.43908267  1  -0.040239  0.001132  -0.091416  -0.138017  0.000664  3.981564  0.001
C  C282  1  0.53252946  0.65637764  0.39756024  1  -0.00684  0.000746  -0.081869  -0.082148  0.000344  3.970578  0.001
C  C283  1  0.57269011  0.61980695  0.54710133  1  -0.007296  0.000254  -0.007908  0.072895  0.000144  4.020768  0.0
C  C284  1  0.54084134  0.61263446  0.58731425  1  -0.00738  -0.000661  -0.085298  -0.169324  -0.000729  3.921437  0.0
C  C285  1  0.36733473  0.12870621  0.62179575  1  1.511807  -0.001278  0.215588  0.578604  -0.001754  4.151601  -0.005
C  C286  1  0.29116629  0.10024203  0.57747379  1  -0.015337  0.016684  -0.019409  -0.035628  0.012129  3.973875  0.013
C  C287  1  0.25195926  0.04149019  0.51023331  1  -0.04426  0.000529  -0.079503  -0.082152  0.000123  3.968943  0.001
C  C288  1  0.18141356  0.01772296  0.46898611  1  -0.00195  0.001075  -0.088855  -0.136878  0.000636  3.979912  0.001
C  C289  1  0.14842756  0.05213394  0.49358959  1  -0.065037  -0.001295  -0.001705  0.075829  -0.001453  3.991281  -0.001
C  C290  1  0.18860890  0.11138911  0.56091838  1  0.008643  0.001131  -0.09143  -0.137954  0.000664  3.981517  0.001
C  C291  1  0.25882032  0.13497050  0.60244241  1  -0.02493  0.000748  -0.081813  -0.082052  0.000343  3.97044  0.001
C  C292  1  0.07270611  0.02558981  0.45289931  1  -0.023607  0.000252  -0.007842  0.073044  0.000144  4.020755  0.0
C  C293  1  0.02532291  0.95352899  0.41268657  1  -0.04267  -0.000661  -0.085278  -0.169342  -0.000729  3.921375  0.0
C  C294  1  0.63266522  0.25446202  0.76137169  1  1.541465  -0.001484  0.215521  0.57832  -0.001753  4.151851  -0.005
C  C295  1  0.70883466  0.28630821  0.80907637  1  -0.066072  0.016929  -0.019384  -0.035399  0.012129  3.973774  0.013
C  C296  1  0.74804082  0.25827420  0.78953017  1  -0.039629  0.000506  -0.079532  -0.082256  0.000123  3.968922  0.001
C  C297  1  0.81858667  0.28757255  0.83630890  1  -0.031511  0.001073  -0.088822  -0.136867  0.000636  3.979842  0.001
C  C298  1  0.85157279  0.34516143  0.90370528  1  -0.046487  -0.001295  -0.001692  0.075928  -0.001453  3.991284  -0.001
C  C299  1  0.81139191  0.37230802  0.92277943  1  -0.063996  0.001146  -0.091448  -0.138044  0.000664  3.981558  0.001
C  C300  1  0.74118221  0.34362286  0.87615124  1  0.038199  0.000725  -0.081875  -0.082183  0.000344  3.970433  0.001
C  C301  1  0.92729384  0.38019271  0.95288330  1  0.026691  0.000254  -0.007891  0.072905  0.000144  4.020718  0.0
C  C302  1  0.97467902  0.38736462  0.92820627  1  0.001335  -0.00066  -0.085276  -0.169284  -0.000729  3.921353  0.0
C  C303  1  0.49308996  0.87129416  0.23862844  1  1.498539  -0.001319  0.21562  0.578595  -0.001754  4.15148  -0.005
C  C304  1  0.47723138  0.89975836  0.19092346  1  -0.05972  0.016744  -0.019404  -0.035572  0.012128  3.973888  0.013
C  C305  1  0.46874249  0.95850993  0.21046823  1  0.028947  0.000471  -0.079543  -0.082252  0.000123  3.968894  0.001
C  C306  1  0.45126191  0.98227696  0.16368925  1  -0.109532  0.00109  -0.088821  -0.13684  0.000636  3.979848  0.001
C  C307  1  0.44145475  0.94786531  0.09629309  1  -0.01015  -0.001292  -0.001739  0.075749  -0.001453  3.991405  -0.001
C  C308  1  0.44952877  0.88861105  0.07722028  1  -0.034561  0.00113  -0.091417  -0.137948  0.000664  3.981541  0.001
C  C309  1  0.46747217  0.86502979  0.12385004  1  -0.004186  0.000743  -0.081808  -0.08203  0.000343  3.970341  0.001
C  C310  1  0.42730841  0.97440877  0.04711542  1  -0.030349  0.000253  -0.00786  0.073023  0.000144  4.020679  0.0
C  C311  1  0.45915757  0.04647151  0.07179368  1  -0.053559  -0.000662  -0.085301  -0.169361  -0.000729  3.921256  0.0
C  C312  1  0.37820295  0.50691055  0.74553789  1  1.513936  -0.001435  0.215604  0.57858  -0.001754  4.151559  -0.005
C  C313  1  0.42252703  0.52276855  0.71369313  1  -0.064884  0.016838  -0.019393  -0.035524  0.012129  3.973857  0.013
C  C314  1  0.48976701  0.53125696  0.74172696  1  0.02975  0.000472  -0.079536  -0.082276  0.000123  3.968971  0.001
C  C315  1  0.53101456  0.54873621  0.71242839  1  -0.103965  0.001093  -0.088838  -0.136881  0.000636  3.979816  0.001
C  C316  1  0.50641027  0.55854383  0.65483857  1  -0.050106  -0.001294  -0.001688  0.075896  -0.001453  3.991299  -0.001
C  C317  1  0.43908265  0.55047117  0.62769175  1  -0.040232  0.001132  -0.091411  -0.137977  0.000664  3.981581  0.001
C  C318  1  0.39755858  0.53252879  0.65637785  1  -0.006809  0.000745  -0.081831  -0.082103  0.000343  3.970409  0.001
C  C319  1  0.54709900  0.57269012  0.61980691  1  -0.007071  0.000254  -0.007856  0.072951  0.000144  4.020784  0.0
C  C320  1  0.58731452  0.54084129  0.61263713  1  -0.011855  -0.000661  -0.085301  -0.169357  -0.000729  3.921296  0.0
C  C321  1  0.62179829  0.36733512  0.12870721  1  1.511939  -0.001278  0.215582  0.578511  -0.001753  4.151534  -0.005
C  C322  1  0.57747479  0.29116683  0.10024251  1  -0.016095  0.016684  -0.019376  -0.035431  0.012129  3.973765  0.013
C  C323  1  0.51023408  0.25196110  0.04149102  1  -0.044253  0.000529  -0.079537  -0.082273  0.000123  3.968931  0.001
C  C324  1  0.46898554  0.18141396  0.01772338  1  -0.012829  0.001074  -0.08888  -0.13692  0.000636  3.979971  0.001
C  C325  1  0.49358867  0.14842687  0.05213374  1  -0.054235  -0.001295  -0.001669  0.075882  -0.001454  3.991307  -0.001
C  C326  1  0.56091793  0.18860874  0.11138905  1  0.006216  0.001131  -0.091424  -0.137951  0.000664  3.981492  0.001
C  C327  1  0.60244207  0.25881935  0.13497050  1  -0.024217  0.000748  -0.081814  -0.082117  0.000343  3.970402  0.001
C  C328  1  0.45289861  0.07270651  0.02559025  1  -0.023267  0.000252  -0.007864  0.072924  0.000144  4.020982  0.0
C  C329  1  0.41268469  0.02532150  0.95352720  1  -0.040854  -0.000661  -0.085307  -0.170079  -0.000729  3.921097  0.0
C  C330  1  0.76137276  0.63266554  0.25446355  1  1.541474  -0.001484  0.215595  0.578467  -0.001753  4.151658  -0.005
C  C331  1  0.80907576  0.70883390  0.28630798  1  -0.082935  0.016946  -0.01941  -0.035465  0.012128  3.973814  0.013
C  C332  1  0.78953071  0.74804058  0.25827434  1  -0.02271  0.000487  -0.079529  -0.082246  0.000123  3.968893  0.001
C  C333  1  0.83631002  0.81858699  0.28757213  1  -0.023821  0.001073  -0.088871  -0.136876  0.000636  3.979898  0.001
C  C334  1  0.90370601  0.85157231  0.34516075  1  -0.051925  -0.001295  -0.001709  0.075831  -0.001453  3.99133  -0.001
C  C335  1  0.92278012  0.81139078  0.37230853  1  -0.058246  0.001146  -0.091433  -0.137953  0.000664  3.981511  0.001
C  C336  1  0.87615082  0.74117995  0.34362248  1  0.054043  0.000723  -0.081824  -0.082133  0.000343  3.970433  0.001
C  C337  1  0.95288443  0.92729404  0.38019276  1  0.029081  0.000254  -0.007842  0.073008  0.000144  4.020734  0.0
C  C338  1  0.92820673  0.97467899  0.38736445  1  0.001319  -0.00066  -0.08532  -0.169346  -0.000729  3.921438  0.0
C  C339  1  0.23862705  0.49308962  0.87129193  1  1.498329  -0.001318  0.215629  0.57869  -0.001754  4.151581  -0.005
C  C340  1  0.19092413  0.47723116  0.89975799  1  -0.041324  0.016727  -0.019392  -0.035587  0.01213  3.973837  0.013
C  C341  1  0.21046987  0.46874385  0.95850985  1  0.010314  0.000491  -0.079495  -0.082169  0.000123  3.968899  0.001
C  C342  1  0.16369148  0.45126369  0.98227742  1  -0.109505  0.00109  -0.088853  -0.136865  0.000636  3.979768  0.001
C  C343  1  0.09629478  0.44145598  0.94786685  1  -0.009776  -0.001292  -0.001706  0.075878  -0.001453  3.991275  -0.001
C  C344  1  0.07722056  0.44952877  0.88861113  1  -0.034917  0.00113  -0.091443  -0.138052  0.000664  3.981662  0.001
C  C345  1  0.12384827  0.46747090  0.86502908  1  -0.00954  0.000742  -0.081774  -0.081984  0.000343  3.970343  0.001
C  C346  1  0.04711737  0.42730956  0.97440909  1  -0.030543  0.000253  -0.007815  0.073017  0.000144  4.020723  0.0
C  C347  1  0.07179550  0.45915891  0.04647284  1  -0.053396  -0.000662  -0.085289  -0.169345  -0.000729  3.921327  0.0
O  O348  1  0.19981951  0.59655608  0.49802610  1  -1.086972  0.104554  -0.315612  -0.519959  0.06724  2.302255  0.095
O  O349  1  0.28382457  0.68192533  0.49887632  1  -1.099243  0.103775  -0.31854  -0.521667  0.066699  2.339794  0.094
O  O350  1  0.90147015  0.40344372  0.60326397  1  -1.086282  0.10459  -0.31559  -0.5199  0.067238  2.302252  0.095
O  O351  1  0.81695191  0.31807564  0.60190015  1  -1.110082  0.103664  -0.318574  -0.521726  0.0667  2.33985  0.094
O  O352  1  0.80017841  0.29820650  0.39673768  1  -1.103799  0.10445  -0.315584  -0.519856  0.067229  2.302469  0.095
O  O353  1  0.71617461  0.21504965  0.39810020  1  -1.104268  0.103754  -0.318554  -0.521681  0.06671  2.339767  0.094
O  O354  1  0.09853157  0.70179364  0.50197259  1  -1.086976  0.104518  -0.315593  -0.519888  0.067225  2.302453  0.095
O  O355  1  0.18304997  0.78495020  0.50112392  1  -1.098634  0.103779  -0.318538  -0.521664  0.066713  2.339737  0.094
O  O356  1  0.49802665  0.19982089  0.59655820  1  -1.087336  0.104534  -0.315529  -0.519805  0.067228  2.302356  0.095
O  O357  1  0.49887695  0.28382688  0.68192702  1  -1.099271  0.103797  -0.318518  -0.52166  0.066712  2.339719  0.094
O  O358  1  0.60326284  0.90146980  0.40344302  1  -1.086285  0.104592  -0.315604  -0.519918  0.067239  2.302271  0.095
O  O359  1  0.60189968  0.81695095  0.31807560  1  -1.110106  0.103661  -0.318519  -0.521691  0.066699  2.339894  0.094
O  O360  1  0.39673752  0.80017898  0.29820568  1  -1.103819  0.104447  -0.315571  -0.519868  0.067228  2.302411  0.095
O  O361  1  0.39809928  0.71617339  0.21504951  1  -1.104261  0.103757  -0.318531  -0.521682  0.066712  2.339629  0.094
O  O362  1  0.50197372  0.09853032  0.70179355  1  -1.08695  0.10454  -0.31559  -0.519865  0.06724  2.302263  0.095
O  O363  1  0.50112442  0.18304888  0.78494863  1  -1.098599  0.103755  -0.318509  -0.521614  0.066698  2.339804  0.094
O  O364  1  0.59655629  0.49802539  0.19981886  1  -1.08694  0.104554  -0.315603  -0.519884  0.06724  2.302284  0.095
O  O365  1  0.68192408  0.49887406  0.28382408  1  -1.099258  0.103779  -0.318529  -0.52167  0.066701  2.339873  0.094
O  O366  1  0.40344074  0.60326276  0.90146886  1  -1.086268  0.104581  -0.315616  -0.519931  0.067233  2.302361  0.095
O  O367  1  0.31807433  0.60190007  0.81695065  1  -1.110185  0.10367  -0.318549  -0.521719  0.066705  2.33973  0.094
O  O368  1  0.29820692  0.39673695  0.80017901  1  -1.103778  0.104461  -0.315579  -0.519871  0.067237  2.302258  0.095
O  O369  1  0.21504989  0.39809903  0.71617358  1  -1.104273  0.10374  -0.318551  -0.521733  0.066701  2.339805  0.094
O  O370  1  0.70179473  0.50197439  0.09853246  1  -1.086925  0.104534  -0.315549  -0.519863  0.067236  2.302419  0.095
O  O371  1  0.78495073  0.50112513  0.18305044  1  -1.098709  0.103767  -0.318542  -0.521692  0.066706  2.339802  0.094
O  O372  1  0.80018013  0.40344449  0.50197428  1  -1.086851  0.104554  -0.315587  -0.519898  0.06724  2.302233  0.095
O  O373  1  0.71617480  0.31807497  0.50112333  1  -1.099243  0.103775  -0.318572  -0.521685  0.066699  2.339834  0.094
O  O374  1  0.09853054  0.59655581  0.39673641  1  -1.086279  0.104592  -0.315618  -0.519963  0.06724  2.302342  0.095
O  O375  1  0.18304852  0.68192415  0.39810023  1  -1.110073  0.103665  -0.318506  -0.521666  0.066701  2.339847  0.094
O  O376  1  0.19982092  0.70179324  0.60326258  1  -1.103823  0.104447  -0.315549  -0.51981  0.067228  2.302305  0.095
O  O377  1  0.28382428  0.78494966  0.60189963  1  -1.104403  0.103754  -0.318569  -0.521731  0.06671  2.339835  0.094
O  O378  1  0.90146806  0.29820640  0.49802706  1  -1.086976  0.104524  -0.31559  -0.519881  0.067229  2.302441  0.095
O  O379  1  0.81695050  0.21505015  0.49887586  1  -1.098624  0.103775  -0.318522  -0.521661  0.06671  2.339755  0.094
O  O380  1  0.50197281  0.80017846  0.40344102  1  -1.087336  0.104537  -0.315578  -0.519885  0.067231  2.302464  0.095
O  O381  1  0.50112392  0.71617388  0.31807452  1  -1.099236  0.103791  -0.318534  -0.521718  0.066709  2.339729  0.094
O  O382  1  0.39673637  0.09853035  0.59655693  1  -1.086285  0.104586  -0.315589  -0.519864  0.067236  2.302291  0.095
O  O383  1  0.39810025  0.18304939  0.68192345  1  -1.1101  0.103668  -0.318511  -0.521698  0.066703  2.33989  0.094
O  O384  1  0.60326264  0.19982107  0.70179470  1  -1.103784  0.10445  -0.315559  -0.519806  0.06723  2.302507  0.095
O  O385  1  0.60190030  0.28382608  0.78495075  1  -1.104267  0.103754  -0.318494  -0.521571  0.06671  2.339817  0.094
O  O386  1  0.49802745  0.90147073  0.29820738  1  -1.086942  0.104536  -0.315613  -0.519924  0.067237  2.302226  0.095
O  O387  1  0.49887446  0.81694989  0.21505047  1  -1.098598  0.103763  -0.318513  -0.521673  0.066704  2.339839  0.094
O  O388  1  0.40344413  0.50197440  0.80018153  1  -1.086992  0.10456  -0.315608  -0.519911  0.067244  2.302201  0.095
O  O389  1  0.31807633  0.50112519  0.71617557  1  -1.099252  0.103777  -0.318522  -0.521691  0.066699  2.339923  0.094
O  O390  1  0.59655848  0.39673739  0.09853109  1  -1.086267  0.104581  -0.315571  -0.519868  0.067232  2.302354  0.095
O  O391  1  0.68192583  0.39809998  0.18304973  1  -1.110179  0.103673  -0.318529  -0.521659  0.066706  2.339763  0.094
O  O392  1  0.70179280  0.60326213  0.19982022  1  -1.103756  0.104466  -0.315595  -0.519871  0.067239  2.302333  0.095
O  O393  1  0.78494973  0.60190047  0.28382535  1  -1.104298  0.103734  -0.318549  -0.521665  0.066697  2.339911  0.094
O  O394  1  0.29820502  0.49802577  0.90146823  1  -1.086959  0.104532  -0.31557  -0.519942  0.067235  2.302399  0.095
O  O395  1  0.21504945  0.49887546  0.81695067  1  -1.098503  0.103768  -0.318548  -0.521722  0.066706  2.339755  0.094
