# generated using pymatgen
data_NiH30C26(N2O)4
_symmetry_space_group_name_H-M   'P 1'
_cell_length_a   19.81813077
_cell_length_b   19.81814246
_cell_length_c   19.68106421
_cell_angle_alpha   59.76972228
_cell_angle_beta   59.76983843
_cell_angle_gamma   59.99998602
_symmetry_Int_Tables_number   1
_chemical_formula_structural   NiH30C26(N2O)4
_chemical_formula_sum   'Ni6 H180 C156 N48 O24'
_cell_volume   5446.77115687
_cell_formula_units_Z   6
loop_
 _symmetry_equiv_pos_site_id
 _symmetry_equiv_pos_as_xyz
  1  'x, y, z'
loop_
 _atom_site_type_symbol
 _atom_site_label
 _atom_site_symmetry_multiplicity
 _atom_site_fract_x
 _atom_site_fract_y
 _atom_site_fract_z
 _atom_site_occupancy
 _atom_site_pbe_bader_charge
 _atom_site_pbe_bader_spin_density
 _atom_site_pbe_cm5_charge
 _atom_site_pbe_ddec_charge
 _atom_site_pbe_ddec_spin_density
 _atom_site_pbe_ddec_sum_bond_order
 _atom_site_pbe_magmom
Ni  Ni0  1  0.72630051  0.24999613  0.25000066  1  1.157283  1.552046  0.674939  0.646192  1.758789  2.636078  1.539
Ni  Ni1  1  0.77370556  0.72629219  0.25000101  1  1.158324  1.552078  0.675069  0.646509  1.758797  2.63572  1.539
Ni  Ni2  1  0.25000325  0.77369984  0.24999910  1  1.157257  1.552044  0.674948  0.646258  1.758787  2.63611  1.539
Ni  Ni3  1  0.27369921  0.75000557  0.74999930  1  1.157267  1.552046  0.67494  0.646275  1.758791  2.635999  1.539
Ni  Ni4  1  0.22629476  0.27370697  0.75000093  1  1.158347  1.552082  0.675023  0.646445  1.758799  2.635805  1.539
Ni  Ni5  1  0.74999709  0.22629934  0.74999977  1  1.157281  1.552045  0.674983  0.646278  1.75879  2.636069  1.539
H  H6  1  0.85533943  0.09122683  0.68373194  1  0.576889  0.000349  0.308141  0.267504  1.9e-05  1.024908  0.0
H  H7  1  0.36970482  0.85534367  0.68372904  1  0.549864  0.000356  0.308128  0.267469  1.9e-05  1.024955  0.0
H  H8  1  0.09122265  0.36971171  0.68372566  1  0.552248  0.000357  0.308166  0.267517  1.9e-05  1.024889  0.0
H  H9  1  0.64465744  0.13029590  0.81626869  1  0.550193  0.000356  0.30816  0.267527  1.9e-05  1.024857  0.0
H  H10  1  0.40877199  0.64466208  0.81626782  1  0.576891  0.000349  0.308152  0.267541  1.9e-05  1.024885  0.0
H  H11  1  0.13029012  0.40877806  0.81627490  1  0.552213  0.000357  0.308159  0.267531  1.9e-05  1.024906  0.0
H  H12  1  0.14465904  0.90877354  0.31626880  1  0.576876  0.000349  0.308165  0.267563  1.9e-05  1.024898  0.0
H  H13  1  0.63029676  0.14465742  0.31626927  1  0.54987  0.000356  0.308138  0.267496  1.9e-05  1.02494  0.0
H  H14  1  0.90877768  0.63028804  0.31627497  1  0.552245  0.000357  0.308136  0.267427  1.9e-05  1.024967  0.0
H  H15  1  0.35534228  0.86970348  0.18373039  1  0.549872  0.000356  0.308167  0.26754  1.9e-05  1.024902  0.0
H  H16  1  0.59122650  0.35534062  0.18373123  1  0.576886  0.000349  0.308134  0.267507  1.9e-05  1.024966  0.0
H  H17  1  0.86971083  0.59122206  0.18372574  1  0.55222  0.000357  0.308145  0.267493  1.9e-05  1.024891  0.0
H  H18  1  0.77814859  0.35172360  0.26525485  1  0.523339  0.00038  0.336166  0.279037  0.000114  0.945976  0.0
H  H19  1  0.60487070  0.77814803  0.26525633  1  0.510613  0.000387  0.336178  0.279009  0.000114  0.945936  0.0
H  H20  1  0.35173544  0.60487226  0.26525784  1  0.508327  0.000391  0.336195  0.279042  0.000114  0.946004  0.0
H  H21  1  0.72185103  0.89512882  0.23474544  1  0.510567  0.000387  0.336179  0.279033  0.000114  0.945904  0.0
H  H22  1  0.14827682  0.72185149  0.23474549  1  0.52336  0.00038  0.336174  0.279049  0.000114  0.945985  0.0
H  H23  1  0.89512927  0.14826427  0.23474093  1  0.508  0.000392  0.336188  0.279001  0.000114  0.946021  0.0
H  H24  1  0.22185113  0.64827811  0.73474409  1  0.523384  0.00038  0.336174  0.279054  0.000114  0.946025  0.0
H  H25  1  0.39513087  0.22185130  0.73474388  1  0.510609  0.000387  0.336166  0.279012  0.000114  0.94596  0.0
H  H26  1  0.64826552  0.39512787  0.73474076  1  0.508003  0.000392  0.3362  0.279022  0.000114  0.946055  0.0
H  H27  1  0.27814991  0.10487013  0.76525578  1  0.510619  0.000387  0.336176  0.27904  0.000114  0.945952  0.0
H  H28  1  0.85172289  0.27815021  0.76525447  1  0.523366  0.00038  0.336171  0.279047  0.000114  0.945989  0.0
H  H29  1  0.10486983  0.85173705  0.76525850  1  0.508316  0.000391  0.336189  0.279003  0.000114  0.946007  0.0
H  H30  1  0.77055825  0.92729945  0.28440224  1  0.078663  0.000274  0.100474  0.096319  0.000152  1.045374  0.0
H  H31  1  0.01774550  0.77054864  0.28439678  1  0.074538  0.000275  0.100453  0.096307  0.000151  1.045291  0.0
H  H32  1  0.92731659  0.01773545  0.28439112  1  0.08149  0.000275  0.100439  0.096353  0.000152  1.045254  0.0
H  H33  1  0.72944981  0.48225246  0.21560441  1  0.074442  0.000275  0.10046  0.096339  0.000151  1.045271  0.0
H  H34  1  0.57269905  0.72943979  0.21559854  1  0.078549  0.000274  0.100484  0.096326  0.000152  1.045328  0.0
H  H35  1  0.48226304  0.57268318  0.21560677  1  0.081479  0.000275  0.100414  0.096332  0.000152  1.045245  0.0
H  H36  1  0.22944208  0.07269971  0.71559817  1  0.078492  0.000274  0.100487  0.096363  0.000152  1.04534  0.0
H  H37  1  0.98225421  0.22944957  0.71560391  1  0.074532  0.000275  0.100456  0.096316  0.000151  1.045285  0.0
H  H38  1  0.07268436  0.98226235  0.71560916  1  0.081434  0.000275  0.100435  0.09635  0.000152  1.045183  0.0
H  H39  1  0.27055115  0.51774941  0.78439484  1  0.074415  0.000275  0.100468  0.096336  0.000151  1.04527  0.0
H  H40  1  0.42729881  0.27056020  0.78440269  1  0.078725  0.000274  0.100483  0.096311  0.000152  1.04536  0.0
H  H41  1  0.51773668  0.42731620  0.78439333  1  0.081494  0.000275  0.100429  0.096335  0.000151  1.045236  0.0
H  H42  1  0.88525587  0.33892290  0.36921063  1  0.019698  -0.000249  0.098439  0.14024  -0.000229  0.979774  0.0
H  H43  1  0.40661246  0.88525365  0.36920473  1  0.065301  -0.000248  0.098381  0.140152  -0.000229  0.979856  0.0
H  H44  1  0.33893279  0.40660821  0.36920750  1  0.040038  -0.000249  0.098383  0.140129  -0.000229  0.979897  0.0
H  H45  1  0.61474703  0.09338774  0.13079399  1  0.065288  -0.000248  0.098394  0.140168  -0.000229  0.979878  0.0
H  H46  1  0.16107797  0.61474354  0.13078943  1  0.019694  -0.000249  0.098439  0.140238  -0.000229  0.979748  0.0
H  H47  1  0.09339211  0.16106685  0.13079151  1  0.040105  -0.000249  0.098396  0.140153  -0.000229  0.979832  0.0
H  H48  1  0.11474323  0.66107842  0.63078880  1  0.01967  -0.000249  0.098451  0.140261  -0.000229  0.979706  0.0
H  H49  1  0.59338912  0.11474628  0.63079315  1  0.065462  -0.000248  0.098383  0.140152  -0.000229  0.979828  0.0
H  H50  1  0.66106693  0.59339117  0.63079158  1  0.040093  -0.000249  0.098379  0.140112  -0.000229  0.979825  0.0
H  H51  1  0.38525453  0.90661217  0.86920644  1  0.065274  -0.000248  0.098396  0.140174  -0.000229  0.979824  0.0
H  H52  1  0.83892236  0.38525679  0.86921040  1  0.019668  -0.000249  0.098423  0.140216  -0.000229  0.979754  0.0
H  H53  1  0.90660761  0.83893310  0.86920830  1  0.040086  -0.000249  0.09839  0.140139  -0.000229  0.979896  0.0
H  H54  1  0.78596103  0.37855425  0.43609517  1  0.061578  0.000284  0.099062  0.147766  0.000131  1.010483  0.0
H  H55  1  0.39938873  0.78596035  0.43609815  1  0.064928  0.000284  0.099058  0.147735  0.000131  1.010462  0.0
H  H56  1  0.37855888  0.39939065  0.43609490  1  0.030215  0.000291  0.099063  0.147725  0.000131  1.010561  0.0
H  H57  1  0.71404003  0.10061053  0.06390078  1  0.064908  0.000284  0.099057  0.147729  0.000131  1.010495  0.0
H  H58  1  0.12144560  0.71403938  0.06390477  1  0.061581  0.000284  0.099069  0.14778  0.000131  1.010465  0.0
H  H59  1  0.10061100  0.12143907  0.06390433  1  0.030163  0.000291  0.099087  0.147745  0.000131  1.010595  0.0
H  H60  1  0.21403807  0.62144649  0.56390507  1  0.061686  0.000284  0.099086  0.147837  0.000131  1.010482  0.0
H  H61  1  0.60061161  0.21403940  0.56390043  1  0.064895  0.000284  0.099053  0.14773  0.000131  1.010548  0.0
H  H62  1  0.62143960  0.60061030  0.56390452  1  0.030177  0.000291  0.09905  0.147685  0.000131  1.010643  0.0
H  H63  1  0.28596092  0.89938902  0.93609913  1  0.064919  0.000284  0.099047  0.147721  0.000131  1.010508  0.0
H  H64  1  0.87855412  0.28596116  0.93609526  1  0.06158  0.000284  0.099078  0.147793  0.000131  1.0105  0.0
H  H65  1  0.89938871  0.87856089  0.93609548  1  0.030179  0.000291  0.099063  0.147699  0.000131  1.010593  0.0
H  H66  1  0.80783388  0.42137120  0.32597978  1  0.10797  -6.8e-05  0.097919  0.152119  -7.4e-05  1.016739  0.0
H  H67  1  0.44481527  0.80782404  0.32598372  1  0.090472  -6.8e-05  0.097913  0.152103  -7.4e-05  1.016726  0.0
H  H68  1  0.42137868  0.44481269  0.32598026  1  0.097904  -6.8e-05  0.097872  0.15201  -7.4e-05  1.016796  0.0
H  H69  1  0.69217583  0.05518590  0.17401504  1  0.09058  -6.8e-05  0.097902  0.152079  -7.4e-05  1.016719  0.0
H  H70  1  0.07862884  0.69216573  0.17402145  1  0.107971  -6.8e-05  0.097904  0.15211  -7.4e-05  1.016723  0.0
H  H71  1  0.05518818  0.07861959  0.17401971  1  0.097891  -6.8e-05  0.097871  0.151997  -7.4e-05  1.016798  0.0
H  H72  1  0.19216521  0.57862955  0.67402045  1  0.108002  -6.8e-05  0.097915  0.152135  -7.4e-05  1.01672  0.0
H  H73  1  0.55518569  0.19217551  0.67401465  1  0.090574  -6.8e-05  0.097914  0.152113  -7.4e-05  1.016692  0.0
H  H74  1  0.57862042  0.55518748  0.67401925  1  0.097896  -6.8e-05  0.097879  0.152025  -7.4e-05  1.016767  0.0
H  H75  1  0.30782512  0.94481363  0.82598538  1  0.090577  -6.8e-05  0.097906  0.152083  -7.4e-05  1.016722  0.0
H  H76  1  0.92137087  0.30783480  0.82597961  1  0.107992  -6.8e-05  0.09792  0.152119  -7.4e-05  1.016736  0.0
H  H77  1  0.94481153  0.92138036  0.82598010  1  0.097918  -6.8e-05  0.097872  0.152001  -7.4e-05  1.016804  0.0
H  H78  1  0.69155913  0.11852748  0.45097849  1  0.054998  -0.000292  0.097486  0.140474  -0.000315  1.017089  0.0
H  H79  1  0.73894254  0.69157114  0.45096913  1  0.064722  -0.000291  0.097481  0.140501  -0.000315  1.017046  0.0
H  H80  1  0.11852685  0.73893287  0.45097218  1  0.054257  -0.000292  0.097499  0.140485  -0.000315  1.017093  0.0
H  H81  1  0.80842786  0.76105834  0.04903071  1  0.064748  -0.000291  0.097487  0.140517  -0.000315  1.017076  0.0
H  H82  1  0.38147291  0.80844121  0.04902037  1  0.054987  -0.000292  0.097498  0.140459  -0.000315  1.017088  0.0
H  H83  1  0.76106964  0.38147403  0.04902717  1  0.054201  -0.000292  0.097486  0.140465  -0.000315  1.017062  0.0
H  H84  1  0.30844121  0.88147344  0.54902104  1  0.054983  -0.000292  0.097497  0.140463  -0.000315  1.017071  0.0
H  H85  1  0.26105718  0.30842940  0.54903090  1  0.064722  -0.000291  0.097471  0.140488  -0.000315  1.017064  0.0
H  H86  1  0.88147472  0.26106879  0.54902788  1  0.054194  -0.000292  0.097483  0.140455  -0.000315  1.017081  0.0
H  H87  1  0.19157125  0.23894183  0.95096880  1  0.064726  -0.000291  0.097478  0.140498  -0.000315  1.017084  0.0
H  H88  1  0.61852743  0.19155971  0.95097865  1  0.055032  -0.000292  0.097488  0.140452  -0.000315  1.017064  0.0
H  H89  1  0.23893193  0.61852705  0.95097216  1  0.054293  -0.000292  0.097487  0.14046  -0.000315  1.017134  0.0
H  H90  1  0.73747242  0.08863678  0.52437490  1  0.011516  -8.4e-05  0.091342  0.125474  -5.8e-05  1.01648  0.0
H  H91  1  0.64952011  0.73747002  0.52437364  1  0.049345  -8.2e-05  0.091289  0.125399  -5.8e-05  1.016457  0.0
H  H92  1  0.08863923  0.64951352  0.52436843  1  0.035377  -8.3e-05  0.091258  0.125357  -5.8e-05  1.016462  0.0
H  H93  1  0.76252864  0.85048021  0.97562752  1  0.049377  -8.2e-05  0.091293  0.125394  -5.8e-05  1.016491  0.0
H  H94  1  0.41136364  0.76252783  0.97562457  1  0.011497  -8.4e-05  0.091321  0.125432  -5.8e-05  1.016496  0.0
H  H95  1  0.85048813  0.41136201  0.97563072  1  0.035328  -8.3e-05  0.091236  0.125325  -5.8e-05  1.016468  0.0
H  H96  1  0.26252791  0.91136355  0.47562492  1  0.011505  -8.4e-05  0.09132  0.125435  -5.8e-05  1.016508  0.0
H  H97  1  0.35047960  0.26252934  0.47562749  1  0.049366  -8.2e-05  0.091304  0.125427  -5.8e-05  1.016466  0.0
H  H98  1  0.91136234  0.35048814  0.47563163  1  0.035348  -8.3e-05  0.091247  0.125347  -5.8e-05  1.016473  0.0
H  H99  1  0.23747107  0.14952033  0.02437251  1  0.049371  -8.2e-05  0.091308  0.125442  -5.8e-05  1.016447  0.0
H  H100  1  0.58863669  0.23747250  0.02437525  1  0.011513  -8.4e-05  0.091341  0.125458  -5.8e-05  1.016485  0.0
H  H101  1  0.14951344  0.58863849  0.02436840  1  0.035363  -8.3e-05  0.091256  0.125353  -5.8e-05  1.016468  0.0
H  H102  1  0.79873211  0.06432096  0.43033340  1  0.025532  8.7e-05  0.094879  0.140026  4e-05  0.993345  0.0
H  H103  1  0.70660168  0.79874536  0.43033395  1  0.05026  8.9e-05  0.094881  0.140041  4e-05  0.993373  0.0
H  H104  1  0.06432547  0.70660590  0.43032582  1  0.053083  9e-05  0.094896  0.140048  4e-05  0.993343  0.0
H  H105  1  0.70125433  0.79339812  0.06966593  1  0.050236  8.9e-05  0.094895  0.140068  4e-05  0.993334  0.0
H  H106  1  0.43567999  0.70126730  0.06966529  1  0.025681  8.7e-05  0.094858  0.139998  4e-05  0.993367  0.0
H  H107  1  0.79339607  0.43567518  0.06967338  1  0.053039  9.1e-05  0.094879  0.140022  4e-05  0.993351  0.0
H  H108  1  0.20126760  0.93567958  0.56966612  1  0.025687  8.7e-05  0.094876  0.14002  4e-05  0.993327  0.0
H  H109  1  0.29339742  0.20125479  0.56966709  1  0.050336  8.9e-05  0.094891  0.14006  4e-05  0.993353  0.0
H  H110  1  0.93567486  0.29339617  0.56967466  1  0.053029  9.1e-05  0.09488  0.140023  4e-05  0.993357  0.0
H  H111  1  0.29874477  0.20660263  0.93033328  1  0.050273  8.9e-05  0.094908  0.140101  4e-05  0.993347  0.0
H  H112  1  0.56432097  0.29873283  0.93033381  1  0.025514  8.7e-05  0.094869  0.140012  4e-05  0.993389  0.0
H  H113  1  0.20660489  0.56432669  0.93032536  1  0.053083  9e-05  0.09489  0.140039  4e-05  0.993294  0.0
H  H114  1  0.66349230  0.36379708  0.60264922  1  0.054669  -0.000268  0.094455  0.130733  -0.000298  1.051211  0.0
H  H115  1  0.37005678  0.66349966  0.60265253  1  0.067576  -0.000266  0.094454  0.130717  -0.000298  1.051205  0.0
H  H116  1  0.36378405  0.37005657  0.60267284  1  0.080402  -0.000264  0.094445  0.130706  -0.000298  1.051209  0.0
H  H117  1  0.83650000  0.12994250  0.89734786  1  0.067596  -0.000266  0.094449  0.130709  -0.000298  1.051203  0.0
H  H118  1  0.13620218  0.83650868  0.89735010  1  0.054644  -0.000268  0.094462  0.130714  -0.000298  1.051204  0.0
H  H119  1  0.12994310  0.13621586  0.89732694  1  0.08039  -0.000264  0.094459  0.130727  -0.000298  1.051191  0.0
H  H120  1  0.33650743  0.63620346  0.39734979  1  0.054664  -0.000268  0.094459  0.130719  -0.000298  1.051212  0.0
H  H121  1  0.62994354  0.33649950  0.39734839  1  0.067563  -0.000266  0.094436  0.130681  -0.000298  1.051238  0.0
H  H122  1  0.63621567  0.62994281  0.39732675  1  0.080417  -0.000264  0.094449  0.130704  -0.000298  1.051211  0.0
H  H123  1  0.16350034  0.87005609  0.10265182  1  0.067566  -0.000266  0.094442  0.130691  -0.000298  1.051212  0.0
H  H124  1  0.86379754  0.16349186  0.10264941  1  0.054659  -0.000268  0.094467  0.130728  -0.000298  1.05121  0.0
H  H125  1  0.87005785  0.86378426  0.10267268  1  0.080396  -0.000264  0.094464  0.130733  -0.000298  1.051168  0.0
H  H126  1  0.66338918  0.35224493  0.51858731  1  0.032521  -5.7e-05  0.091711  0.129577  -3.6e-05  1.015439  0.0
H  H127  1  0.46577668  0.66338493  0.51859346  1  0.070402  -5.4e-05  0.091688  0.129511  -3.6e-05  1.015331  0.0
H  H128  1  0.35225633  0.46576249  0.51859326  1  0.031638  -5.7e-05  0.091718  0.129539  -3.6e-05  1.015381  0.0
H  H129  1  0.83661497  0.03422375  0.98140633  1  0.0704  -5.4e-05  0.091693  0.129523  -3.6e-05  1.015329  0.0
H  H130  1  0.14775275  0.83661255  0.98141294  1  0.032462  -5.7e-05  0.091665  0.129476  -3.6e-05  1.01546  0.0
H  H131  1  0.03423850  0.14774409  0.98140548  1  0.031665  -5.7e-05  0.091691  0.129514  -3.6e-05  1.015428  0.0
H  H132  1  0.33661115  0.64775424  0.48141258  1  0.032473  -5.7e-05  0.091708  0.129553  -3.6e-05  1.015453  0.0
H  H133  1  0.53422426  0.33661461  0.48140696  1  0.070313  -5.4e-05  0.091686  0.129521  -3.6e-05  1.015361  0.0
H  H134  1  0.64774338  0.53423747  0.48140655  1  0.031641  -5.7e-05  0.091708  0.129552  -3.6e-05  1.015354  0.0
H  H135  1  0.16338475  0.96577621  0.01859348  1  0.070291  -5.4e-05  0.091685  0.129512  -3.6e-05  1.015337  0.0
H  H136  1  0.85224573  0.16338840  0.01858801  1  0.03247  -5.7e-05  0.091701  0.129555  -3.6e-05  1.015457  0.0
H  H137  1  0.96576184  0.85225566  0.01859361  1  0.031635  -5.7e-05  0.091703  0.129546  -3.6e-05  1.015379  0.0
H  H138  1  0.60258182  0.31028172  0.62235803  1  0.053051  -0.000121  0.094101  0.136079  -0.00011  1.014004  0.0
H  H139  1  0.46476881  0.60258516  0.62236660  1  0.067298  -0.00012  0.094097  0.136085  -0.00011  1.013983  0.0
H  H140  1  0.31028004  0.46478339  0.62235826  1  0.045283  -0.000122  0.094109  0.136109  -0.00011  1.014044  0.0
H  H141  1  0.89741499  0.03523121  0.87763334  1  0.067312  -0.00012  0.094103  0.136096  -0.00011  1.013975  0.0
H  H142  1  0.18971852  0.89741731  0.87764172  1  0.053052  -0.000121  0.094105  0.13608  -0.00011  1.014005  0.0
H  H143  1  0.03521670  0.18972073  0.87764174  1  0.045345  -0.000122  0.094124  0.136114  -0.00011  1.01404  0.0
H  H144  1  0.39741728  0.68971844  0.37764198  1  0.053066  -0.000121  0.094105  0.136077  -0.00011  1.014022  0.0
H  H145  1  0.53523152  0.39741400  0.37763432  1  0.067353  -0.00012  0.094117  0.136106  -0.00011  1.01396  0.0
H  H146  1  0.68972029  0.53521578  0.37764163  1  0.045261  -0.000122  0.094092  0.136096  -0.00011  1.014032  0.0
H  H147  1  0.10258597  0.96476833  0.12236606  1  0.067288  -0.00012  0.094112  0.136096  -0.00011  1.013959  0.0
H  H148  1  0.81028181  0.10258244  0.12235840  1  0.053058  -0.000121  0.094102  0.136072  -0.00011  1.014007  0.0
H  H149  1  0.96478488  0.81027920  0.12235716  1  0.045341  -0.000122  0.094116  0.136131  -0.00011  1.014008  0.0
H  H150  1  0.87964961  0.00355126  0.56606813  1  0.060085  -0.00022  0.096887  0.133583  -0.000205  0.984127  0.0
H  H151  1  0.55073085  0.87965648  0.56606409  1  0.025457  -0.000221  0.096912  0.133587  -0.000205  0.984118  0.0
H  H152  1  0.00355245  0.55072112  0.56605997  1  0.063098  -0.000221  0.096942  0.133563  -0.000205  0.98404  0.0
H  H153  1  0.62034218  0.94927081  0.93393514  1  0.02548  -0.000221  0.096912  0.13357  -0.000205  0.98412  0.0
H  H154  1  0.49644699  0.62035240  0.93393077  1  0.060066  -0.00022  0.096869  0.133583  -0.000205  0.984104  0.0
H  H155  1  0.94927964  0.49644765  0.93393868  1  0.063132  -0.000221  0.096934  0.133553  -0.000205  0.984055  0.0
H  H156  1  0.12035073  0.99644849  0.43393199  1  0.060085  -0.00022  0.09687  0.133561  -0.000205  0.984128  0.0
H  H157  1  0.44927011  0.12034365  0.43393501  1  0.025484  -0.000221  0.096927  0.133593  -0.000205  0.98413  0.0
H  H158  1  0.99644727  0.44927941  0.43394005  1  0.063128  -0.000221  0.096946  0.133566  -0.000205  0.984042  0.0
H  H159  1  0.37965631  0.05073014  0.06606480  1  0.025475  -0.000221  0.096925  0.133602  -0.000205  0.984126  0.0
H  H160  1  0.50355274  0.37964931  0.06606766  1  0.060118  -0.00022  0.096887  0.133602  -0.000205  0.984097  0.0
H  H161  1  0.05072132  0.50355247  0.06606042  1  0.063126  -0.000221  0.096944  0.133562  -0.000205  0.984037  0.0
H  H162  1  0.91997308  0.07716916  0.47217048  1  0.03602  0.000314  0.098295  0.137905  0.000145  0.994636  0.0
H  H163  1  0.53069303  0.91997085  0.47216435  1  0.022463  0.000318  0.098257  0.137842  0.000145  0.994615  0.0
H  H164  1  0.07717929  0.53069731  0.47215512  1  0.002939  0.000317  0.098225  0.13776  0.000145  0.994616  0.0
H  H165  1  0.58002858  0.96930888  0.02783430  1  0.022504  0.000318  0.098257  0.137828  0.000145  0.994592  0.0
H  H166  1  0.42283146  0.58002593  0.02782919  1  0.036077  0.000314  0.098295  0.137906  0.000145  0.994641  0.0
H  H167  1  0.96930274  0.42282051  0.02784465  1  0.002933  0.000317  0.098234  0.137772  0.000145  0.994606  0.0
H  H168  1  0.08002602  0.92283158  0.52782975  1  0.036088  0.000313  0.098289  0.137897  0.000145  0.994636  0.0
H  H169  1  0.46930855  0.08002849  0.52783433  1  0.02251  0.000318  0.098255  0.137821  0.000145  0.994603  0.0
H  H170  1  0.92282042  0.46930264  0.52784571  1  0.003038  0.000317  0.098233  0.137773  0.000145  0.994556  0.0
H  H171  1  0.41997114  0.03069224  0.97216492  1  0.022491  0.000318  0.098247  0.137822  0.000145  0.994571  0.0
H  H172  1  0.57716950  0.41997536  0.97216881  1  0.036028  0.000313  0.098297  0.137893  0.000145  0.99465  0.0
H  H173  1  0.03069698  0.57717945  0.97215465  1  0.003057  0.000317  0.098229  0.137762  0.000145  0.994611  0.0
H  H174  1  0.95462028  0.03363578  0.55823914  1  0.064598  -9.5e-05  0.0999  0.141962  -8.3e-05  0.995303  0.0
H  H175  1  0.45350827  0.95462553  0.55822629  1  0.040897  -9.5e-05  0.099903  0.141964  -8.3e-05  0.995345  0.0
H  H176  1  0.03365541  0.45350276  0.55820805  1  0.05428  -9.5e-05  0.099894  0.141916  -8.3e-05  0.99544  0.0
H  H177  1  0.54537358  0.04649361  0.94177287  1  0.040815  -9.5e-05  0.099892  0.141945  -8.3e-05  0.995421  0.0
H  H178  1  0.46636472  0.54538056  0.94175976  1  0.0646  -9.5e-05  0.099901  0.141954  -8.3e-05  0.995306  0.0
H  H179  1  0.04649815  0.46634476  0.94179157  1  0.054252  -9.5e-05  0.099892  0.141896  -8.3e-05  0.995508  0.0
H  H180  1  0.04537881  0.96636496  0.44176110  1  0.064577  -9.5e-05  0.099921  0.142006  -8.3e-05  0.995322  0.0
H  H181  1  0.54649269  0.04537402  0.44177209  1  0.040818  -9.5e-05  0.0999  0.141951  -8.3e-05  0.995398  0.0
H  H182  1  0.96634307  0.54649877  0.44179210  1  0.054278  -9.5e-05  0.099875  0.141891  -8.3e-05  0.995447  0.0
H  H183  1  0.45462552  0.95350714  0.05822737  1  0.040841  -9.5e-05  0.099906  0.14197  -8.3e-05  0.99533  0.0
H  H184  1  0.53363563  0.45462152  0.05823867  1  0.064586  -9.5e-05  0.099911  0.141968  -8.3e-05  0.995251  0.0
H  H185  1  0.95350219  0.53365499  0.05820855  1  0.054269  -9.5e-05  0.0999  0.141913  -8.3e-05  0.995478  0.0
C  C186  1  0.77195277  0.06324479  0.28201066  1  1.555341  0.00034  0.207714  0.568299  -0.000213  4.199689  0.0
C  C187  1  0.88279668  0.77193612  0.28201801  1  1.555318  0.000342  0.20794  0.568701  -0.000213  4.199579  0.0
C  C188  1  0.06325371  0.88278679  0.28201175  1  1.566199  0.000354  0.207824  0.568464  -0.000213  4.1994  0.0
C  C189  1  0.72806105  0.61720182  0.21798450  1  1.555339  0.000342  0.207839  0.568525  -0.000213  4.199522  0.0
C  C190  1  0.43675270  0.72804699  0.21799109  1  1.555646  0.00034  0.207753  0.568418  -0.000214  4.199653  0.0
C  C191  1  0.61721033  0.43674407  0.21799165  1  1.565919  0.000354  0.207885  0.568509  -0.000214  4.199351  0.0
C  C192  1  0.22804816  0.93675357  0.71799188  1  1.555277  0.00034  0.207831  0.568458  -0.000214  4.199628  0.0
C  C193  1  0.11720363  0.22806129  0.71798430  1  1.555399  0.000342  0.207945  0.568728  -0.000213  4.199355  0.0
C  C194  1  0.93674537  0.11721046  0.71799025  1  1.565932  0.000354  0.207879  0.568426  -0.000213  4.199552  0.0
C  C195  1  0.27193865  0.38279754  0.78201714  1  1.555276  0.000341  0.207889  0.568644  -0.000213  4.19941  0.0
C  C196  1  0.56324578  0.27195222  0.78200972  1  1.55529  0.00034  0.207759  0.568389  -0.000214  4.199647  0.0
C  C197  1  0.38278999  0.56325567  0.78201000  1  1.565848  0.000354  0.207848  0.568533  -0.000213  4.199623  0.0
C  C198  1  0.84136975  0.98168430  0.28323328  1  -0.019642  0.008051  -0.02331  -0.043463  0.00472  3.989979  0.006
C  C199  1  0.89371472  0.84135588  0.28323801  1  -0.028218  0.008065  -0.023385  -0.043682  0.00472  3.99003  0.006
C  C200  1  0.98169536  0.89370380  0.28323337  1  -0.023201  0.008046  -0.023402  -0.043544  0.00472  3.989932  0.006
C  C201  1  0.65864127  0.60628380  0.21676342  1  -0.028331  0.008066  -0.023349  -0.043604  0.00472  3.99004  0.006
C  C202  1  0.51831259  0.65863062  0.21676716  1  -0.019643  0.008051  -0.023373  -0.043487  0.00472  3.989835  0.006
C  C203  1  0.60629278  0.51830301  0.21676846  1  -0.023614  0.008046  -0.023393  -0.043542  0.00472  3.989863  0.006
C  C204  1  0.15863058  0.01831428  0.71676742  1  -0.019592  0.008051  -0.023353  -0.043505  0.00472  3.989969  0.006
C  C205  1  0.10628499  0.15864174  0.71676348  1  -0.028397  0.008066  -0.023366  -0.043578  0.00472  3.989983  0.006
C  C206  1  0.01830310  0.10629365  0.71676934  1  -0.023316  0.008046  -0.023459  -0.043607  0.00472  3.989957  0.006
C  C207  1  0.34135720  0.39371714  0.78323753  1  -0.028327  0.008066  -0.023342  -0.04362  0.00472  3.989979  0.006
C  C208  1  0.48168651  0.34136954  0.78323337  1  -0.019643  0.008051  -0.023321  -0.04344  0.00472  3.989854  0.006
C  C209  1  0.39370755  0.48169732  0.78323187  1  -0.023607  0.008046  -0.0234  -0.04361  0.00472  3.989907  0.006
C  C210  1  0.83018915  0.91725218  0.28342201  1  -0.01698  -0.000524  -0.078978  -0.10127  -0.001077  3.944308  0.0
C  C211  1  0.96914288  0.83017556  0.28342013  1  -0.026956  -0.000517  -0.078935  -0.101243  -0.001076  3.944012  0.0
C  C212  1  0.91726591  0.96912961  0.28341694  1  -0.05317  -0.000508  -0.078845  -0.10126  -0.001076  3.944155  0.0
C  C213  1  0.66982136  0.53085535  0.21658166  1  -0.026493  -0.000516  -0.078927  -0.101263  -0.001077  3.944061  0.0
C  C214  1  0.58274631  0.66980952  0.21657853  1  -0.016811  -0.000524  -0.078915  -0.101193  -0.001077  3.944253  0.0
C  C215  1  0.53086767  0.58273343  0.21658340  1  -0.05308  -0.000508  -0.078848  -0.101294  -0.001077  3.943991  0.0
C  C216  1  0.16981056  0.08274719  0.71657860  1  -0.01684  -0.000524  -0.078966  -0.101329  -0.001077  3.944374  0.0
C  C217  1  0.03085621  0.16982110  0.71658165  1  -0.026874  -0.000516  -0.07892  -0.101248  -0.001077  3.944036  0.0
C  C218  1  0.08273442  0.03086838  0.71658456  1  -0.052967  -0.000508  -0.078865  -0.101282  -0.001077  3.944018  0.0
C  C219  1  0.33017898  0.46914557  0.78341787  1  -0.026503  -0.000516  -0.078916  -0.101193  -0.001077  3.943954  0.0
C  C220  1  0.41725217  0.33019143  0.78342191  1  -0.01697  -0.000525  -0.079002  -0.101322  -0.001077  3.944285  0.0
C  C221  1  0.46913267  0.41726573  0.78341700  1  -0.053102  -0.000508  -0.078855  -0.101243  -0.001077  3.944017  0.0
C  C222  1  0.81877673  0.36366618  0.37837147  1  -0.043395  0.000484  -0.232733  -0.431186  0.000194  3.943817  0.0
C  C223  1  0.43918735  0.81877279  0.37837039  1  -0.078539  0.000485  -0.232644  -0.430973  0.000194  3.943721  0.0
C  C224  1  0.36367511  0.43918231  0.37836884  1  -0.024347  0.000477  -0.232637  -0.430853  0.000194  3.943767  0.0
C  C225  1  0.68122621  0.06081446  0.12162796  1  -0.078616  0.000485  -0.232666  -0.430978  0.000194  3.943719  0.0
C  C226  1  0.13633370  0.68122318  0.12162925  1  -0.043377  0.000484  -0.232716  -0.431185  0.000194  3.943719  0.0
C  C227  1  0.06081852  0.13632302  0.12163016  1  -0.024388  0.000477  -0.23267  -0.430891  0.000194  3.943775  0.0
C  C228  1  0.18122237  0.63633514  0.62162847  1  -0.043487  0.000484  -0.232759  -0.431288  0.000194  3.943718  0.0
C  C229  1  0.56081424  0.18122656  0.62162727  1  -0.078903  0.000485  -0.232677  -0.431027  0.000194  3.943724  0.0
C  C230  1  0.63632400  0.56081728  0.62162994  1  -0.024342  0.000477  -0.232622  -0.4308  0.000194  3.943755  0.0
C  C231  1  0.31877351  0.93918666  0.87837177  1  -0.078723  0.000485  -0.232674  -0.431006  0.000194  3.943743  0.0
C  C232  1  0.86366601  0.31877735  0.87837180  1  -0.043294  0.000484  -0.232737  -0.431164  0.000194  3.943794  0.0
C  C233  1  0.93918181  0.86367615  0.87836923  1  -0.024378  0.000477  -0.232665  -0.430842  0.000194  3.943834  0.0
C  C234  1  0.79308143  0.30136601  0.38447859  1  0.412035  -6.9e-05  0.100874  0.202594  -0.000651  3.985444  0.0
C  C235  1  0.52107491  0.79307966  0.38447720  1  0.386947  -6.6e-05  0.100877  0.202508  -0.00065  3.985421  0.0
C  C236  1  0.30137266  0.52107306  0.38447379  1  0.393264  -7.4e-05  0.100848  0.202529  -0.000651  3.985325  0.0
C  C237  1  0.70692000  0.97892454  0.11552269  1  0.38698  -6.6e-05  0.100909  0.202611  -0.00065  3.985369  0.0
C  C238  1  0.19863543  0.70691834  0.11552043  1  0.411797  -6.9e-05  0.100875  0.202607  -0.000651  3.985405  0.0
C  C239  1  0.97892868  0.19862589  0.11552448  1  0.393234  -7.3e-05  0.100877  0.202608  -0.000651  3.985258  0.0
C  C240  1  0.20691705  0.69863610  0.61552126  1  0.411764  -6.9e-05  0.100894  0.202608  -0.000651  3.985427  0.0
C  C241  1  0.47892543  0.20691951  0.61552219  1  0.386976  -6.6e-05  0.100873  0.202532  -0.00065  3.985414  0.0
C  C242  1  0.69862583  0.47892674  0.61552468  1  0.393226  -7.3e-05  0.100854  0.202551  -0.00065  3.985353  0.0
C  C243  1  0.29308033  0.02107521  0.88447742  1  0.387083  -6.7e-05  0.100918  0.202591  -0.00065  3.985371  0.0
C  C244  1  0.80136491  0.29308316  0.88447829  1  0.411644  -6.9e-05  0.10085  0.202539  -0.00065  3.985491  0.0
C  C245  1  0.02107166  0.80137444  0.88447535  1  0.393246  -7.3e-05  0.100853  0.202528  -0.000651  3.98528  0.0
C  C246  1  0.77943818  0.22845418  0.44923927  1  0.002984  0.003935  -0.036122  -0.147559  0.002184  4.071451  0.003
C  C247  1  0.54286922  0.77943654  0.44923886  1  0.02283  0.003937  -0.036101  -0.147507  0.002184  4.071341  0.003
C  C248  1  0.22846018  0.54286536  0.44923458  1  0.056696  0.003899  -0.036086  -0.147536  0.002184  4.071271  0.003
C  C249  1  0.72056150  0.95713098  0.05076150  1  0.022857  0.003937  -0.036163  -0.147653  0.002184  4.071406  0.003
C  C250  1  0.27154540  0.72056093  0.05076109  1  0.003054  0.003935  -0.0361  -0.147513  0.002184  4.071542  0.003
C  C251  1  0.95713615  0.27153975  0.05076454  1  0.056718  0.003899  -0.036126  -0.147618  0.002184  4.071204  0.003
C  C252  1  0.22056153  0.77154578  0.55076105  1  0.00293  0.003935  -0.036149  -0.147628  0.002184  4.071548  0.003
C  C253  1  0.45713111  0.22056146  0.55076163  1  0.022813  0.003937  -0.036134  -0.147582  0.002184  4.071496  0.003
C  C254  1  0.77153892  0.45713480  0.55076493  1  0.056767  0.003899  -0.036149  -0.147651  0.002184  4.071328  0.003
C  C255  1  0.27943821  0.04286955  0.94923853  1  0.022854  0.003937  -0.036177  -0.147581  0.002184  4.071401  0.003
C  C256  1  0.72845432  0.27944020  0.94923814  1  0.003093  0.003935  -0.036115  -0.147569  0.002184  4.071452  0.003
C  C257  1  0.04286357  0.72846079  0.94923600  1  0.056717  0.003899  -0.0361  -0.147599  0.002184  4.071289  0.003
C  C258  1  0.76320630  0.19115086  0.41587372  1  0.43822  0.001945  0.099755  0.204199  0.000651  3.986486  0.003
C  C259  1  0.62976991  0.76320461  0.41587244  1  0.469051  0.001904  0.099732  0.204291  0.000651  3.986401  0.003
C  C260  1  0.19115651  0.62976649  0.41586770  1  0.424429  0.001978  0.099721  0.204207  0.00065  3.986484  0.003
C  C261  1  0.73679289  0.87023034  0.08412827  1  0.469045  0.001904  0.099764  0.204323  0.000651  3.986417  0.003
C  C262  1  0.30884898  0.73679311  0.08412638  1  0.438403  0.001945  0.099748  0.204132  0.000651  3.986566  0.003
C  C263  1  0.87023481  0.30884389  0.08413218  1  0.424355  0.001979  0.099727  0.204193  0.000651  3.986475  0.003
C  C264  1  0.23679280  0.80884930  0.58412681  1  0.43829  0.001945  0.099819  0.204309  0.00065  3.986502  0.003
C  C265  1  0.37023042  0.23679339  0.58412804  1  0.469051  0.001904  0.099761  0.204274  0.000652  3.986459  0.003
C  C266  1  0.80884321  0.37023463  0.58413152  1  0.424361  0.001979  0.099717  0.204161  0.000651  3.986496  0.003
C  C267  1  0.26320621  0.12976982  0.91587226  1  0.46904  0.001903  0.099741  0.204236  0.000651  3.986507  0.003
C  C268  1  0.69115075  0.26320801  0.91587233  1  0.438442  0.001945  0.099773  0.204217  0.000651  3.9865  0.003
C  C269  1  0.12976490  0.69115839  0.91586851  1  0.42438  0.001979  0.099758  0.20428  0.000651  3.986466  0.003
C  C270  1  0.74669063  0.11133037  0.45775270  1  0.038149  0.00019  -0.236426  -0.421021  -0.000192  3.963789  0.0
C  C271  1  0.68422698  0.74669531  0.45775017  1  -0.05078  0.000189  -0.236375  -0.421015  -0.000192  3.963715  0.0
C  C272  1  0.11133184  0.68422480  0.45774620  1  -0.018586  0.00019  -0.236376  -0.420925  -0.000192  3.963548  0.0
C  C273  1  0.75330313  0.81577311  0.04225073  1  -0.050815  0.000189  -0.236403  -0.421051  -0.000192  3.963799  0.0
C  C274  1  0.38867050  0.75330866  0.04224650  1  0.037757  0.000191  -0.2364  -0.420904  -0.000192  3.963808  0.0
C  C275  1  0.81577829  0.38866848  0.04225319  1  -0.018418  0.00019  -0.236316  -0.420843  -0.000192  3.96361  0.0
C  C276  1  0.25330909  0.88867075  0.54224653  1  0.037987  0.000191  -0.236396  -0.420951  -0.000192  3.963717  0.0
C  C277  1  0.31577273  0.25330406  0.54225044  1  -0.05087  0.000189  -0.236382  -0.421023  -0.000192  3.963769  0.0
C  C278  1  0.88866973  0.31577687  0.54225335  1  -0.018441  0.00019  -0.236328  -0.420836  -0.000192  3.963513  0.0
C  C279  1  0.24669597  0.18422763  0.95774951  1  -0.050836  0.000189  -0.236414  -0.421089  -0.000192  3.963792  0.0
C  C280  1  0.61132984  0.24669225  0.95775252  1  0.037848  0.000191  -0.236414  -0.420958  -0.000192  3.963823  0.0
C  C281  1  0.18422328  0.61133318  0.95774585  1  -0.018596  0.00019  -0.236357  -0.420899  -0.000192  3.963591  0.0
C  C282  1  0.66209702  0.32148036  0.58347926  1  -0.038924  0.000258  -0.239668  -0.425951  -0.00017  3.956798  0.0
C  C283  1  0.43293841  0.66209830  0.58348627  1  -0.096814  0.000249  -0.239598  -0.425785  -0.00017  3.956611  0.0
C  C284  1  0.32147838  0.43294005  0.58348907  1  -0.045899  0.000251  -0.239661  -0.425934  -0.00017  3.956784  0.0
C  C285  1  0.83790157  0.06706109  0.91651397  1  -0.096778  0.000249  -0.239626  -0.42584  -0.00017  3.95662  0.0
C  C286  1  0.17851899  0.83790359  0.91651923  1  -0.03886  0.000258  -0.23963  -0.425798  -0.00017  3.956713  0.0
C  C287  1  0.06706132  0.17852186  0.91651060  1  -0.04596  0.000251  -0.239652  -0.425904  -0.00017  3.956758  0.0
C  C288  1  0.33790208  0.67851981  0.41651974  1  -0.038862  0.000258  -0.239671  -0.425903  -0.00017  3.956812  0.0
C  C289  1  0.56706191  0.33790086  0.41651568  1  -0.096726  0.000249  -0.239622  -0.425816  -0.00017  3.956613  0.0
C  C290  1  0.67852195  0.56705970  0.41651054  1  -0.045897  0.000251  -0.239645  -0.425924  -0.00017  3.956719  0.0
C  C291  1  0.16209877  0.93293925  0.08348431  1  -0.096684  0.000248  -0.23959  -0.42578  -0.00017  3.956619  0.0
C  C292  1  0.82148012  0.16209774  0.08348020  1  -0.038863  0.000257  -0.239666  -0.425914  -0.00017  3.956819  0.0
C  C293  1  0.93294026  0.82147865  0.08348801  1  -0.045944  0.000251  -0.239643  -0.425931  -0.00017  3.95675  0.0
C  C294  1  0.73238542  0.24198549  0.59154428  1  0.456168  0.001226  0.098132  0.208496  -9.6e-05  3.975411  0.002
C  C295  1  0.43408452  0.73238625  0.59154547  1  0.466268  0.001252  0.098084  0.208337  -9.5e-05  3.975405  0.002
C  C296  1  0.24198495  0.43408818  0.59154417  1  0.452638  0.001221  0.098099  0.208493  -9.5e-05  3.975269  0.002
C  C297  1  0.76761446  0.06591496  0.90845429  1  0.466207  0.001252  0.098114  0.208416  -9.5e-05  3.975397  0.002
C  C298  1  0.25801316  0.76761380  0.90845592  1  0.456186  0.001225  0.09814  0.208451  -9.6e-05  3.975375  0.002
C  C299  1  0.06591443  0.25801498  0.90845495  1  0.452682  0.001221  0.09814  0.208524  -9.5e-05  3.975224  0.002
C  C300  1  0.26761368  0.75801468  0.40845523  1  0.45619  0.001226  0.098165  0.208528  -9.6e-05  3.975401  0.002
C  C301  1  0.56591705  0.26761249  0.40845554  1  0.46642  0.001251  0.098101  0.208375  -9.6e-05  3.975396  0.002
C  C302  1  0.75801477  0.56591294  0.40845505  1  0.452664  0.001221  0.0981  0.208475  -9.5e-05  3.975326  0.002
C  C303  1  0.23238712  0.93408322  0.09154396  1  0.466409  0.001251  0.098091  0.208415  -9.6e-05  3.975354  0.002
C  C304  1  0.74198594  0.23238694  0.09154381  1  0.456171  0.001226  0.098171  0.208523  -9.5e-05  3.975416  0.002
C  C305  1  0.93408653  0.74198573  0.09154437  1  0.452632  0.001221  0.098111  0.208442  -9.5e-05  3.975287  0.002
C  C306  1  0.78122482  0.19921012  0.53303763  1  0.037082  0.004514  -0.039725  -0.148202  0.002528  4.077477  0.003
C  C307  1  0.48652951  0.78122465  0.53303849  1  -0.012165  0.00454  -0.039691  -0.148245  0.002528  4.077314  0.003
C  C308  1  0.19921321  0.48652689  0.53303440  1  -0.055465  0.004525  -0.039723  -0.148166  0.002528  4.077275  0.003
C  C309  1  0.71877455  0.01347159  0.96696122  1  -0.012169  0.00454  -0.039718  -0.148263  0.002528  4.077373  0.003
C  C310  1  0.30078799  0.71877388  0.96696370  1  0.037066  0.004514  -0.039739  -0.148218  0.002528  4.077483  0.003
C  C311  1  0.01347487  0.30078626  0.96696527  1  -0.055519  0.004526  -0.039741  -0.148189  0.002528  4.077277  0.003
C  C312  1  0.21877428  0.80078946  0.46696319  1  0.037096  0.004514  -0.039773  -0.148232  0.002528  4.077452  0.003
C  C313  1  0.51347205  0.21877293  0.46696261  1  -0.012149  0.00454  -0.039676  -0.148205  0.002528  4.077358  0.003
C  C314  1  0.80078651  0.51347306  0.46696541  1  -0.05512  0.004526  -0.039716  -0.14814  0.002528  4.077168  0.003
C  C315  1  0.28122579  0.98652816  0.03303838  1  -0.012166  0.00454  -0.039724  -0.148329  0.002528  4.077402  0.003
C  C316  1  0.69921110  0.28122628  0.03303683  1  0.037072  0.004514  -0.039773  -0.148256  0.002528  4.077509  0.003
C  C317  1  0.98652546  0.69921407  0.03303404  1  -0.055502  0.004525  -0.039741  -0.148149  0.002528  4.07729  0.003
C  C318  1  0.83454249  0.12562364  0.57101715  1  0.397569  -0.000171  0.094691  0.194652  -0.000696  4.009496  0.0
C  C319  1  0.46881808  0.83454592  0.57101607  1  0.450128  -0.000185  0.094702  0.194687  -0.000697  4.009438  0.0
C  C320  1  0.12562541  0.46881696  0.57101028  1  0.480286  -0.000168  0.094646  0.194523  -0.000696  4.009616  0.0
C  C321  1  0.66545383  0.03118284  0.92898338  1  0.450122  -0.000185  0.094637  0.194609  -0.000697  4.009491  0.0
C  C322  1  0.37437528  0.66545658  0.92898270  1  0.397412  -0.000171  0.094715  0.194668  -0.000696  4.009525  0.0
C  C323  1  0.03118493  0.37437379  0.92898890  1  0.480339  -0.000168  0.094652  0.194504  -0.000696  4.00964  0.0
C  C324  1  0.16545661  0.87437652  0.42898236  1  0.397587  -0.000171  0.094672  0.194579  -0.000696  4.009595  0.0
C  C325  1  0.53118349  0.16545284  0.42898392  1  0.450102  -0.000185  0.094669  0.19464  -0.000697  4.009515  0.0
C  C326  1  0.87437369  0.53118379  0.42898894  1  0.479879  -0.000168  0.094645  0.194504  -0.000696  4.009513  0.0
C  C327  1  0.33454650  0.96881691  0.07101673  1  0.45012  -0.000186  0.094645  0.194625  -0.000697  4.009513  0.0
C  C328  1  0.62562382  0.33454474  0.07101673  1  0.397399  -0.000171  0.094668  0.194587  -0.000697  4.009605  0.0
C  C329  1  0.96881540  0.62562655  0.07101092  1  0.480298  -0.000169  0.094638  0.194494  -0.000696  4.009647  0.0
C  C330  1  0.90070348  0.05626359  0.54045769  1  -0.056597  0.000622  -0.229183  -0.420359  0.000262  3.989934  0.001
C  C331  1  0.50257838  0.90070576  0.54045186  1  0.010945  0.000617  -0.22916  -0.420271  0.000262  3.98981  0.001
C  C332  1  0.05627294  0.50257536  0.54044280  1  -0.010845  0.000616  -0.229141  -0.42009  0.000262  3.989937  0.001
C  C333  1  0.59929252  0.99742401  0.95954662  1  0.010998  0.000617  -0.229158  -0.420226  0.000262  3.989855  0.001
C  C334  1  0.44373587  0.59929661  0.95954101  1  -0.056605  0.000622  -0.229173  -0.420355  0.000262  3.989961  0.001
C  C335  1  0.99742594  0.44372784  0.95955638  1  -0.010835  0.000616  -0.229138  -0.420049  0.000262  3.989923  0.001
C  C336  1  0.09929624  0.94373636  0.45954212  1  -0.056655  0.000622  -0.229181  -0.420358  0.000262  3.989943  0.001
C  C337  1  0.49742444  0.09929259  0.45954619  1  0.010964  0.000617  -0.229161  -0.420224  0.000262  3.989857  0.001
C  C338  1  0.94372678  0.49742517  0.45955775  1  -0.010947  0.000616  -0.22912  -0.420059  0.000262  3.989779  0.001
C  C339  1  0.40070659  0.00257673  0.04045311  1  0.010981  0.000617  -0.229129  -0.420234  0.000262  3.989787  0.001
C  C340  1  0.55626447  0.40070432  0.04045699  1  -0.056639  0.000622  -0.229182  -0.420344  0.000262  3.989855  0.001
C  C341  1  0.00257440  0.55627307  0.04044315  1  -0.010955  0.000616  -0.229149  -0.42007  0.000262  3.989932  0.001
N  N342  1  0.75660385  0.19746761  0.65924905  1  -0.706283  0.065092  -0.254531  -0.227271  0.03818  3.484842  0.059
N  N343  1  0.38667872  0.75660954  0.65924695  1  -0.728606  0.065065  -0.254539  -0.227263  0.038179  3.48499  0.059
N  N344  1  0.19746253  0.38668494  0.65924866  1  -0.722238  0.065095  -0.254567  -0.227383  0.038178  3.48497  0.059
N  N345  1  0.74339170  0.11331994  0.84075136  1  -0.728391  0.065066  -0.254488  -0.227243  0.038178  3.484987  0.059
N  N346  1  0.30253072  0.74339688  0.84075112  1  -0.706323  0.065092  -0.254558  -0.227315  0.03818  3.484912  0.059
N  N347  1  0.11331708  0.30253820  0.84075138  1  -0.722259  0.065097  -0.254566  -0.227349  0.038179  3.484989  0.059
N  N348  1  0.24339525  0.80253197  0.34075075  1  -0.706281  0.065091  -0.254576  -0.227375  0.038179  3.484943  0.059
N  N349  1  0.61332284  0.24338979  0.34075429  1  -0.728801  0.06507  -0.25447  -0.227131  0.03818  3.484736  0.059
N  N350  1  0.80253843  0.61331460  0.34075125  1  -0.722218  0.065098  -0.254531  -0.22736  0.038179  3.485022  0.059
N  N351  1  0.25661051  0.88667687  0.15924624  1  -0.7288  0.065066  -0.254536  -0.227296  0.038179  3.48489  0.059
N  N352  1  0.69746900  0.25660423  0.15924912  1  -0.706283  0.065088  -0.254558  -0.227295  0.038178  3.484815  0.059
N  N353  1  0.88668326  0.69746272  0.15924764  1  -0.722217  0.065097  -0.254554  -0.227319  0.038179  3.484936  0.059
N  N354  1  0.76515971  0.23911372  0.33685248  1  -0.704995  0.06333  -0.254708  -0.218691  0.037462  3.481502  0.057
N  N355  1  0.65887408  0.76515902  0.33685088  1  -0.725133  0.063399  -0.254724  -0.218805  0.037458  3.481596  0.057
N  N356  1  0.23911889  0.65887114  0.33684836  1  -0.718188  0.063391  -0.254726  -0.21875  0.037463  3.481645  0.057
N  N357  1  0.73483884  0.84112572  0.16315042  1  -0.725098  0.063398  -0.254727  -0.21882  0.037458  3.481584  0.057
N  N358  1  0.26088718  0.73483925  0.16314675  1  -0.705017  0.06333  -0.254738  -0.218713  0.037462  3.481673  0.057
N  N359  1  0.84113008  0.26088125  0.16315068  1  -0.718132  0.063389  -0.254665  -0.218643  0.037462  3.481455  0.057
N  N360  1  0.23483815  0.76088802  0.66314736  1  -0.705021  0.063327  -0.254788  -0.218798  0.03746  3.481668  0.057
N  N361  1  0.34112687  0.23483994  0.66314881  1  -0.725068  0.063399  -0.254695  -0.218762  0.037458  3.481547  0.057
N  N362  1  0.76088207  0.34112899  0.66315074  1  -0.718157  0.063389  -0.254716  -0.218719  0.037462  3.481606  0.057
N  N363  1  0.26516088  0.15887423  0.83685042  1  -0.7251  0.0634  -0.254695  -0.218747  0.037458  3.481565  0.057
N  N364  1  0.73911254  0.26516246  0.83685218  1  -0.705027  0.063326  -0.254707  -0.21869  0.037459  3.481592  0.057
N  N365  1  0.15887025  0.73911966  0.83684987  1  -0.718137  0.063389  -0.254706  -0.21874  0.037463  3.481479  0.057
N  N366  1  0.81702109  0.12683366  0.64626730  1  -0.875084  0.001368  -0.285254  -0.152132  -0.000484  3.669347  0.0
N  N367  1  0.40987944  0.81702741  0.64626314  1  -0.839719  0.001359  -0.285257  -0.152104  -0.000484  3.669622  0.0
N  N368  1  0.12683204  0.40988441  0.64626061  1  -0.840431  0.001362  -0.285211  -0.152024  -0.000484  3.669577  0.0
N  N369  1  0.68297455  0.09012078  0.85373450  1  -0.840315  0.001359  -0.285258  -0.152092  -0.000484  3.669549  0.0
N  N370  1  0.37316560  0.68297889  0.85373292  1  -0.874898  0.001368  -0.285259  -0.15212  -0.000484  3.669316  0.0
N  N371  1  0.09011681  0.37316856  0.85373928  1  -0.840452  0.001362  -0.285245  -0.152084  -0.000484  3.669657  0.0
N  N372  1  0.18297739  0.87316728  0.35373314  1  -0.875114  0.001368  -0.285199  -0.152035  -0.000484  3.669363  0.0
N  N373  1  0.59012275  0.18297172  0.35373687  1  -0.839722  0.001359  -0.285311  -0.152213  -0.000484  3.669407  0.0
N  N374  1  0.87316829  0.59011533  0.35373950  1  -0.840445  0.001363  -0.285197  -0.151932  -0.000484  3.669591  0.0
N  N375  1  0.31702765  0.90987719  0.14626354  1  -0.839732  0.001359  -0.285226  -0.152065  -0.000484  3.669576  0.0
N  N376  1  0.62683351  0.31702361  0.14626541  1  -0.874897  0.001368  -0.285226  -0.152071  -0.000484  3.669389  0.0
N  N377  1  0.90988352  0.62683177  0.14626055  1  -0.840442  0.001362  -0.285219  -0.152051  -0.000484  3.669625  0.0
N  N378  1  0.78420389  0.30408558  0.31924394  1  -0.857851  0.001353  -0.291627  -0.155347  -0.000266  3.729743  0.0
N  N379  1  0.59246718  0.78420173  0.31924306  1  -0.836877  0.001334  -0.291659  -0.155333  -0.000266  3.729896  0.0
N  N380  1  0.30409253  0.59246405  0.31923911  1  -0.841623  0.00133  -0.291606  -0.15538  -0.000265  3.729739  0.0
N  N381  1  0.71579700  0.90753299  0.18075753  1  -0.836866  0.001334  -0.291624  -0.155347  -0.000265  3.729888  0.0
N  N382  1  0.19591548  0.71579571  0.18075637  1  -0.857616  0.001352  -0.291636  -0.155371  -0.000266  3.729817  0.0
N  N383  1  0.90753765  0.19590664  0.18075879  1  -0.841249  0.00133  -0.291661  -0.155419  -0.000265  3.729667  0.0
N  N384  1  0.21579335  0.69591636  0.68075714  1  -0.857619  0.001353  -0.291637  -0.155372  -0.000265  3.729819  0.0
N  N385  1  0.40753439  0.21579702  0.68075693  1  -0.836787  0.001334  -0.291655  -0.155319  -0.000266  3.729793  0.0
N  N386  1  0.69590596  0.40753633  0.68075958  1  -0.841261  0.00133  -0.291618  -0.155362  -0.000265  3.729737  0.0
N  N387  1  0.28420333  0.09246618  0.81924288  1  -0.83688  0.001334  -0.291647  -0.155361  -0.000265  3.729872  0.0
N  N388  1  0.80408424  0.28420599  0.81924307  1  -0.857617  0.001352  -0.291646  -0.15537  -0.000266  3.729818  0.0
N  N389  1  0.09246268  0.80409485  0.81924045  1  -0.841598  0.00133  -0.291621  -0.155342  -0.000266  3.729622  0.0
O  O390  1  0.78697662  0.11985402  0.28066093  1  -1.158205  0.071163  -0.310639  -0.554156  0.039517  2.382399  0.066
O  O391  1  0.81251145  0.78696039  0.28066941  1  -1.155301  0.071132  -0.310777  -0.55439  0.039521  2.382392  0.066
O  O392  1  0.11986476  0.81250583  0.28066011  1  -1.170732  0.071157  -0.310673  -0.55426  0.03952  2.382547  0.066
O  O393  1  0.71303522  0.68748706  0.21933481  1  -1.155294  0.071133  -0.310728  -0.554345  0.039521  2.382405  0.066
O  O394  1  0.38014236  0.71302312  0.21934185  1  -1.15822  0.071167  -0.310678  -0.554304  0.03952  2.382523  0.066
O  O395  1  0.68749251  0.38013332  0.21934316  1  -1.170647  0.07116  -0.310652  -0.554267  0.039523  2.382584  0.066
O  O396  1  0.21302369  0.88014396  0.71934263  1  -1.15815  0.071167  -0.310668  -0.554239  0.039519  2.382475  0.066
O  O397  1  0.18748824  0.21303663  0.71933493  1  -1.155433  0.07113  -0.310743  -0.554401  0.039521  2.382414  0.066
O  O398  1  0.88013433  0.18749200  0.71934057  1  -1.170646  0.071156  -0.310692  -0.554231  0.03952  2.382615  0.066
O  O399  1  0.28696512  0.31251327  0.78066501  1  -1.15526  0.071132  -0.310751  -0.554394  0.039521  2.382392  0.066
O  O400  1  0.61985736  0.28697567  0.78065752  1  -1.158159  0.071165  -0.310662  -0.554224  0.039519  2.382414  0.066
O  O401  1  0.31250906  0.61986659  0.78065727  1  -1.170575  0.071155  -0.310663  -0.554296  0.03952  2.382677  0.066
O  O402  1  0.70491292  0.07004765  0.28190536  1  -1.176251  0.0006  -0.325039  -0.553503  -0.000443  2.177197  0.001
O  O403  1  0.94313650  0.70489834  0.28191667  1  -1.180524  0.000599  -0.325096  -0.553593  -0.000443  2.177308  0.001
O  O404  1  0.07005138  0.94312990  0.28191057  1  -1.176268  0.000598  -0.32503  -0.553499  -0.000444  2.177073  0.001
O  O405  1  0.79509913  0.55686295  0.21808586  1  -1.180515  0.000599  -0.325073  -0.553545  -0.000443  2.177285  0.001
O  O406  1  0.42995056  0.79508649  0.21809562  1  -1.17657  0.000599  -0.325024  -0.55351  -0.000444  2.177195  0.001
O  O407  1  0.55686751  0.42994534  0.21809265  1  -1.176093  0.000598  -0.325094  -0.553552  -0.000444  2.177132  0.001
O  O408  1  0.29508740  0.92995150  0.71809709  1  -1.176283  0.000599  -0.325081  -0.553528  -0.000444  2.177183  0.001
O  O409  1  0.05686383  0.29510023  0.71808455  1  -1.180451  0.000599  -0.325116  -0.553661  -0.000443  2.177193  0.001
O  O410  1  0.92994707  0.05686638  0.71809375  1  -1.176102  0.000599  -0.325033  -0.55346  -0.000444  2.177192  0.001
O  O411  1  0.20489870  0.44313528  0.78191881  1  -1.1805  0.000598  -0.325101  -0.553581  -0.000444  2.177246  0.001
O  O412  1  0.57004668  0.20491312  0.78190510  1  -1.176241  0.000599  -0.325043  -0.553529  -0.000444  2.177186  0.001
O  O413  1  0.44313281  0.57005265  0.78190988  1  -1.176047  0.000598  -0.325061  -0.553562  -0.000444  2.177219  0.001
