# generated using pymatgen
data_NiMoH16C20(NO)4
_symmetry_space_group_name_H-M   'P 1'
_cell_length_a   13.17338551
_cell_length_b   13.17337882
_cell_length_c   29.25159041
_cell_angle_alpha   90.00001917
_cell_angle_beta   90.00004241
_cell_angle_gamma   89.99989338
_symmetry_Int_Tables_number   1
_chemical_formula_structural   NiMoH16C20(NO)4
_chemical_formula_sum   'Ni8 Mo8 H128 C160 N32 O32'
_cell_volume   5076.26242586
_cell_formula_units_Z   8
loop_
 _symmetry_equiv_pos_site_id
 _symmetry_equiv_pos_as_xyz
  1  'x, y, z'
loop_
 _atom_site_type_symbol
 _atom_site_label
 _atom_site_symmetry_multiplicity
 _atom_site_fract_x
 _atom_site_fract_y
 _atom_site_fract_z
 _atom_site_occupancy
 _atom_site_pbe_bader_charge
 _atom_site_pbe_bader_spin_density
 _atom_site_pbe_cm5_charge
 _atom_site_pbe_ddec_charge
 _atom_site_pbe_ddec_spin_density
 _atom_site_pbe_ddec_sum_bond_order
 _atom_site_pbe_magmom
Ni  Ni0  1  0.26831701  0.28333200  0.63149496  1  1.165274  1.524075  0.663633  0.751025  1.755949  2.687319  1.51
Ni  Ni1  1  0.73168303  0.71666820  0.13149491  1  1.165278  1.524075  0.663614  0.751001  1.755948  2.687366  1.51
Ni  Ni2  1  0.21667021  0.76831782  0.88149541  1  1.165232  1.524071  0.663674  0.751053  1.755942  2.687232  1.51
Ni  Ni3  1  0.78333100  0.23168181  0.38149530  1  1.165239  1.524071  0.663654  0.751076  1.755944  2.687102  1.51
Ni  Ni4  1  0.23168206  0.78333132  0.61850493  1  1.165245  1.524074  0.66367  0.751016  1.755947  2.687275  1.51
Ni  Ni5  1  0.76831720  0.21666887  0.11850550  1  1.165249  1.524071  0.663623  0.750938  1.755945  2.687381  1.51
Ni  Ni6  1  0.28333041  0.26831828  0.36850550  1  1.165207  1.524071  0.663666  0.751026  1.755948  2.687249  1.51
Ni  Ni7  1  0.71666926  0.73168210  0.86850509  1  1.165211  1.524072  0.663652  0.751059  1.755947  2.687196  1.51
Mo  Mo8  1  0.37460682  0.54388009  0.61990588  1  2.490482  0.030227  1.414422  1.980313  0.022428  5.053265  0.038
Mo  Mo9  1  0.62539396  0.45611935  0.11990576  1  2.490497  0.030227  1.414519  1.980406  0.022427  5.053089  0.038
Mo  Mo10  1  0.95612010  0.87460497  0.86990506  1  2.490516  0.030226  1.414392  1.980278  0.022427  5.053333  0.038
Mo  Mo11  1  0.04388109  0.12539390  0.36990503  1  2.490376  0.030227  1.414459  1.980375  0.022427  5.053169  0.038
Mo  Mo12  1  0.12539269  0.04388028  0.63009499  1  2.490334  0.030227  1.41443  1.980363  0.022427  5.053231  0.038
Mo  Mo13  1  0.87460810  0.95611992  0.13009502  1  2.490343  0.030227  1.414389  1.980309  0.022428  5.053166  0.038
Mo  Mo14  1  0.54388065  0.37460436  0.38009432  1  2.490513  0.030226  1.414401  1.980225  0.022427  5.05333  0.038
Mo  Mo15  1  0.45611979  0.62539527  0.88009483  1  2.490505  0.030227  1.414435  1.980341  0.022427  5.053256  0.038
H  H16  1  0.15378210  0.47092634  0.60921241  1  0.139796  0.001931  0.115597  0.081717  0.00064  1.047918  0.001
H  H17  1  0.84621867  0.52907384  0.10921236  1  0.13982  0.001931  0.115596  0.081706  0.00064  1.047945  0.001
H  H18  1  0.02907615  0.65378397  0.85921419  1  0.139374  0.001931  0.115627  0.081733  0.00064  1.047983  0.001
H  H19  1  0.97092503  0.34621565  0.35921313  1  0.139392  0.001931  0.115611  0.081663  0.00064  1.048089  0.001
H  H20  1  0.34621738  0.97092470  0.64078717  1  0.139426  0.001931  0.11558  0.08165  0.00064  1.047965  0.001
H  H21  1  0.65378191  0.02907399  0.14078733  1  0.13979  0.001931  0.11559  0.081702  0.00064  1.047943  0.001
H  H22  1  0.47092468  0.15378334  0.39078739  1  0.139542  0.001931  0.11559  0.081653  0.00064  1.047991  0.001
H  H23  1  0.52907427  0.84621706  0.89078727  1  0.13976  0.001931  0.115583  0.081665  0.00064  1.047949  0.001
H  H24  1  0.00996021  0.52186631  0.55908315  1  0.067949  0.001097  0.104074  0.107757  0.000507  1.019464  0.0
H  H25  1  0.99004047  0.47813384  0.05908314  1  0.067935  0.001097  0.104093  0.107776  0.000507  1.019523  0.0
H  H26  1  0.97813675  0.50996119  0.80908407  1  0.068031  0.001097  0.104078  0.107765  0.000507  1.019335  0.0
H  H27  1  0.02186434  0.49003762  0.30908341  1  0.068023  0.001097  0.104109  0.107814  0.000507  1.019431  0.0
H  H28  1  0.49003935  0.02186435  0.69091705  1  0.067998  0.001096  0.104087  0.107776  0.000507  1.019459  0.0
H  H29  1  0.50996003  0.97813438  0.19091696  1  0.06796  0.001097  0.104077  0.107769  0.000507  1.019483  0.0
H  H30  1  0.52186468  0.00996068  0.44091697  1  0.067975  0.001097  0.104086  0.107776  0.000507  1.019442  0.0
H  H31  1  0.47813435  0.99003976  0.94091686  1  0.067964  0.001097  0.104087  0.107792  0.000507  1.019456  0.0
H  H32  1  0.04791042  0.23466810  0.48901344  1  0.100087  0.001039  0.114707  0.121269  0.000519  1.006004  0.0
H  H33  1  0.95208869  0.76533085  0.98901311  1  0.100091  0.001039  0.114691  0.121235  0.000519  1.006037  0.0
H  H34  1  0.26533204  0.54791489  0.73901324  1  0.100294  0.001039  0.114699  0.121246  0.000519  1.006119  0.0
H  H35  1  0.73466817  0.45208691  0.23901383  1  0.100299  0.001039  0.114707  0.121262  0.000519  1.006048  0.0
H  H36  1  0.45208874  0.73466711  0.76098679  1  0.100114  0.001039  0.114695  0.121247  0.000519  1.00604  0.0
H  H37  1  0.54791075  0.26533167  0.26098660  1  0.10009  0.001039  0.114702  0.121256  0.000519  1.006047  0.0
H  H38  1  0.23466822  0.04791175  0.51098696  1  0.100089  0.00104  0.114705  0.121259  0.000519  1.006045  0.0
H  H39  1  0.76533238  0.95208912  0.01098627  1  0.100107  0.00104  0.114709  0.121271  0.000519  1.006027  0.0
H  H40  1  0.18328649  0.19425468  0.54523331  1  0.129166  0.002057  0.117096  0.083639  0.00072  1.033933  0.001
H  H41  1  0.81671265  0.80574319  0.04523261  1  0.129243  0.002057  0.117095  0.083642  0.00072  1.033977  0.001
H  H42  1  0.30574678  0.68328940  0.79523379  1  0.129175  0.002057  0.117076  0.083607  0.00072  1.033883  0.001
H  H43  1  0.69425277  0.31671168  0.29523366  1  0.129186  0.002057  0.117082  0.08362  0.00072  1.033882  0.001
H  H44  1  0.31671199  0.69425542  0.70476760  1  0.129209  0.002057  0.117088  0.083614  0.00072  1.033947  0.001
H  H45  1  0.68328741  0.30574408  0.20476746  1  0.129234  0.002057  0.11709  0.08363  0.00072  1.033976  0.001
H  H46  1  0.19425323  0.18328782  0.45476711  1  0.129195  0.002057  0.117105  0.083637  0.00072  1.033908  0.001
H  H47  1  0.80574506  0.81671263  0.95476674  1  0.129218  0.002057  0.117086  0.083625  0.00072  1.033952  0.001
H  H48  1  0.86811731  0.05521905  0.43564108  1  0.149558  0.001726  0.118897  0.0987  0.00059  1.026754  0.001
H  H49  1  0.13188171  0.94478062  0.93564084  1  0.149403  0.001726  0.118885  0.098681  0.00059  1.026757  0.001
H  H50  1  0.44478186  0.36811649  0.68564043  1  0.149564  0.001727  0.118888  0.09866  0.00059  1.026725  0.001
H  H51  1  0.55521827  0.63188300  0.18563996  1  0.149552  0.001727  0.118898  0.098671  0.00059  1.026732  0.001
H  H52  1  0.63188176  0.55521946  0.81435894  1  0.149406  0.001727  0.11888  0.098654  0.00059  1.026739  0.001
H  H53  1  0.36811858  0.44478012  0.31435873  1  0.149414  0.001727  0.118913  0.098514  0.00059  1.026635  0.001
H  H54  1  0.05521705  0.86811685  0.56436016  1  0.149641  0.001726  0.118898  0.09868  0.00059  1.026741  0.001
H  H55  1  0.94478136  0.13188406  0.06436043  1  0.14964  0.001727  0.11893  0.09873  0.00059  1.026723  0.001
H  H56  1  0.85293742  0.98721993  0.51602857  1  0.100943  0.00117  0.11295  0.122278  0.000555  0.986297  0.001
H  H57  1  0.14706167  0.01277943  0.01602856  1  0.100865  0.001171  0.112964  0.122287  0.000555  0.986307  0.001
H  H58  1  0.51277965  0.35293660  0.76602820  1  0.100889  0.001171  0.112972  0.122304  0.000555  0.986293  0.001
H  H59  1  0.48722061  0.64706371  0.26602806  1  0.100903  0.001171  0.112985  0.1223  0.000555  0.986295  0.001
H  H60  1  0.64706237  0.48722167  0.73397118  1  0.100961  0.00117  0.112967  0.122314  0.000555  0.986305  0.001
H  H61  1  0.35293784  0.51277633  0.23397062  1  0.100977  0.00117  0.112968  0.12227  0.000555  0.986361  0.001
H  H62  1  0.98721963  0.85293685  0.48397255  1  0.100917  0.001171  0.112957  0.122292  0.000555  0.986334  0.001
H  H63  1  0.01278023  0.14706361  0.98397284  1  0.101017  0.00117  0.11295  0.122301  0.000555  0.986357  0.001
H  H64  1  0.71173697  0.04886780  0.56527913  1  0.077687  5.4e-05  0.112746  0.113241  -3.7e-05  0.983702  0.0
H  H65  1  0.28826296  0.95113235  0.06527896  1  0.077686  5.4e-05  0.112754  0.113245  -3.7e-05  0.983699  0.0
H  H66  1  0.45112976  0.21173751  0.81527884  1  0.07771  5.4e-05  0.112784  0.113286  -3.7e-05  0.983661  0.0
H  H67  1  0.54886906  0.78826359  0.31527805  1  0.077748  5.4e-05  0.112787  0.113323  -3.7e-05  0.983666  0.0
H  H68  1  0.78826439  0.54886858  0.68472123  1  0.077713  5.4e-05  0.112774  0.113269  -3.7e-05  0.983685  0.0
H  H69  1  0.21173574  0.45112863  0.18472097  1  0.077705  5.4e-05  0.112773  0.113271  -3.7e-05  0.983685  0.0
H  H70  1  0.04886944  0.71173703  0.43472172  1  0.077762  5.4e-05  0.112734  0.1132  -3.7e-05  0.983681  0.0
H  H71  1  0.95113110  0.28826416  0.93472235  1  0.077782  5.4e-05  0.112769  0.113271  -3.7e-05  0.983637  0.0
H  H72  1  0.61970265  0.24272775  0.45316967  1  0.154227  0.001709  0.115604  0.085872  0.000545  1.069939  0.001
H  H73  1  0.38029716  0.75727269  0.95316915  1  0.154227  0.001709  0.115593  0.08586  0.000545  1.06992  0.001
H  H74  1  0.25727222  0.11970280  0.70316900  1  0.154226  0.001709  0.115599  0.085855  0.000545  1.069933  0.001
H  H75  1  0.74272718  0.88029746  0.20316863  1  0.154195  0.001709  0.115588  0.085847  0.000545  1.069958  0.001
H  H76  1  0.88029683  0.74272692  0.79683175  1  0.154194  0.001709  0.115615  0.085874  0.000545  1.069882  0.001
H  H77  1  0.11970196  0.25727416  0.29683210  1  0.154182  0.001709  0.115618  0.085873  0.000545  1.069881  0.001
H  H78  1  0.24272867  0.61970356  0.54683121  1  0.154189  0.00171  0.115595  0.085852  0.000545  1.069899  0.001
H  H79  1  0.75727123  0.38029734  0.04683180  1  0.154191  0.001709  0.115632  0.085906  0.000545  1.069955  0.001
H  H80  1  0.38722099  0.37347882  0.54946970  1  0.148387  0.001948  0.116903  0.096439  0.00072  1.042361  0.002
H  H81  1  0.61277740  0.62652056  0.04946994  1  0.148373  0.001948  0.116903  0.096417  0.00072  1.042343  0.002
H  H82  1  0.12652236  0.88721979  0.79946910  1  0.148271  0.001948  0.116895  0.09644  0.00072  1.042337  0.002
H  H83  1  0.87347796  0.11278054  0.29946934  1  0.148373  0.001948  0.116892  0.096438  0.00072  1.042346  0.002
H  H84  1  0.11277867  0.87347766  0.70053054  1  0.148386  0.001947  0.116904  0.096445  0.00072  1.042323  0.002
H  H85  1  0.88722072  0.12652108  0.20053079  1  0.148264  0.001948  0.116891  0.096421  0.00072  1.042346  0.002
H  H86  1  0.37348031  0.38722166  0.45053081  1  0.14825  0.001948  0.116871  0.096382  0.00072  1.042361  0.002
H  H87  1  0.62652025  0.61277954  0.95053069  1  0.148225  0.001947  0.116879  0.096404  0.00072  1.042354  0.002
H  H88  1  0.53377178  0.32482828  0.50208290  1  0.180016  0.000857  0.109865  0.148127  0.000452  1.026209  0.001
H  H89  1  0.46622653  0.67517107  0.00208275  1  0.179997  0.000857  0.109921  0.148246  0.000452  1.026166  0.001
H  H90  1  0.17517196  0.03376974  0.75208119  1  0.180025  0.000857  0.109896  0.148177  0.000452  1.026186  0.001
H  H91  1  0.82482676  0.96623207  0.25208052  1  0.180013  0.000857  0.109869  0.148131  0.000452  1.026247  0.001
H  H92  1  0.96622907  0.82482725  0.74791853  1  0.180034  0.000857  0.109901  0.148183  0.000452  1.026176  0.001
H  H93  1  0.03376964  0.17517304  0.24791919  1  0.180027  0.000857  0.109886  0.148169  0.000452  1.026197  0.001
H  H94  1  0.32482985  0.53377183  0.49791866  1  0.179968  0.000857  0.109917  0.148198  0.000452  1.026141  0.001
H  H95  1  0.67517003  0.46622941  0.99791854  1  0.179999  0.000857  0.109932  0.148233  0.000452  1.026113  0.001
H  H96  1  0.55618700  0.05083632  0.58444387  1  0.051237  0.001095  0.100004  0.100863  0.000493  1.032551  0.0
H  H97  1  0.44381372  0.94916537  0.08444307  1  0.051239  0.001095  0.099984  0.100823  0.000493  1.032596  0.0
H  H98  1  0.44916080  0.05619049  0.83444428  1  0.051292  0.001095  0.099997  0.100869  0.000493  1.032582  0.0
H  H99  1  0.55083957  0.94380987  0.33444454  1  0.051299  0.001095  0.100005  0.100877  0.000493  1.032572  0.0
H  H100  1  0.94381361  0.55083603  0.66555649  1  0.051235  0.001095  0.100015  0.100873  0.000493  1.032554  0.0
H  H101  1  0.05618725  0.44916192  0.16555583  1  0.051283  0.001095  0.099984  0.100823  0.000493  1.032555  0.0
H  H102  1  0.05083869  0.55618923  0.41555660  1  0.051257  0.001095  0.099992  0.10085  0.000493  1.032594  0.0
H  H103  1  0.94916030  0.44380967  0.91555656  1  0.051269  0.001095  0.099974  0.100816  0.000493  1.032649  0.0
H  H104  1  0.40535787  0.11228388  0.62720597  1  0.121263  0.002137  0.111964  0.082377  0.000751  1.045045  0.001
H  H105  1  0.59464217  0.88771708  0.12720556  1  0.121261  0.002137  0.111962  0.082403  0.00075  1.045035  0.001
H  H106  1  0.38771494  0.90536147  0.87720680  1  0.121277  0.002137  0.111976  0.082454  0.000751  1.045031  0.001
H  H107  1  0.61228550  0.09463892  0.37720695  1  0.121282  0.002137  0.111986  0.082451  0.000751  1.045044  0.001
H  H108  1  0.09464076  0.61228421  0.62279389  1  0.121267  0.002137  0.111969  0.082385  0.000751  1.045038  0.001
H  H109  1  0.90535850  0.38771446  0.12279384  1  0.12127  0.002137  0.111949  0.08236  0.000751  1.045124  0.001
H  H110  1  0.11228542  0.40535921  0.37279482  1  0.12131  0.002137  0.111919  0.082331  0.000751  1.045175  0.001
H  H111  1  0.88771426  0.59463889  0.87279445  1  0.121314  0.002137  0.111959  0.082371  0.000751  1.045122  0.001
H  H112  1  0.73041274  0.46448091  0.39452947  1  0.143541  0.001652  0.117721  0.085106  0.000515  1.036838  0.001
H  H113  1  0.26958773  0.53551873  0.89452957  1  0.143376  0.001652  0.117716  0.085108  0.000515  1.03686  0.001
H  H114  1  0.03552042  0.23041642  0.64453011  1  0.143629  0.001652  0.11774  0.085086  0.000515  1.036843  0.001
H  H115  1  0.96447888  0.76958380  0.14452980  1  0.14363  0.001652  0.117737  0.085076  0.000515  1.036862  0.001
H  H116  1  0.76958482  0.96448109  0.85547129  1  0.143555  0.001652  0.117712  0.085091  0.000515  1.036891  0.001
H  H117  1  0.23041331  0.03552004  0.35547063  1  0.143556  0.001652  0.117721  0.085096  0.000515  1.036861  0.001
H  H118  1  0.46448103  0.73041377  0.60547012  1  0.143401  0.001653  0.117734  0.085107  0.000515  1.036859  0.001
H  H119  1  0.53551821  0.26958641  0.10547061  1  0.143552  0.001652  0.117721  0.085107  0.000516  1.036837  0.001
H  H120  1  0.78695848  0.60416562  0.44610549  1  0.092666  0.001262  0.115981  0.121766  0.000606  0.972041  0.0
H  H121  1  0.21304208  0.39583406  0.94610520  1  0.092652  0.001262  0.115978  0.121737  0.000606  0.972043  0.0
H  H122  1  0.89583684  0.28696301  0.69610625  1  0.092746  0.001261  0.115974  0.12173  0.000606  0.972025  0.0
H  H123  1  0.10416331  0.71303800  0.19610599  1  0.09274  0.001261  0.115986  0.121754  0.000606  0.97205  0.0
H  H124  1  0.71303975  0.10416578  0.80389488  1  0.092674  0.001262  0.11597  0.121734  0.000606  0.972047  0.0
H  H125  1  0.28695906  0.89583608  0.30389470  1  0.092688  0.001262  0.115971  0.121752  0.000606  0.972038  0.0
H  H126  1  0.60416560  0.78696100  0.55389449  1  0.092686  0.001261  0.11598  0.121753  0.000606  0.972034  0.0
H  H127  1  0.39583507  0.21304067  0.05389390  1  0.092684  0.001261  0.115995  0.12178  0.000606  0.972039  0.0
H  H128  1  0.92135605  0.56970131  0.50422953  1  0.064572  -2.5e-05  0.105294  0.09993  -0.000108  1.016296  0.0
H  H129  1  0.07864529  0.43029804  0.00422922  1  0.064579  -2.5e-05  0.105288  0.099896  -0.000108  1.016354  0.0
H  H130  1  0.93030095  0.42135904  0.75422995  1  0.064537  -2.5e-05  0.105271  0.099854  -0.000108  1.016342  0.0
H  H131  1  0.06970005  0.57864277  0.25422965  1  0.064566  -2.5e-05  0.105267  0.099875  -0.000108  1.016313  0.0
H  H132  1  0.57864527  0.06970016  0.74577049  1  0.064599  -2.5e-05  0.105269  0.099846  -0.000108  1.01635  0.0
H  H133  1  0.42135496  0.93029937  0.24577071  1  0.064608  -2.5e-05  0.105281  0.099893  -0.000108  1.016348  0.0
H  H134  1  0.56970048  0.92135705  0.49577081  1  0.064602  -2.5e-05  0.105287  0.099898  -0.000108  1.016326  0.0
H  H135  1  0.43030016  0.07864494  0.99576987  1  0.06457  -2.5e-05  0.105274  0.099856  -0.000108  1.016342  0.0
H  H136  1  0.91552789  0.25662445  0.45933896  1  0.125303  0.001869  0.118303  0.091725  0.000614  1.044205  0.001
H  H137  1  0.08447117  0.74337524  0.95933868  1  0.125299  0.001868  0.118304  0.091727  0.000614  1.044226  0.001
H  H138  1  0.24337803  0.41553125  0.70933962  1  0.125309  0.001868  0.118274  0.091741  0.000614  1.044184  0.001
H  H139  1  0.75662214  0.58446902  0.20933956  1  0.125314  0.001868  0.118262  0.091681  0.000614  1.044254  0.001
H  H140  1  0.58447233  0.75662265  0.79066110  1  0.125277  0.001868  0.118276  0.091703  0.000614  1.044249  0.001
H  H141  1  0.41552873  0.24337692  0.29066121  1  0.125274  0.001868  0.11827  0.091665  0.000614  1.044296  0.001
H  H142  1  0.25662307  0.91552894  0.54066063  1  0.125286  0.001868  0.118289  0.091746  0.000614  1.044192  0.001
H  H143  1  0.74337606  0.08447120  0.04066151  1  0.125277  0.001868  0.118295  0.09171  0.000614  1.044235  0.001
C  C144  1  0.12605121  0.42096575  0.58226378  1  0.416915  -0.003302  0.043918  0.08564  -0.003989  3.959625  -0.002
C  C145  1  0.87394875  0.57903441  0.08226409  1  0.417304  -0.003306  0.043912  0.085629  -0.003989  3.959603  -0.002
C  C146  1  0.07903597  0.62605298  0.83226455  1  0.417249  -0.003302  0.043954  0.085731  -0.003989  3.95962  -0.002
C  C147  1  0.92096440  0.37394661  0.33226451  1  0.417262  -0.003302  0.043962  0.085772  -0.00399  3.959723  -0.002
C  C148  1  0.37394760  0.92096408  0.66773682  1  0.417337  -0.003302  0.043947  0.085708  -0.003989  3.959697  -0.002
C  C149  1  0.62605173  0.07903387  0.16773629  1  0.417046  -0.003303  0.043895  0.085606  -0.003989  3.959614  -0.002
C  C150  1  0.42096491  0.12605247  0.41773634  1  0.417171  -0.003302  0.043898  0.085651  -0.003989  3.959639  -0.002
C  C151  1  0.57903485  0.87394795  0.91773590  1  0.416941  -0.003302  0.0439  0.085639  -0.003989  3.959664  -0.002
C  C152  1  0.04654009  0.44864740  0.55378190  1  -0.018032  0.005804  -0.088147  -0.182695  0.003263  3.961179  0.004
C  C153  1  0.95346134  0.55135199  0.05378155  1  -0.018034  0.005805  -0.088176  -0.182689  0.003264  3.961208  0.004
C  C154  1  0.05135521  0.54654265  0.80378335  1  -0.018071  0.005804  -0.088256  -0.182792  0.003263  3.961111  0.004
C  C155  1  0.94864587  0.45345769  0.30378299  1  -0.018032  0.005804  -0.088267  -0.182834  0.003263  3.961157  0.004
C  C156  1  0.45345943  0.94864636  0.69621836  1  -0.018037  0.005804  -0.088167  -0.182704  0.003263  3.96126  0.004
C  C157  1  0.54653995  0.05135161  0.19621814  1  -0.018049  0.005805  -0.088165  -0.182702  0.003264  3.961194  0.004
C  C158  1  0.44864657  0.04654058  0.44621753  1  -0.018033  0.005804  -0.088162  -0.182714  0.003263  3.961188  0.004
C  C159  1  0.55135247  0.95345910  0.94621777  1  -0.018045  0.005805  -0.08816  -0.182743  0.003263  3.961178  0.004
C  C160  1  0.01453544  0.38254820  0.51890720  1  -0.040543  -0.005491  0.011319  0.112366  -0.006015  3.986474  -0.004
C  C161  1  0.98546366  0.61745116  0.01890687  1  -0.040544  -0.00549  0.011271  0.112243  -0.006014  3.986581  -0.004
C  C162  1  0.11745440  0.51453939  0.76890799  1  -0.040346  -0.005491  0.011281  0.11228  -0.006015  3.986451  -0.004
C  C163  1  0.88254663  0.48546167  0.26890796  1  -0.040416  -0.005491  0.011307  0.112328  -0.006015  3.986368  -0.004
C  C164  1  0.48546345  0.88254637  0.73109304  1  -0.040542  -0.00549  0.011289  0.112327  -0.006014  3.98648  -0.004
C  C165  1  0.51453600  0.11745239  0.23109283  1  -0.040533  -0.005491  0.011289  0.11229  -0.006014  3.986538  -0.004
C  C166  1  0.38254745  0.01453748  0.48109288  1  -0.040528  -0.005491  0.01129  0.112322  -0.006015  3.986435  -0.004
C  C167  1  0.61745165  0.98546299  0.98109281  1  -0.040522  -0.005491  0.011312  0.112353  -0.006015  3.986432  -0.004
C  C168  1  0.06666108  0.28985212  0.51537406  1  0.009095  0.005796  -0.075051  -0.158233  0.003263  3.900714  0.004
C  C169  1  0.93333877  0.71014724  0.01537373  1  0.009098  0.005796  -0.075041  -0.158133  0.003263  3.900727  0.004
C  C170  1  0.21014957  0.56666564  0.76537453  1  0.008897  0.005796  -0.075093  -0.158286  0.003263  3.900865  0.004
C  C171  1  0.78985069  0.43333542  0.26537445  1  0.008893  0.005796  -0.075071  -0.158216  0.003263  3.900735  0.004
C  C172  1  0.43333798  0.78985114  0.73462583  1  0.009039  0.005795  -0.075038  -0.158196  0.003263  3.900736  0.004
C  C173  1  0.56666147  0.21014762  0.23462599  1  0.009079  0.005795  -0.075049  -0.158194  0.003263  3.900761  0.004
C  C174  1  0.28985217  0.06666314  0.48462601  1  0.009087  0.005796  -0.075054  -0.158251  0.003263  3.90081  0.004
C  C175  1  0.71014693  0.93333657  0.98462563  1  0.009116  0.005796  -0.075033  -0.158195  0.003263  3.900764  0.004
C  C176  1  0.14388501  0.26678963  0.54595839  1  0.506921  -0.004368  0.0546  0.108378  -0.005117  3.932386  -0.003
C  C177  1  0.85611413  0.73320975  0.04595804  1  0.506685  -0.004367  0.054615  0.108361  -0.005117  3.932384  -0.003
C  C178  1  0.23321194  0.64388804  0.79595886  1  0.506817  -0.004368  0.054687  0.108566  -0.005118  3.932252  -0.003
C  C179  1  0.76678837  0.35611305  0.29595842  1  0.506806  -0.004368  0.054655  0.108465  -0.005118  3.932254  -0.003
C  C180  1  0.35611333  0.76678878  0.70404252  1  0.506643  -0.004367  0.054631  0.108427  -0.005117  3.932379  -0.003
C  C181  1  0.64388606  0.23320996  0.20404236  1  0.506679  -0.004368  0.054619  0.108391  -0.005117  3.932382  -0.003
C  C182  1  0.26678891  0.14388708  0.45404238  1  0.506665  -0.004368  0.054629  0.108433  -0.005118  3.9324  -0.003
C  C183  1  0.73321014  0.85611261  0.95404165  1  0.506836  -0.004368  0.054604  0.108353  -0.005117  3.932367  -0.003
C  C184  1  0.80709200  0.07870208  0.45848119  1  0.441708  -0.003941  0.046044  0.083451  -0.004703  3.916571  -0.003
C  C185  1  0.19290782  0.92129760  0.95848166  1  0.441839  -0.003941  0.045975  0.083399  -0.004703  3.916655  -0.003
C  C186  1  0.42129671  0.30709041  0.70848123  1  0.441709  -0.003941  0.046002  0.083452  -0.004702  3.91664  -0.003
C  C187  1  0.57870346  0.69290985  0.20848078  1  0.441716  -0.003941  0.046029  0.083479  -0.004702  3.916643  -0.003
C  C188  1  0.69290855  0.57870388  0.79151883  1  0.441865  -0.003941  0.046011  0.08348  -0.004702  3.916612  -0.003
C  C189  1  0.30709099  0.42129569  0.29151859  1  0.442191  -0.003942  0.045974  0.083694  -0.004702  3.916413  -0.003
C  C190  1  0.07870080  0.80709147  0.54151969  1  0.441592  -0.003942  0.04602  0.08349  -0.004703  3.916577  -0.003
C  C191  1  0.92129757  0.19290942  0.04152065  1  0.441598  -0.003941  0.046034  0.083448  -0.004703  3.916702  -0.003
C  C192  1  0.79744231  0.04108458  0.50278032  1  -0.030853  0.005536  -0.08325  -0.124547  0.003133  3.996117  0.004
C  C193  1  0.20255676  0.95891477  0.00277978  1  -0.030961  0.005536  -0.083218  -0.124502  0.003133  3.996198  0.004
C  C194  1  0.45891426  0.29744291  0.75277968  1  -0.030928  0.005536  -0.08324  -0.12455  0.003133  3.996067  0.004
C  C195  1  0.54108522  0.70255815  0.25277922  1  -0.030957  0.005536  -0.083267  -0.124495  0.003133  3.996099  0.004
C  C196  1  0.70255755  0.54108480  0.74722004  1  -0.030977  0.005536  -0.083251  -0.124597  0.003133  3.996108  0.004
C  C197  1  0.29744344  0.45891321  0.24722015  1  -0.031285  0.005538  -0.08322  -0.124486  0.003133  3.99601  0.004
C  C198  1  0.04108402  0.79744097  0.49722055  1  -0.031016  0.005536  -0.083271  -0.124644  0.003133  3.996352  0.004
C  C199  1  0.95891586  0.20255951  0.99722117  1  -0.030979  0.005536  -0.083284  -0.124626  0.003133  3.99628  0.004
C  C200  1  0.71847019  0.07598231  0.53020446  1  -0.020365  -0.006731  -0.065757  -0.081226  -0.007327  3.946379  -0.004
C  C201  1  0.28152892  0.92401781  0.03020429  1  -0.020511  -0.006732  -0.065731  -0.0812  -0.007328  3.946322  -0.004
C  C202  1  0.42401445  0.21847080  0.78020450  1  -0.020508  -0.006731  -0.065783  -0.081245  -0.007327  3.946358  -0.004
C  C203  1  0.57598432  0.78153103  0.28020372  1  -0.020473  -0.006731  -0.065823  -0.081406  -0.007327  3.94637  -0.004
C  C204  1  0.78153036  0.57598313  0.71979625  1  -0.020485  -0.006731  -0.065761  -0.081219  -0.007327  3.946375  -0.004
C  C205  1  0.21846906  0.42401410  0.21979564  1  -0.020458  -0.006732  -0.065781  -0.081292  -0.007328  3.946412  -0.004
C  C206  1  0.07598398  0.71847106  0.46979674  1  -0.02048  -0.006731  -0.065761  -0.081173  -0.007327  3.946441  -0.004
C  C207  1  0.92401585  0.28153016  0.96979736  1  -0.020454  -0.00673  -0.06581  -0.081292  -0.007326  3.946326  -0.004
C  C208  1  0.64954478  0.14769214  0.51281224  1  -0.060353  0.005834  -0.004428  0.015214  0.003208  3.982228  0.005
C  C209  1  0.35045431  0.85230721  0.01281208  1  -0.060087  0.005833  -0.004492  0.015166  0.003208  3.982253  0.005
C  C210  1  0.35230628  0.14954549  0.76281227  1  -0.060117  0.005833  -0.004445  0.015122  0.003208  3.982341  0.005
C  C211  1  0.64769322  0.85045557  0.26281118  1  -0.058085  0.005833  -0.004375  0.015223  0.003208  3.982211  0.005
C  C212  1  0.85045564  0.64769209  0.73718814  1  -0.057962  0.005834  -0.00443  0.0152  0.003208  3.982277  0.005
C  C213  1  0.14954457  0.35230668  0.23718852  1  -0.058092  0.005833  -0.004444  0.015157  0.003207  3.982399  0.005
C  C214  1  0.14769380  0.64954563  0.48718863  1  -0.058104  0.005834  -0.004453  0.015117  0.003208  3.982272  0.005
C  C215  1  0.85230607  0.35045560  0.98718923  1  -0.058017  0.005834  -0.004365  0.015223  0.003208  3.982166  0.005
C  C216  1  0.66756893  0.18404953  0.46837534  1  0.481207  -0.004574  0.053344  0.0489  -0.005314  3.874597  -0.003
C  C217  1  0.33243091  0.81595017  0.96837550  1  0.481205  -0.004574  0.053371  0.048947  -0.005315  3.874538  -0.003
C  C218  1  0.31594807  0.16756822  0.71837536  1  0.481171  -0.004574  0.05334  0.048953  -0.005315  3.874469  -0.003
C  C219  1  0.68405135  0.83243281  0.21837463  1  0.481259  -0.004574  0.053349  0.048988  -0.005315  3.87444  -0.003
C  C220  1  0.83243219  0.68405029  0.78162538  1  0.481225  -0.004574  0.053327  0.04894  -0.005315  3.874462  -0.003
C  C221  1  0.16756658  0.31595002  0.28162508  1  0.481273  -0.004574  0.053328  0.048922  -0.005315  3.87455  -0.003
C  C222  1  0.18405045  0.66756908  0.53162588  1  0.481355  -0.004574  0.053379  0.048977  -0.005314  3.874396  -0.003
C  C223  1  0.81594790  0.33243181  0.03162613  1  0.481173  -0.004574  0.053269  0.048865  -0.005314  3.874452  -0.003
C  C224  1  0.42583680  0.30157164  0.55569637  1  0.481046  -0.003891  0.051029  0.097352  -0.004493  3.905696  -0.003
C  C225  1  0.57416235  0.69842774  0.05569626  1  0.481039  -0.00389  0.051047  0.097475  -0.004492  3.905715  -0.003
C  C226  1  0.19842867  0.92583548  0.80569578  1  0.481033  -0.003891  0.05104  0.097329  -0.004493  3.905619  -0.003
C  C227  1  0.80157165  0.07416409  0.30569600  1  0.481033  -0.00389  0.051072  0.097366  -0.004493  3.905682  -0.003
C  C228  1  0.07416299  0.80157207  0.69430420  1  0.481056  -0.003891  0.051058  0.097366  -0.004493  3.905553  -0.003
C  C229  1  0.92583639  0.19842818  0.19430413  1  0.481038  -0.003891  0.051068  0.09738  -0.004493  3.905604  -0.003
C  C230  1  0.30157317  0.42583672  0.44430481  1  0.48103  -0.003891  0.051086  0.097466  -0.004493  3.905691  -0.003
C  C231  1  0.69842739  0.57416295  0.94430471  1  0.481041  -0.003891  0.051102  0.09748  -0.004493  3.9057  -0.003
C  C232  1  0.50997159  0.27394235  0.52963182  1  -0.050424  0.006782  -0.078191  -0.16142  0.003822  3.862411  0.005
C  C233  1  0.49002752  0.72605702  0.02963169  1  -0.050418  0.006782  -0.078223  -0.16158  0.003822  3.862413  0.005
C  C234  1  0.22605870  0.00997019  0.77963115  1  -0.050428  0.006782  -0.078241  -0.161499  0.003822  3.862306  0.005
C  C235  1  0.77394083  0.99003088  0.27963081  1  -0.050415  0.006782  -0.078231  -0.16144  0.003822  3.862445  0.005
C  C236  1  0.99002859  0.77393974  0.72036926  1  -0.050457  0.006782  -0.078272  -0.161525  0.003822  3.862369  0.005
C  C237  1  0.00997007  0.22605825  0.22036889  1  -0.050439  0.006782  -0.078208  -0.161424  0.003822  3.862305  0.005
C  C238  1  0.27394316  0.50997235  0.47036938  1  -0.050412  0.006782  -0.078269  -0.161505  0.003822  3.862349  0.005
C  C239  1  0.72605744  0.49002887  0.97036928  1  -0.050444  0.006781  -0.078273  -0.161546  0.003822  3.862355  0.005
C  C240  1  0.56092062  0.18282445  0.53942685  1  -0.020842  -0.006068  0.006633  0.103389  -0.006634  3.999078  -0.004
C  C241  1  0.43907926  0.81717644  0.03942671  1  -0.020839  -0.006068  0.006635  0.103416  -0.006634  3.99907  -0.004
C  C242  1  0.31717419  0.06092135  0.78942619  1  -0.020866  -0.006068  0.006619  0.103504  -0.006634  3.998981  -0.004
C  C243  1  0.68282460  0.93907897  0.28942581  1  -0.022978  -0.006068  0.006596  0.103418  -0.006634  3.998987  -0.004
C  C244  1  0.93907973  0.68282421  0.71057422  1  -0.023046  -0.006068  0.006633  0.103434  -0.006634  3.999058  -0.004
C  C245  1  0.06092044  0.31717529  0.21057388  1  -0.022966  -0.006069  0.006602  0.103364  -0.006634  3.998974  -0.004
C  C246  1  0.18282682  0.56092140  0.46057435  1  -0.023024  -0.006068  0.006588  0.103383  -0.006634  3.999058  -0.004
C  C247  1  0.81717301  0.43907905  0.96057495  1  -0.023033  -0.006068  0.006602  0.103446  -0.006634  3.998967  -0.004
C  C248  1  0.52258584  0.12375689  0.57557256  1  -0.042495  0.005874  -0.094476  -0.19249  0.003296  3.990167  0.004
C  C249  1  0.47741411  0.87624327  0.07557210  1  -0.042513  0.005874  -0.094469  -0.192432  0.003295  3.990187  0.004
C  C250  1  0.37624183  0.02258794  0.82557295  1  -0.042518  0.005875  -0.094466  -0.192574  0.003296  3.99022  0.004
C  C251  1  0.62375777  0.97741317  0.32557256  1  -0.042514  0.005875  -0.094466  -0.192547  0.003296  3.990204  0.004
C  C252  1  0.97741463  0.62375579  0.67442815  1  -0.04245  0.005875  -0.094487  -0.192533  0.003296  3.990127  0.004
C  C253  1  0.02258548  0.37624217  0.17442747  1  -0.04251  0.005875  -0.094477  -0.192463  0.003296  3.990073  0.004
C  C254  1  0.12375848  0.52258731  0.42442826  1  -0.042123  0.005874  -0.094415  -0.192398  0.003296  3.990023  0.004
C  C255  1  0.87624128  0.47741236  0.92442821  1  -0.042119  0.005874  -0.094414  -0.192416  0.003296  3.989998  0.004
C  C256  1  0.43826734  0.15672726  0.59962628  1  0.4396  -0.004045  0.037756  0.089214  -0.004674  3.963481  -0.003
C  C257  1  0.56173265  0.84327368  0.09962619  1  0.439607  -0.004046  0.037713  0.089126  -0.004675  3.96346  -0.003
C  C258  1  0.34327225  0.93826877  0.84962675  1  0.439645  -0.004045  0.03771  0.089138  -0.004674  3.96362  -0.003
C  C259  1  0.65672890  0.06173159  0.34962692  1  0.439652  -0.004045  0.037712  0.089159  -0.004674  3.963651  -0.003
C  C260  1  0.06173273  0.65672768  0.65037393  1  0.439605  -0.004045  0.037739  0.089202  -0.004674  3.963512  -0.003
C  C261  1  0.93826658  0.34327178  0.15037389  1  0.4396  -0.004045  0.037767  0.089256  -0.004674  3.963581  -0.003
C  C262  1  0.15672881  0.43826797  0.40037453  1  0.439289  -0.004044  0.037697  0.089158  -0.004674  3.963601  -0.003
C  C263  1  0.84327092  0.56173091  0.90037413  1  0.43934  -0.004045  0.037697  0.089219  -0.004674  3.963547  -0.003
C  C264  1  0.78545102  0.45021118  0.42168493  1  0.451634  -0.005057  0.058729  0.103105  -0.005771  3.912669  -0.003
C  C265  1  0.21454950  0.54978848  0.92168466  1  0.451771  -0.005057  0.058711  0.103069  -0.00577  3.912544  -0.003
C  C266  1  0.04979007  0.28545468  0.67168556  1  0.451905  -0.005058  0.058694  0.103062  -0.005771  3.91263  -0.003
C  C267  1  0.95021004  0.71454555  0.17168524  1  0.451895  -0.005058  0.058732  0.103126  -0.005771  3.912651  -0.003
C  C268  1  0.71454808  0.95021144  0.82831549  1  0.451828  -0.005057  0.058726  0.103092  -0.005771  3.912752  -0.003
C  C269  1  0.28545152  0.04978966  0.32831519  1  0.451639  -0.005057  0.058733  0.103095  -0.005771  3.912683  -0.003
C  C270  1  0.45021127  0.78545204  0.57831501  1  0.452  -0.005057  0.058726  0.1031  -0.005771  3.912604  -0.003
C  C271  1  0.54978868  0.21454812  0.07831517  1  0.451642  -0.005057  0.058737  0.103116  -0.005771  3.912654  -0.003
C  C272  1  0.81866111  0.52829819  0.45018219  1  -0.005685  0.005775  -0.078569  -0.11901  0.003286  3.979851  0.004
C  C273  1  0.18133945  0.47170149  0.95018191  1  -0.00571  0.005775  -0.078529  -0.11889  0.003286  3.979728  0.004
C  C274  1  0.97170266  0.31866551  0.70018263  1  -0.00592  0.005775  -0.078513  -0.11885  0.003286  3.979683  0.004
C  C275  1  0.02829674  0.68133550  0.20018268  1  -0.005938  0.005775  -0.078536  -0.118914  0.003286  3.979787  0.004
C  C276  1  0.68133801  0.02829840  0.79981748  1  -0.005905  0.005775  -0.078571  -0.119016  0.003286  3.97991  0.004
C  C277  1  0.31866154  0.97170193  0.29981767  1  -0.005698  0.005775  -0.07856  -0.118949  0.003286  3.979789  0.004
C  C278  1  0.52829897  0.81866288  0.54981778  1  -0.005914  0.005775  -0.078577  -0.118987  0.003286  3.979792  0.004
C  C279  1  0.47170170  0.18133878  0.04981755  1  -0.005709  0.005775  -0.078571  -0.119033  0.003286  3.979842  0.004
C  C280  1  0.89270666  0.50822052  0.48288573  1  -0.016692  -0.007251  -0.068162  -0.084112  -0.007881  3.958174  -0.004
C  C281  1  0.10729396  0.49177843  0.98288507  1  -0.016576  -0.007251  -0.068124  -0.084083  -0.00788  3.958123  -0.004
C  C282  1  0.99178022  0.39270953  0.73288650  1  -0.016707  -0.007251  -0.06814  -0.084059  -0.007881  3.958197  -0.004
C  C283  1  0.00821999  0.60729150  0.23288619  1  -0.016734  -0.007251  -0.06816  -0.084082  -0.007881  3.958211  -0.004
C  C284  1  0.60729402  0.00822085  0.76711395  1  -0.016741  -0.007251  -0.06812  -0.08394  -0.00788  3.958174  -0.004
C  C285  1  0.39270548  0.99177946  0.26711416  1  -0.016667  -0.00725  -0.068126  -0.084055  -0.00788  3.958295  -0.004
C  C286  1  0.50822051  0.89270691  0.51711426  1  -0.016737  -0.007251  -0.068146  -0.084092  -0.00788  3.958193  -0.004
C  C287  1  0.49178010  0.10729472  0.01711403  1  -0.016596  -0.00725  -0.068151  -0.084027  -0.00788  3.958158  -0.004
C  C288  1  0.93186753  0.40939238  0.48705575  1  -0.055298  0.005223  -0.004049  0.014977  0.002895  3.987445  0.004
C  C289  1  0.06813309  0.59060732  0.98705510  1  -0.055399  0.005223  -0.004062  0.014998  0.002895  3.987401  0.004
C  C290  1  0.09060789  0.43187041  0.73705672  1  -0.055497  0.005223  -0.003956  0.015173  0.002895  3.987239  0.004
C  C291  1  0.90939232  0.56813063  0.23705671  1  -0.055484  0.005223  -0.004021  0.01503  0.002895  3.987332  0.004
C  C292  1  0.56813316  0.90939287  0.76294364  1  -0.055278  0.005223  -0.004061  0.014957  0.002895  3.987458  0.004
C  C293  1  0.43186634  0.09060591  0.26294373  1  -0.055371  0.005223  -0.004085  0.014954  0.002895  3.987565  0.004
C  C294  1  0.40939318  0.93186780  0.51294353  1  -0.055295  0.005223  -0.004035  0.01509  0.002895  3.987334  0.004
C  C295  1  0.59060743  0.06813232  0.01294401  1  -0.055376  0.005223  -0.004044  0.015051  0.002895  3.987348  0.004
C  C296  1  0.89058662  0.33532941  0.45809287  1  0.492  -0.004722  0.055337  0.060315  -0.005515  3.869311  -0.004
C  C297  1  0.10941244  0.66466952  0.95809259  1  0.491992  -0.004721  0.055349  0.060336  -0.005515  3.869313  -0.004
C  C298  1  0.16467163  0.39058935  0.70809352  1  0.493115  -0.004726  0.055374  0.06021  -0.005516  3.869429  -0.004
C  C299  1  0.83532853  0.60941015  0.20809349  1  0.493113  -0.004726  0.05538  0.060304  -0.005516  3.869353  -0.004
C  C300  1  0.60941421  0.83532908  0.79190685  1  0.492041  -0.004722  0.055328  0.060244  -0.005515  3.869337  -0.004
C  C301  1  0.39058609  0.16467124  0.29190694  1  0.492043  -0.004722  0.055362  0.060315  -0.005516  3.869344  -0.004
C  C302  1  0.33532876  0.89058690  0.54190638  1  0.492026  -0.004722  0.055362  0.060274  -0.005516  3.869206  -0.004
C  C303  1  0.66467114  0.10941248  0.04190724  1  0.492007  -0.004722  0.055326  0.060245  -0.005516  3.869385  -0.004
N  N304  1  0.17392888  0.33097285  0.57896481  1  -1.223587  0.074525  -0.323207  -0.216085  0.043858  3.569372  0.066
N  N305  1  0.82607183  0.66902580  0.07896410  1  -1.224009  0.074529  -0.323183  -0.216065  0.043858  3.569397  0.066
N  N306  1  0.16902874  0.67393128  0.82896560  1  -1.223648  0.074526  -0.323234  -0.216244  0.043859  3.569431  0.066
N  N307  1  0.83097163  0.32606831  0.32896518  1  -1.223614  0.074525  -0.323242  -0.21621  0.043858  3.569385  0.066
N  N308  1  0.32606934  0.83097203  0.67103611  1  -1.223628  0.074522  -0.323233  -0.216131  0.043856  3.569387  0.066
N  N309  1  0.67392925  0.16902593  0.17103561  1  -1.223733  0.074525  -0.323174  -0.216052  0.043857  3.569353  0.066
N  N310  1  0.33097129  0.17393093  0.42103564  1  -1.223618  0.074526  -0.323212  -0.216101  0.043858  3.569313  0.066
N  N311  1  0.66902695  0.82607025  0.92103522  1  -1.223623  0.074525  -0.323208  -0.21608  0.043858  3.569353  0.066
N  N312  1  0.39026440  0.24440337  0.59029961  1  -1.199806  0.080288  -0.322613  -0.205544  0.047217  3.565922  0.072
N  N313  1  0.60973557  0.75559605  0.09029918  1  -1.199777  0.080287  -0.32257  -0.205557  0.047217  3.565934  0.072
N  N314  1  0.25559703  0.89026522  0.84029972  1  -1.199844  0.08029  -0.322562  -0.205465  0.047219  3.565903  0.072
N  N315  1  0.74440335  0.10973438  0.34029958  1  -1.199866  0.08029  -0.322558  -0.205498  0.047219  3.565885  0.072
N  N316  1  0.10973474  0.74440294  0.65970027  1  -1.199792  0.080288  -0.322574  -0.205481  0.047218  3.565873  0.072
N  N317  1  0.89026383  0.25559653  0.15970054  1  -1.199829  0.080288  -0.32258  -0.205543  0.047218  3.565874  0.072
N  N318  1  0.24440488  0.39026503  0.40970121  1  -1.199782  0.080288  -0.322508  -0.205574  0.047218  3.566026  0.072
N  N319  1  0.75559562  0.60973539  0.90970079  1  -1.199841  0.080288  -0.322569  -0.205672  0.047218  3.566041  0.072
N  N320  1  0.74401094  0.15059941  0.44200072  1  -1.209337  0.070151  -0.318141  -0.214198  0.04156  3.56156  0.063
N  N321  1  0.25598809  0.84940027  0.94200051  1  -1.209348  0.07015  -0.318125  -0.214212  0.04156  3.561554  0.063
N  N322  1  0.34940027  0.24401174  0.69200006  1  -1.209367  0.070151  -0.318136  -0.214202  0.041561  3.561595  0.063
N  N323  1  0.65059986  0.75598851  0.19199964  1  -1.20939  0.070151  -0.318185  -0.214285  0.041561  3.561569  0.063
N  N324  1  0.75598796  0.65059882  0.80800000  1  -1.209391  0.070151  -0.318154  -0.214249  0.041561  3.561633  0.063
N  N325  1  0.24401237  0.34940076  0.30800007  1  -1.209371  0.070151  -0.318142  -0.214189  0.041561  3.561519  0.063
N  N326  1  0.15059963  0.74401040  0.55800017  1  -1.2094  0.070153  -0.318127  -0.214155  0.041562  3.561468  0.063
N  N327  1  0.84940105  0.25598974  0.05800077  1  -1.209408  0.070153  -0.318153  -0.214195  0.041562  3.561554  0.063
N  N328  1  0.82056889  0.35481801  0.42606315  1  -1.197972  0.066475  -0.313476  -0.20916  0.039348  3.557649  0.06
N  N329  1  0.17943164  0.64518090  0.92606289  1  -1.197951  0.066476  -0.313483  -0.209197  0.039349  3.557499  0.06
N  N330  1  0.14518314  0.32057163  0.67606312  1  -1.199055  0.066479  -0.31351  -0.209182  0.039349  3.557809  0.06
N  N331  1  0.85481774  0.67942860  0.17606276  1  -1.199047  0.066479  -0.313456  -0.209128  0.039348  3.557684  0.06
N  N332  1  0.67943267  0.85481833  0.82393760  1  -1.197984  0.066475  -0.313408  -0.209052  0.039348  3.557532  0.06
N  N333  1  0.32056769  0.14518277  0.32393766  1  -1.198  0.066476  -0.313433  -0.209117  0.039349  3.557611  0.06
N  N334  1  0.35481890  0.82056841  0.57393712  1  -1.197953  0.066475  -0.313471  -0.209176  0.039348  3.557541  0.06
N  N335  1  0.64518104  0.17943023  0.07393730  1  -1.197964  0.066475  -0.313431  -0.209091  0.039348  3.557639  0.06
O  O336  1  0.40400089  0.53839853  0.56129403  1  -0.965676  0.026198  -0.584977  -0.784916  0.01415  1.687146  0.022
O  O337  1  0.59600131  0.46160086  0.06129355  1  -0.965669  0.026198  -0.585038  -0.784974  0.01415  1.687086  0.022
O  O338  1  0.96160229  0.90399603  0.81129287  1  -0.965696  0.026197  -0.584989  -0.784921  0.01415  1.687113  0.022
O  O339  1  0.03839880  0.09600354  0.31129283  1  -0.965702  0.026197  -0.584992  -0.78494  0.01415  1.687109  0.022
O  O340  1  0.09600319  0.03839806  0.68870719  1  -0.965722  0.026198  -0.585009  -0.78495  0.01415  1.687122  0.022
O  O341  1  0.90399770  0.96160218  0.18870723  1  -0.965732  0.026199  -0.585002  -0.784924  0.014151  1.68712  0.022
O  O342  1  0.53839917  0.40399776  0.43870652  1  -0.96567  0.026198  -0.584938  -0.784888  0.01415  1.687127  0.022
O  O343  1  0.46160062  0.59600419  0.93870703  1  -0.965669  0.026198  -0.584976  -0.784933  0.01415  1.687122  0.022
O  O344  1  0.32229617  0.42480515  0.63923883  1  -1.050123  0.056399  -0.589277  -0.876712  0.032846  2.166662  0.051
O  O345  1  0.67770388  0.57519506  0.13923908  1  -1.050122  0.056398  -0.589309  -0.876766  0.032846  2.166608  0.051
O  O346  1  0.07519552  0.82229575  0.88923925  1  -1.050105  0.0564  -0.589293  -0.876718  0.032847  2.166651  0.051
O  O347  1  0.92480494  0.17770237  0.38923952  1  -1.050152  0.056399  -0.589301  -0.876741  0.032847  2.166511  0.051
O  O348  1  0.17770415  0.92480608  0.61076108  1  -1.050141  0.056398  -0.589258  -0.87667  0.032846  2.16656  0.051
O  O349  1  0.82229509  0.07519411  0.11076096  1  -1.050134  0.056399  -0.589256  -0.876655  0.032846  2.166547  0.051
O  O350  1  0.42480499  0.32229519  0.36076099  1  -1.050126  0.0564  -0.589294  -0.876584  0.032847  2.166404  0.051
O  O351  1  0.57519542  0.67770443  0.86076121  1  -1.050121  0.0564  -0.589278  -0.876693  0.032847  2.166603  0.051
O  O352  1  0.48253579  0.57477792  0.65222996  1  -0.972137  0.007917  -0.622096  -0.812105  0.003893  1.568309  0.006
O  O353  1  0.51746428  0.42522230  0.15222876  1  -0.972121  0.007917  -0.622078  -0.81209  0.003893  1.568286  0.006
O  O354  1  0.92522364  0.98253783  0.90222673  1  -0.972088  0.007917  -0.622039  -0.812056  0.003893  1.568345  0.006
O  O355  1  0.07478215  0.01746257  0.40222635  1  -0.971944  0.007918  -0.622082  -0.812096  0.003893  1.568327  0.006
O  O356  1  0.01745987  0.07477449  0.59777366  1  -0.971955  0.007916  -0.622105  -0.812141  0.003893  1.568375  0.006
O  O357  1  0.98254012  0.92522568  0.09777338  1  -0.971953  0.007916  -0.622051  -0.812106  0.003892  1.568357  0.006
O  O358  1  0.57478071  0.48253259  0.34777062  1  -0.972125  0.007918  -0.62209  -0.812078  0.003893  1.568354  0.006
O  O359  1  0.42522045  0.51746397  0.84777282  1  -0.972079  0.007917  -0.622083  -0.812096  0.003893  1.568291  0.006
O  O360  1  0.27800211  0.63960050  0.62724394  1  -1.041819  0.054985  -0.590603  -0.871999  0.031937  2.139018  0.05
O  O361  1  0.72199868  0.36039970  0.12724485  1  -1.041858  0.054984  -0.590622  -0.871988  0.031937  2.139018  0.05
O  O362  1  0.86040069  0.77800038  0.87724447  1  -1.041852  0.054985  -0.590609  -0.872013  0.031937  2.139023  0.05
O  O363  1  0.13959975  0.22200076  0.37724449  1  -1.041861  0.054986  -0.590611  -0.872031  0.031938  2.13902  0.05
O  O364  1  0.22199419  0.13960278  0.62275525  1  -1.041851  0.054983  -0.590598  -0.872021  0.031937  2.139012  0.05
O  O365  1  0.77800583  0.86039665  0.12275523  1  -1.04184  0.054983  -0.590612  -0.872013  0.031937  2.138957  0.05
O  O366  1  0.63959949  0.27799808  0.37275593  1  -1.041885  0.054985  -0.590626  -0.872013  0.031937  2.139037  0.05
O  O367  1  0.36040095  0.72200155  0.87275539  1  -1.041913  0.054985  -0.590626  -0.872017  0.031938  2.139021  0.05
