# generated using pymatgen
data_ZnCoH36C53(NO)8
_symmetry_space_group_name_H-M   'P 1'
_cell_length_a   14.18291535
_cell_length_b   20.38804078
_cell_length_c   21.41540512
_cell_angle_alpha   108.71541460
_cell_angle_beta   109.24058902
_cell_angle_gamma   90.01818177
_symmetry_Int_Tables_number   1
_chemical_formula_structural   ZnCoH36C53(NO)8
_chemical_formula_sum   'Zn4 Co4 H144 C212 N32 O32'
_cell_volume   5498.39466470
_cell_formula_units_Z   4
loop_
 _symmetry_equiv_pos_site_id
 _symmetry_equiv_pos_as_xyz
  1  'x, y, z'
loop_
 _atom_site_type_symbol
 _atom_site_label
 _atom_site_symmetry_multiplicity
 _atom_site_fract_x
 _atom_site_fract_y
 _atom_site_fract_z
 _atom_site_occupancy
 _atom_site_pbe_bader_charge
 _atom_site_pbe_bader_spin_density
 _atom_site_pbe_cm5_charge
 _atom_site_pbe_ddec_charge
 _atom_site_pbe_ddec_spin_density
 _atom_site_pbe_ddec_sum_bond_order
 _atom_site_pbe_magmom
Zn  Zn0  1  0.61945715  0.11875134  0.16869423  1  1.257694  2.5e-05  0.697427  0.767996  2.1e-05  2.422946  0.0
Zn  Zn1  1  0.37989827  0.83594125  0.44535157  1  1.267396  7e-06  0.706467  0.802487  7e-06  2.447807  0.0
Zn  Zn2  1  0.93529016  0.66395303  0.55558034  1  1.266293  8e-06  0.706653  0.802013  6e-06  2.449169  0.0
Zn  Zn3  1  0.38028341  0.88138601  0.83129325  1  1.258794  2.2e-05  0.697331  0.767395  1.6e-05  2.422592  0.0
Co  Co4  1  0.45123291  0.38088127  0.83062143  1  1.186279  2.552925  0.670987  0.791045  2.783615  2.566903  2.5
Co  Co5  1  0.62166905  0.16483693  0.55443519  1  1.206483  2.547486  0.693639  0.833172  2.767701  2.62015  2.481
Co  Co6  1  0.06606767  0.33522131  0.44460780  1  1.207998  2.547163  0.693316  0.833037  2.766749  2.618856  2.481
Co  Co7  1  0.54838933  0.61904131  0.16952802  1  1.18293  2.553047  0.670597  0.790312  2.783741  2.567376  2.5
H  H8  1  0.41205983  0.63408526  0.85130670  1  0.103485  0.000137  0.10177  0.107333  5.5e-05  1.021645  0.0
H  H9  1  0.37037618  0.68250858  0.66378826  1  0.081384  2e-06  0.101576  0.104011  -3e-06  1.025367  0.0
H  H10  1  0.38611854  0.55919547  0.60079478  1  0.082602  2.5e-05  0.097095  0.098087  -2e-06  1.036401  0.0
H  H11  1  0.41261138  0.47265913  0.66368817  1  0.075779  0.000454  0.105112  0.108224  0.000165  0.9985  0.0
H  H12  1  0.40902714  0.32347373  0.94323629  1  0.206202  0.000519  0.144227  0.125633  4.7e-05  1.0031  0.001
H  H13  1  0.20562999  0.47537738  0.96352677  1  0.103932  0.000748  0.119994  0.11416  0.000291  1.024798  0.0
H  H14  1  0.29777987  0.48696595  0.87051060  1  0.137549  0.000925  0.127158  0.12603  0.000211  0.98928  0.001
H  H15  1  0.43181134  0.35126150  0.06556085  1  0.11098  0.000108  0.11534  0.126799  3.6e-05  1.007263  0.0
H  H16  1  0.40068515  0.32320303  0.16076863  1  0.120082  -1e-06  0.102712  0.106023  -7e-06  1.04422  0.0
H  H17  1  0.09406850  0.36640043  0.08689019  1  0.074911  2.8e-05  0.100713  0.101165  1e-05  1.004979  0.0
H  H18  1  0.12358719  0.39028894  0.98814611  1  0.056223  3.4e-05  0.102283  0.103892  1.7e-05  1.018596  0.0
H  H19  1  0.77531960  0.22025408  0.15724032  1  0.208307  -0.0  0.144593  0.122884  -6e-06  0.993453  0.0
H  H20  1  0.94806732  0.05147943  0.11960489  1  0.123725  -3e-06  0.121648  0.121849  -3e-06  1.010453  0.0
H  H21  1  0.75960531  0.00318732  0.11456726  1  0.151701  -0.0  0.119995  0.121862  0.0  1.028038  0.0
H  H22  1  0.97323171  0.25598974  0.25814328  1  0.103955  0.000269  0.113873  0.121588  8.7e-05  1.005028  0.0
H  H23  1  0.11959490  0.33814383  0.28315792  1  0.088956  6e-05  0.114154  0.122778  -2e-06  0.988193  0.0
H  H24  1  0.12375508  0.23362362  0.07431764  1  0.074493  -3e-06  0.094604  0.092754  -4e-06  1.057726  0.0
H  H25  1  0.97925965  0.14939173  0.05055525  1  0.064747  1e-06  0.103389  0.110114  2e-06  1.000624  0.0
H  H26  1  0.38674359  0.67560284  0.35625812  1  0.185859  -1.2e-05  0.144629  0.114421  -2.1e-05  0.995422  0.0
H  H27  1  0.07509007  0.64339594  0.32451571  1  0.117411  -0.0  0.125949  0.12422  -1e-06  1.010729  0.0
H  H28  1  0.14858314  0.78412656  0.39510606  1  0.185231  -0.0  0.119848  0.124571  -1e-06  1.047511  0.0
H  H29  1  0.38928600  0.56711400  0.31576416  1  0.065941  -3e-06  0.114038  0.122266  -2.8e-05  0.993892  0.0
H  H30  1  0.38554877  0.44187937  0.26271522  1  0.108607  -2e-06  0.104329  0.106715  -1.6e-05  1.025279  0.0
H  H31  1  0.06513475  0.41453071  0.21488356  1  0.063766  -5e-06  0.101677  0.102938  -1e-05  1.01662  0.0
H  H32  1  0.06761446  0.53995550  0.26778355  1  0.058533  0.0  0.108734  0.114686  -1e-06  1.000468  0.0
H  H33  1  0.45839896  0.23460123  0.45988034  1  0.201612  0.000368  0.135578  0.113865  -3.9e-05  1.042945  0.001
H  H34  1  0.60115139  0.16517974  0.30751448  1  0.188456  0.000696  0.125449  0.142318  0.000294  1.046487  0.0
H  H35  1  0.69253900  0.11982988  0.41993273  1  0.117284  0.000982  0.126998  0.124568  0.000319  0.992974  0.001
H  H36  1  0.43691577  0.33035512  0.41525413  1  0.085722  5.3e-05  0.114409  0.125127  -6e-06  0.996964  0.0
H  H37  1  0.31950569  0.38567579  0.34273122  1  0.09238  4.4e-05  0.103337  0.109207  -4e-06  1.039336  0.0
H  H38  1  0.31112043  0.21795743  0.15565199  1  0.083544  2.5e-05  0.096112  0.095471  8e-06  1.025078  0.0
H  H39  1  0.42927288  0.16131999  0.22941500  1  0.075036  1.9e-05  0.103562  0.107723  8e-06  1.03089  0.0
H  H40  1  0.60193431  0.95613248  0.49047546  1  0.12833  0.000243  0.110284  0.126303  -1.6e-05  0.999198  0.0
H  H41  1  0.77148315  0.78115984  0.47360174  1  0.069847  5e-06  0.096763  0.095831  -3e-06  1.056703  0.0
H  H42  1  0.93118966  0.86254465  0.52203902  1  0.0471  0.000172  0.094731  0.08943  6.9e-05  1.018888  0.0
H  H43  1  0.92386409  0.99136084  0.55530094  1  0.077434  2.5e-05  0.100021  0.102921  -3.8e-05  1.006349  0.0
H  H44  1  0.56053736  0.86282607  0.14909828  1  0.115016  0.000147  0.101874  0.107698  5.9e-05  1.022991  0.0
H  H45  1  0.70846148  0.81652565  0.33758307  1  0.090991  0.000488  0.101839  0.104558  0.000212  1.022669  0.0
H  H46  1  0.78613516  0.94005181  0.39911678  1  0.1201  2.5e-05  0.096862  0.098064  2e-06  1.036696  0.0
H  H47  1  0.74760728  0.02570207  0.33515043  1  0.096875  3e-06  0.104268  0.106977  -2e-05  1.001822  0.0
H  H48  1  0.46448776  0.17694525  0.05731930  1  0.183873  -0.0  0.144112  0.126483  -0.0  1.003016  0.0
H  H49  1  0.24061048  0.02321375  0.03382485  1  0.139499  -1e-06  0.120712  0.115536  -1e-06  1.02377  0.0
H  H50  1  0.42526318  0.01106848  0.12689477  1  0.140063  -0.0  0.12791  0.128521  -1e-06  0.990142  0.0
H  H51  1  0.36520273  0.14840185  0.93337697  1  0.122285  0.0  0.115454  0.128076  -7e-06  1.007657  0.0
H  H52  1  0.23910437  0.17691335  0.83852988  1  0.102712  -9e-06  0.103399  0.106615  -3.5e-05  1.042894  0.0
H  H53  1  0.00653803  0.13403740  0.91305982  1  0.058337  -1e-06  0.100933  0.101655  -0.0  1.004619  0.0
H  H54  1  0.13470376  0.10997922  0.01162882  1  0.057166  -2e-06  0.102081  0.103845  -2e-06  1.018794  0.0
H  H55  1  0.61614911  0.27951921  0.83867501  1  0.176809  0.000654  0.144074  0.121292  5.2e-05  0.995275  0.0
H  H56  1  0.82922524  0.44966967  0.88399264  1  0.099506  0.000906  0.120024  0.119458  0.000379  1.011562  0.0
H  H57  1  0.64510306  0.49741713  0.88746179  1  0.149686  0.000704  0.119376  0.120944  0.000131  1.031745  0.001
H  H58  1  0.71479266  0.24405733  0.74173312  1  0.109027  0.000272  0.113253  0.120689  7.4e-05  1.005726  0.0
H  H59  1  0.83585670  0.16169101  0.71690323  1  0.091083  5.3e-05  0.114002  0.122872  -1e-05  0.987488  0.0
H  H60  1  0.04879927  0.26714993  0.92518012  1  0.078811  1.9e-05  0.094884  0.0934  3e-06  1.056141  0.0
H  H61  1  0.92824562  0.35149445  0.94883496  1  0.050236  3.6e-05  0.103072  0.109467  1.6e-05  1.000413  0.0
H  H62  1  0.03028039  0.82433276  0.64409296  1  0.147694  2e-06  0.144641  0.114541  1e-06  0.996134  0.0
H  H63  1  0.74990378  0.85662462  0.67530576  1  0.129481  -0.0  0.125866  0.124304  0.0  1.010576  0.0
H  H64  1  0.75340080  0.71578356  0.60530498  1  0.196473  -0.0  0.120348  0.125666  -0.0  1.046654  0.0
H  H65  1  0.07284580  0.93281193  0.68394871  1  0.077898  -2e-06  0.114475  0.122841  -2e-06  0.993723  0.0
H  H66  1  0.12201883  0.05802686  0.73674941  1  0.106244  -4e-06  0.104245  0.106862  -4e-06  1.024934  0.0
H  H67  1  0.84965219  0.08557357  0.78510165  1  0.07113  -3e-06  0.101481  0.103159  -9e-06  1.017425  0.0
H  H68  1  0.79928448  0.96012551  0.73232854  1  0.059347  -1e-06  0.109146  0.115779  -0.0  1.00065  0.0
H  H69  1  0.99699430  0.26529559  0.53948399  1  0.194979  0.000366  0.135585  0.113687  -4.4e-05  1.04206  0.001
H  H70  1  0.29157939  0.33562589  0.69156721  1  0.192851  0.000738  0.12645  0.143065  0.000184  1.051669  0.0
H  H71  1  0.27025982  0.38068144  0.57892772  1  0.123046  0.001007  0.12715  0.124427  0.000333  0.994151  0.001
H  H72  1  0.02034178  0.16966662  0.58416622  1  0.14253  5.4e-05  0.11438  0.125088  -5e-06  0.997601  0.0
H  H73  1  0.97617666  0.11419924  0.65695410  1  0.115513  4.4e-05  0.103372  0.109302  -4e-06  1.038275  0.0
H  H74  1  0.15466299  0.28199082  0.84376566  1  0.058501  8e-06  0.096497  0.095893  -3e-05  1.025683  0.0
H  H75  1  0.19852595  0.33873419  0.76981159  1  0.067251  0.000214  0.104598  0.10779  0.000137  1.032432  0.0
H  H76  1  0.11160165  0.54405513  0.51012485  1  0.139313  0.00024  0.110227  0.126086  -1.6e-05  0.998587  0.0
H  H77  1  0.29824259  0.71895253  0.52697949  1  0.065442  4e-06  0.096931  0.095375  -3e-06  1.058334  0.0
H  H78  1  0.40893156  0.63749257  0.47777902  1  0.05721  0.000172  0.094844  0.089876  7.1e-05  1.018107  0.0
H  H79  1  0.36792856  0.50867290  0.44409952  1  0.076318  2.5e-05  0.100271  0.103226  -3.7e-05  1.005465  0.0
H  H80  1  0.58805064  0.36616312  0.14898142  1  0.106972  0.000135  0.101632  0.107075  5.5e-05  1.022019  0.0
H  H81  1  0.62938096  0.31731457  0.33622911  1  0.084312  1e-06  0.101597  0.104205  -7e-06  1.025797  0.0
H  H82  1  0.61352432  0.44056409  0.39939260  1  0.07811  3.2e-05  0.097367  0.098752  1.3e-05  1.036569  0.0
H  H83  1  0.58689462  0.52723536  0.33664641  1  0.079209  0.000451  0.105003  0.10808  0.000176  0.998845  0.0
H  H84  1  0.59117616  0.67633098  0.05706711  1  0.215287  0.000518  0.144271  0.126271  4.8e-05  1.002955  0.001
H  H85  1  0.79408398  0.52408917  0.03679730  1  0.111121  0.000747  0.120089  0.11434  0.000293  1.024173  0.0
H  H86  1  0.70168967  0.51268533  0.12976827  1  0.12919  0.000925  0.127322  0.127005  0.00021  0.988473  0.001
H  H87  1  0.56846805  0.64833907  0.93473568  1  0.112532  0.000106  0.115257  0.127115  3.5e-05  1.0066  0.0
H  H88  1  0.59982294  0.67624887  0.83951464  1  0.087427  -1e-06  0.103152  0.106688  -7e-06  1.044442  0.0
H  H89  1  0.90633833  0.63293805  0.91360160  1  0.077473  2.8e-05  0.100784  0.101538  9e-06  1.003851  0.0
H  H90  1  0.87663450  0.60925970  0.01241350  1  0.055848  3.5e-05  0.102054  0.104277  1.8e-05  1.018235  0.0
H  H91  1  0.22549585  0.77967641  0.84330489  1  0.200653  0.0  0.144936  0.122745  0.0  0.99349  0.0
H  H92  1  0.05151384  0.94778805  0.88062589  1  0.12254  -0.0  0.121335  0.121465  1e-06  1.010575  0.0
H  H93  1  0.23947967  0.99661870  0.88529416  1  0.152576  -0.0  0.119721  0.12176  1e-06  1.027133  0.0
H  H94  1  0.02841743  0.74268036  0.74283232  1  0.096511  -0.0  0.113626  0.122941  -0.0  1.001191  0.0
H  H95  1  0.88208196  0.66043713  0.71775362  1  0.115336  -1e-06  0.113907  0.122929  -2e-06  0.987819  0.0
H  H96  1  0.87607431  0.76609926  0.92588363  1  0.08378  -0.0  0.094731  0.092728  -1e-06  1.056418  0.0
H  H97  1  0.02027247  0.85048412  0.94959352  1  0.065887  0.0  0.1037  0.110246  -0.0  1.000935  0.0
H  H98  1  0.61241827  0.32360505  0.64329482  1  0.175669  0.000627  0.14378  0.113288  1.9e-05  0.999576  0.001
H  H99  1  0.92362497  0.35596875  0.67359555  1  0.093787  0.000866  0.125996  0.12371  0.000332  1.010085  0.0
H  H100  1  0.84994993  0.21556284  0.60226397  1  0.18726  0.001163  0.120084  0.123994  0.000536  1.049426  0.001
H  H101  1  0.61022822  0.43236947  0.68393650  1  0.041089  -3.9e-05  0.113978  0.122585  -8.2e-05  0.993669  0.0
H  H102  1  0.61461904  0.55756826  0.73774677  1  0.112258  -3e-06  0.103555  0.105534  -1.4e-05  1.02601  0.0
H  H103  1  0.93505433  0.58428427  0.78536576  1  0.064351  2.1e-05  0.10109  0.102183  8e-06  1.018164  0.0
H  H104  1  0.93189362  0.45896461  0.73172211  1  0.056584  5.4e-05  0.108586  0.114758  2.4e-05  1.001218  0.0
H  H105  1  0.54334578  0.76625490  0.54142911  1  0.221945  1e-06  0.135397  0.115757  2e-06  1.043796  0.0
H  H106  1  0.39901138  0.83372046  0.69304376  1  0.194159  0.0  0.125797  0.143186  -0.0  1.047676  0.0
H  H107  1  0.30898750  0.88069847  0.58147457  1  0.126368  -1e-06  0.127207  0.125958  -2e-06  0.99159  0.0
H  H108  1  0.56265128  0.66904530  0.58535807  1  0.102845  1e-06  0.114536  0.125399  0.0  0.995846  0.0
H  H109  1  0.67996148  0.61346965  0.65764747  1  0.119293  -6e-06  0.103761  0.1109  -8e-06  1.038418  0.0
H  H110  1  0.69045223  0.78166874  0.84496751  1  0.089513  1e-06  0.096013  0.095228  0.0  1.025704  0.0
H  H111  1  0.57252607  0.83865686  0.77141352  1  0.08491  -0.0  0.103436  0.107785  -0.0  1.031641  0.0
H  H112  1  0.39681208  0.04256339  0.50686720  1  0.130292  0.000112  0.110568  0.126261  -0.000124  1.00091  0.0
H  H113  1  0.23138174  0.21967625  0.52818514  1  0.119841  -1e-06  0.097627  0.096785  -0.000229  1.056948  0.0
H  H114  1  0.07055248  0.13960720  0.47987108  1  0.05866  -3e-06  0.094728  0.089169  -0.000134  1.019883  0.0
H  H115  1  0.07524977  0.01048202  0.44522066  1  0.097632  9e-06  0.100331  0.103064  -8e-06  1.005217  0.0
H  H116  1  0.43911441  0.13693498  0.85062955  1  0.117133  0.000146  0.101479  0.106977  5.9e-05  1.022599  0.0
H  H117  1  0.29128328  0.18355079  0.66231695  1  0.089329  0.000486  0.102136  0.104953  0.00021  1.023616  0.0
H  H118  1  0.21348334  0.06006008  0.60064086  1  0.114723  3.1e-05  0.097119  0.09857  1.6e-05  1.037168  0.0
H  H119  1  0.25156302  0.97433199  0.66453161  1  0.092629  -4e-06  0.104319  0.106274  -1.2e-05  1.002701  0.0
H  H120  1  0.53563618  0.82337265  0.94243445  1  0.18691  -0.0  0.144803  0.127386  -1e-06  1.002814  0.0
H  H121  1  0.75913118  0.97730270  0.96583021  1  0.111054  -0.0  0.120784  0.115358  1e-06  1.023442  0.0
H  H122  1  0.57425470  0.98940285  0.87291423  1  0.14258  -1e-06  0.127481  0.127981  -1e-06  0.988999  0.0
H  H123  1  0.63486714  0.85225584  0.06632104  1  0.131621  -0.0  0.115688  0.128764  -7e-06  1.008326  0.0
H  H124  1  0.76097879  0.82375851  0.16117930  1  0.110746  -1e-05  0.103278  0.106194  -3.5e-05  1.043561  0.0
H  H125  1  0.99350104  0.86640029  0.08649464  1  0.057759  -1e-06  0.100657  0.100794  -2e-06  1.004634  0.0
H  H126  1  0.86525519  0.89038956  0.98785944  1  0.087229  -0.0  0.102044  0.103457  -0.0  1.019846  0.0
H  H127  1  0.38391378  0.72068782  0.16105768  1  0.198085  0.000645  0.144475  0.12158  5.8e-05  0.995132  0.0
H  H128  1  0.17007862  0.55098606  0.11570872  1  0.105765  0.000901  0.120155  0.119625  0.000381  1.011952  0.0
H  H129  1  0.35417122  0.50284459  0.11262037  1  0.155783  0.000708  0.119374  0.12098  0.000132  1.03111  0.001
H  H130  1  0.28574082  0.75716672  0.25747167  1  0.115675  1.5e-05  0.112992  0.122102  -1.1e-05  1.002978  0.0
H  H131  1  0.16479202  0.83964954  0.28235614  1  0.113588  4e-06  0.113726  0.122999  -3e-06  0.988036  0.0
H  H132  1  0.95070044  0.73304255  0.07477505  1  0.073009  2.2e-05  0.094971  0.093263  7e-06  1.056714  0.0
H  H133  1  0.07109587  0.64859773  0.05114952  1  0.05188  3.5e-05  0.10307  0.109429  1.4e-05  1.000784  0.0
H  H134  1  0.96890166  0.17632720  0.35633240  1  0.175979  0.000636  0.143544  0.113853  3.3e-05  1.00003  0.001
H  H135  1  0.25021039  0.14398924  0.32646082  1  0.111328  0.000858  0.125793  0.123533  0.000333  1.011166  0.0
H  H136  1  0.24724281  0.28448167  0.39720264  1  0.1815  0.001161  0.120075  0.124288  0.000528  1.04815  0.001
H  H137  1  0.92655175  0.06752912  0.31631573  1  0.065146  -3.6e-05  0.113951  0.122861  -5.8e-05  0.993314  0.0
H  H138  1  0.87742874  0.94232207  0.26276376  1  0.10432  -5e-06  0.103788  0.105759  -2e-06  1.026955  0.0
H  H139  1  0.15010183  0.91555631  0.21469027  1  0.062192  2.2e-05  0.101452  0.102976  8e-06  1.017933  0.0
H  H140  1  0.20031804  0.04094254  0.26810331  1  0.05161  5.3e-05  0.108648  0.115  2.5e-05  1.000878  0.0
H  H141  1  0.00300590  0.73402922  0.45936336  1  0.227906  -0.0  0.135753  0.11572  -0.0  1.042917  0.0
H  H142  1  0.70783886  0.66522651  0.30774961  1  0.205784  7.7e-05  0.12674  0.143363  -0.000134  1.052457  0.0
H  H143  1  0.72958497  0.61866533  0.41958858  1  0.131476  2.5e-05  0.12675  0.124834  5e-06  0.993105  0.0
H  H144  1  0.97832347  0.83092350  0.41525055  1  0.145707  3e-06  0.11452  0.125588  1e-06  0.996415  0.0
H  H145  1  0.02282111  0.88656875  0.34267772  1  0.112433  -6e-06  0.104031  0.11085  -9e-06  1.038103  0.0
H  H146  1  0.84589224  0.71838962  0.15563014  1  0.10253  -1.7e-05  0.096516  0.096136  -3.9e-05  1.025089  0.0
H  H147  1  0.80195380  0.66136367  0.22938183  1  0.106748  0.000183  0.104285  0.107831  0.00011  1.032586  0.0
H  H148  1  0.88915537  0.45754212  0.49233666  1  0.146776  0.000107  0.110686  0.126374  -0.000126  1.001097  0.0
H  H149  1  0.70276725  0.28027692  0.47112740  1  0.054843  5e-06  0.097666  0.096434  -0.000231  1.058028  0.0
H  H150  1  0.59057477  0.36021620  0.52012249  1  0.054901  -4e-06  0.095053  0.08942  -0.000132  1.021124  0.0
H  H151  1  0.62989459  0.48938299  0.55510413  1  0.07197  1.2e-05  0.100097  0.103187  -8e-06  1.004802  0.0
C  C152  1  0.43515226  0.49780240  0.80080702  1  1.505067  -0.000412  0.193173  0.546936  -0.000962  4.23139  -0.002
C  C153  1  0.41503849  0.54799596  0.76155864  1  -0.029964  0.003122  -0.024713  -0.043007  0.001651  4.007826  0.002
C  C154  1  0.40654986  0.61731291  0.79641103  1  -0.031201  0.001047  -0.0822  -0.116052  0.000455  3.958057  0.001
C  C155  1  0.39065157  0.66586506  0.76144519  1  -0.099866  0.00054  -0.024257  -0.04324  0.000249  3.983428  0.0
C  C156  1  0.38335651  0.64456819  0.69079810  1  0.051983  8.7e-05  -0.076923  -0.069429  3.2e-05  3.933556  0.0
C  C157  1  0.39183838  0.57538518  0.65568025  1  -0.076027  8.3e-05  -0.091226  -0.081843  -9e-06  3.994545  0.0
C  C158  1  0.40670576  0.52702230  0.69058555  1  -0.042128  0.000911  -0.080928  -0.090212  0.000454  3.95591  0.001
C  C159  1  0.38458365  0.74012415  0.80138027  1  1.545521  7.3e-05  0.191968  0.555729  3.6e-05  4.232628  0.0
C  C160  1  0.36733212  0.36681376  0.93669370  1  0.945427  0.001854  0.156257  0.119383  0.000891  3.844437  0.002
C  C161  1  0.25864592  0.44497275  0.94381730  1  0.292753  0.002702  -0.002559  -0.111377  0.001354  3.937258  0.002
C  C162  1  0.30501743  0.45043050  0.89855268  1  0.412149  0.002843  0.007785  -0.013393  0.00153  3.988748  0.003
C  C163  1  0.27942848  0.37154463  0.02032297  1  0.260404  0.0004  0.093053  0.160406  0.000217  4.035568  0.0
C  C164  1  0.35635390  0.35107220  0.06792367  1  0.040748  0.000321  -0.080752  -0.144655  0.00014  3.960199  0.0
C  C165  1  0.33841660  0.33613430  0.12243828  1  -0.060106  0.0  -0.085783  -0.112901  -2.5e-05  3.967338  0.0
C  C166  1  0.24481467  0.34201578  0.13077316  1  -0.008168  0.000172  -0.005321  0.059819  9.2e-05  3.919666  0.0
C  C167  1  0.16763769  0.36114644  0.08121708  1  -0.068773  7.5e-05  -0.092599  -0.118572  1.6e-05  4.003394  0.0
C  C168  1  0.18399668  0.37543688  0.02619413  1  -0.04423  0.00044  -0.09828  -0.175348  0.000245  4.021199  0.0
C  C169  1  0.22751710  0.33985775  0.19737865  1  0.047239  -4e-06  0.014694  0.004616  -1e-05  3.797132  0.0
C  C170  1  0.79638332  0.16773892  0.14699449  1  0.956847  -1.4e-05  0.155104  0.111655  -3.3e-05  3.874039  0.0
C  C171  1  0.88343132  0.07795977  0.12471817  1  0.340189  -8e-06  -0.005461  -0.120434  -1.5e-05  3.935442  0.0
C  C172  1  0.79136380  0.05499689  0.12306912  1  0.353528  -1.2e-05  0.003487  -0.020203  -1.5e-05  3.985444  0.0
C  C173  1  0.96823912  0.19784040  0.15297679  1  0.2618  -7.6e-05  0.08736  0.156011  -0.000101  4.043272  0.0
C  C174  1  0.00602379  0.25173183  0.21779437  1  0.014524  3.3e-05  -0.084469  -0.152537  -1.4e-05  3.97235  0.0
C  C175  1  0.08780739  0.29832494  0.23120685  1  -0.000377  5.4e-05  -0.078566  -0.101597  2.5e-05  3.950716  0.0
C  C176  1  0.13089930  0.29301381  0.17969373  1  -0.011853  -4e-05  -0.000972  0.065665  -4.8e-05  3.908311  0.0
C  C177  1  0.09120517  0.23881702  0.11491569  1  -0.103508  -6.5e-05  -0.096078  -0.127304  -7.5e-05  4.011502  0.0
C  C178  1  0.01059262  0.19102039  0.10134957  1  -0.01034  1.1e-05  -0.09688  -0.16914  -0.0  4.021245  0.0
C  C179  1  0.31146843  0.68541565  0.35598079  1  0.926736  0.0  0.152971  0.097504  -9e-06  3.89577  0.0
C  C180  1  0.14915409  0.67035145  0.34021270  1  0.324488  -1e-06  0.005168  -0.095272  -2e-06  3.89668  0.0
C  C181  1  0.18502100  0.73934388  0.37508571  1  0.377972  -2e-06  0.009614  -0.012624  -3e-06  3.966417  0.0
C  C182  1  0.22833099  0.56317222  0.29611010  1  0.247522  3e-06  0.095693  0.166099  -2e-06  4.02823  0.0
C  C183  1  0.31750246  0.53444030  0.29411231  1  0.078316  -1.4e-05  -0.085726  -0.160855  -3.9e-05  3.981229  0.0
C  C184  1  0.31532138  0.46289636  0.26420514  1  -0.128481  -2e-06  -0.082039  -0.101548  -1.5e-05  3.965951  0.0
C  C185  1  0.22542612  0.41770823  0.23593064  1  0.012665  5e-06  -0.004382  0.057824  -3e-06  3.920328  0.0
C  C186  1  0.13697180  0.44729345  0.23719975  1  -0.03793  -1.2e-05  -0.092644  -0.123337  -2.8e-05  4.011535  0.0
C  C187  1  0.13801964  0.51915335  0.26704636  1  0.034459  2.3e-05  -0.092859  -0.163308  6e-06  3.99185  0.0
C  C188  1  0.50979084  0.20962641  0.43405843  1  0.909337  -0.001552  0.137862  0.081504  -0.002291  3.889431  0.0
C  C189  1  0.58377563  0.17055392  0.35428423  1  0.230652  0.004823  0.008477  -0.087839  0.002389  3.868451  0.003
C  C190  1  0.62874383  0.14909251  0.41043196  1  0.486677  0.002118  0.008622  -0.014061  0.001317  3.969175  0.002
C  C191  1  0.44176641  0.24218285  0.32717578  1  0.283425  0.000497  0.097048  0.164494  0.000233  4.020498  0.0
C  C192  1  0.41045664  0.30537690  0.35835104  1  0.018526  8e-05  -0.082192  -0.148004  -2.7e-05  3.959109  0.0
C  C193  1  0.34428284  0.33745128  0.31635263  1  -0.01464  7e-05  -0.084508  -0.107888  -6e-06  3.974344  0.0
C  C194  1  0.30900628  0.30796644  0.24298831  1  -0.069226  -1e-06  -0.007541  0.053003  -2.3e-05  3.914231  0.0
C  C195  1  0.34006264  0.24377628  0.21258000  1  -0.033217  5e-05  -0.093456  -0.119577  -1.2e-05  3.996846  0.0
C  C196  1  0.40607970  0.21109601  0.25389228  1  -0.007384  0.00032  -0.092554  -0.158738  0.000166  3.991686  0.0
C  C197  1  0.75701829  0.05904989  0.54605319  1  1.560536  0.002567  0.200334  0.562426  0.002652  4.234162  0.002
C  C198  1  0.76273060  0.98181847  0.52711794  1  0.068042  0.005033  -0.024081  -0.042602  0.002534  3.990261  0.004
C  C199  1  0.67415457  0.93566998  0.49809820  1  -0.073751  0.000907  -0.07674  -0.101502  0.000396  3.915107  0.0
C  C200  1  0.67712876  0.86352260  0.47783964  1  -0.082176  -4.5e-05  -0.020445  -0.03502  -0.000103  3.964033  0.0
C  C201  1  0.77033458  0.83739641  0.48800592  1  -0.039272  0.00051  -0.088414  -0.095778  0.000256  3.968204  0.0
C  C202  1  0.85888833  0.88315284  0.51546354  1  -0.002867  0.000639  -0.103126  -0.105282  0.000316  4.044205  0.0
C  C203  1  0.85541320  0.95517108  0.53470462  1  -0.128351  0.001485  -0.089029  -0.10197  0.000662  3.992257  0.001
C  C204  1  0.58001829  0.81547486  0.44772684  1  1.580391  1e-05  0.197268  0.572987  -1.1e-05  4.231235  0.0
C  C205  1  0.63218092  0.99880952  0.19745936  1  1.547506  7.5e-05  0.190919  0.552969  4e-05  4.237077  0.0
C  C206  1  0.65258259  0.94951027  0.23798548  1  -0.031824  0.000644  -0.024934  -0.042408  0.000304  4.001502  0.001
C  C207  1  0.60994052  0.88003700  0.20393181  1  -0.012256  0.000541  -0.083387  -0.117593  0.000138  3.960081  0.0
C  C208  1  0.62983878  0.83205455  0.23954421  1  -0.042615  0.003682  -0.024271  -0.042716  0.001916  3.987842  0.003
C  C209  1  0.69361563  0.85401302  0.31004430  1  -0.063261  0.000563  -0.076621  -0.069591  0.000236  3.932  0.0
C  C210  1  0.73662956  0.92333246  0.34435384  1  -0.083594  8.2e-05  -0.090205  -0.08103  -1e-05  3.997498  0.0
C  C211  1  0.71550858  0.97118425  0.30882149  1  -0.07486  -0.000375  -0.081591  -0.090634  -0.000447  3.961471  0.0
C  C212  1  0.58413091  0.75791650  0.20060319  1  1.530776  -0.000319  0.195462  0.551139  -0.000744  4.226298  -0.002
C  C213  1  0.42897651  0.13300391  0.06285511  1  0.998256  -0.0  0.160643  0.122535  0.0  3.840743  0.0
C  C214  1  0.31324490  0.05380591  0.05413699  1  0.261757  -3e-06  -0.001522  -0.112847  -4e-06  3.938713  0.0
C  C215  1  0.40443870  0.04810150  0.09946235  1  0.417776  0.0  0.007852  -0.014563  -0.0  3.985055  0.0
C  C216  1  0.25806024  0.12846621  0.97893913  1  0.297305  -5e-06  0.092252  0.156849  -4e-06  4.038426  0.0
C  C217  1  0.28751729  0.14890947  0.93130710  1  0.014692  -4e-06  -0.080808  -0.142934  -1.3e-05  3.956832  0.0
C  C218  1  0.21516139  0.16395017  0.87692373  1  -0.062676  3e-06  -0.085628  -0.11229  -1.8e-05  3.961433  0.0
C  C219  1  0.11331890  0.15811413  0.86880878  1  -0.013973  -6e-06  -0.004412  0.061282  -3e-06  3.920557  0.0
C  C220  1  0.08568888  0.13912069  0.91852586  1  -0.052428  -4e-06  -0.092201  -0.119205  -4e-06  4.003497  0.0
C  C221  1  0.15694802  0.12473428  0.97340681  1  -0.039776  -1e-06  -0.098211  -0.17431  -0.0  4.0236  0.0
C  C222  1  0.02941661  0.16018783  0.80232112  1  0.039644  -7e-06  0.013652  0.002354  -9e-06  3.800088  0.0
C  C223  1  0.64779876  0.33231592  0.85041529  1  0.971459  0.006149  0.152336  0.110248  0.003656  3.877786  0.005
C  C224  1  0.75874728  0.42273855  0.87707451  1  0.287847  0.004067  -0.006698  -0.11994  0.00214  3.935198  0.003
C  C225  1  0.66794086  0.44547928  0.87787294  1  0.445171  0.002789  0.002154  -0.017878  0.001324  3.985537  0.002
C  C226  1  0.81468275  0.30267857  0.84668625  1  0.265348  0.000397  0.087861  0.15744  0.000169  4.044109  0.0
C  C227  1  0.78778710  0.24841705  0.78207899  1  0.00459  0.0005  -0.084177  -0.153071  0.000216  3.973974  0.0
C  C228  1  0.85602988  0.20168153  0.76876306  1  -0.049897  -8.9e-05  -0.080257  -0.102997  -0.000119  3.95506  0.0
C  C229  1  0.95056609  0.20710983  0.82014095  1  0.008922  0.000375  -0.001144  0.065254  0.000197  3.911143  0.0
C  C230  1  0.97564601  0.26168786  0.88468524  1  -0.053254  -9.9e-05  -0.097247  -0.13034  -0.000138  4.013001  0.0
C  C231  1  0.90866673  0.30961497  0.89817083  1  -0.018718  0.000459  -0.097339  -0.16811  0.000247  4.018132  0.0
C  C232  1  0.95526155  0.81454989  0.64437829  1  0.97518  8e-06  0.151954  0.096492  4e-06  3.898664  0.0
C  C233  1  0.80848334  0.82963391  0.65987708  1  0.245384  2e-06  0.005261  -0.09491  2e-06  3.896318  0.0
C  C234  1  0.80976005  0.76059054  0.62528007  1  0.432023  -2e-06  0.009577  -0.013095  -2e-06  3.966114  0.0
C  C235  1  0.93164007  0.93683561  0.70383412  1  0.318916  0.0  0.096737  0.167506  -1e-06  4.031452  0.0
C  C236  1  0.02274797  0.96553338  0.70567528  1  0.064373  -7e-06  -0.086789  -0.162508  -9e-06  3.984155  0.0
C  C237  1  0.05039706  0.03708236  0.73549360  1  -0.053416  -6e-06  -0.082425  -0.102102  -7e-06  3.964615  0.0
C  C238  1  0.98883018  0.08231310  0.76389783  1  -0.082289  0.0  -0.003776  0.05961  -4e-06  3.917738  0.0
C  C239  1  0.89915951  0.05274880  0.76276407  1  -0.004847  -8e-06  -0.092578  -0.123126  -2.3e-05  4.011256  0.0
C  C240  1  0.87039728  0.98088985  0.73297347  1  -0.04989  2e-06  -0.093957  -0.16644  -6e-06  3.994008  0.0
C  C241  1  0.07403755  0.29042099  0.56514404  1  0.923804  -0.00155  0.137977  0.082401  -0.002256  3.891379  0.0
C  C242  1  0.22748361  0.32988288  0.64477779  1  0.241244  0.00474  0.008505  -0.08807  0.00229  3.869377  0.003
C  C243  1  0.21617684  0.35128093  0.58854462  1  0.446522  0.002323  0.008073  -0.015075  0.001396  3.970686  0.002
C  C244  1  0.11318140  0.25791251  0.67211774  1  0.316129  0.000526  0.096724  0.164022  0.000247  4.021586  0.0
C  C245  1  0.05093213  0.19465217  0.64106269  1  -0.022204  7.6e-05  -0.082398  -0.148567  -3.4e-05  3.959389  0.0
C  C246  1  0.02709746  0.16249853  0.68320573  1  0.020074  4.3e-05  -0.085278  -0.109375  -2.6e-05  3.974418  0.0
C  C247  1  0.06525039  0.19197972  0.75654943  1  -0.084642  3.4e-05  -0.00735  0.053706  9e-06  3.915643  0.0
C  C248  1  0.12655260  0.25619168  0.78684104  1  -0.080921  4.3e-05  -0.093136  -0.119184  -5.2e-05  3.998211  0.0
C  C249  1  0.15097058  0.28893999  0.74540237  1  -0.016616  0.000408  -0.090352  -0.15591  0.00013  3.990767  0.0
C  C250  1  0.21035456  0.44105796  0.45355091  1  1.55708  0.00254  0.200011  0.562719  0.002631  4.232567  0.002
C  C251  1  0.23539238  0.51830477  0.47291757  1  0.008106  0.005049  -0.02479  -0.044066  0.002534  3.989888  0.004
C  C252  1  0.17616287  0.56449289  0.50238613  1  -0.015975  0.000891  -0.076445  -0.100774  0.000395  3.911924  0.0
C  C253  1  0.19964642  0.63664694  0.52288737  1  -0.081369  -4.5e-05  -0.020177  -0.035454  -9.7e-05  3.964226  0.0
C  C254  1  0.28256853  0.66272190  0.51248300  1  -0.038373  0.000508  -0.08835  -0.093872  0.000262  3.968398  0.0
C  C255  1  0.34333943  0.61692329  0.48458956  1  -0.075947  0.00065  -0.103315  -0.107201  0.000319  4.04511  0.0
C  C256  1  0.32039588  0.54490104  0.46511017  1  -0.069531  0.001484  -0.089295  -0.101192  0.000661  3.99119  0.001
C  C257  1  0.13293470  0.68476353  0.55339315  1  1.562172  3e-06  0.197671  0.573451  -9e-06  4.228314  0.0
C  C258  1  0.56418596  0.50231795  0.19956595  1  1.49715  -0.000442  0.192346  0.54522  -0.000997  4.233108  -0.002
C  C259  1  0.58466206  0.45207500  0.23873645  1  -0.013353  0.003086  -0.025758  -0.043438  0.001638  4.009395  0.002
C  C260  1  0.59348856  0.38283134  0.20385509  1  -0.02527  0.001027  -0.08198  -0.115994  0.000439  3.958135  0.001
C  C261  1  0.60946659  0.33422574  0.23874675  1  -0.114739  0.000538  -0.024842  -0.043215  0.000245  3.984572  0.0
C  C262  1  0.61656605  0.35537040  0.30934717  1  0.040883  9.9e-05  -0.077363  -0.070735  2.6e-05  3.934897  0.0
C  C263  1  0.60790035  0.42449828  0.34453228  1  -0.037052  8.4e-05  -0.090729  -0.081844  1e-06  3.996224  0.0
C  C264  1  0.59299272  0.47292344  0.30970177  1  -0.084441  0.000912  -0.08162  -0.091659  0.000464  3.959348  0.001
C  C265  1  0.61561374  0.25998363  0.19876357  1  1.544757  7.6e-05  0.192527  0.556238  3.5e-05  4.233272  0.0
C  C266  1  0.63272774  0.63294250  0.06363469  1  0.938064  0.001812  0.156038  0.118377  0.00086  3.844998  0.002
C  C267  1  0.74118846  0.55462096  0.05654360  1  0.267049  0.002728  -0.001781  -0.110457  0.001357  3.937897  0.002
C  C268  1  0.69467277  0.54922898  0.10175696  1  0.453434  0.002811  0.007021  -0.016374  0.001525  3.989069  0.003
C  C269  1  0.72081244  0.62805357  0.98010235  1  0.276435  0.000326  0.093814  0.161956  0.000155  4.033968  0.0
C  C270  1  0.64396873  0.64850074  0.93243933  1  0.021803  0.000336  -0.080879  -0.146088  0.000144  3.958484  0.0
C  C271  1  0.66200817  0.66332881  0.87790486  1  -0.014091  -7.6e-05  -0.086288  -0.11263  -0.0001  3.965669  0.0
C  C272  1  0.75562299  0.65733836  0.86961133  1  -0.036062  0.000149  -0.006085  0.059245  6.3e-05  3.920201  0.0
C  C273  1  0.83274964  0.63826695  0.91924806  1  -0.03734  3.9e-05  -0.092607  -0.119055  -1.5e-05  3.999911  0.0
C  C274  1  0.81628206  0.62408900  0.97429609  1  -0.064886  0.000441  -0.097808  -0.176142  0.000243  4.020151  0.0
C  C275  1  0.77298586  0.65938445  0.80302060  1  0.043056  -0.0  0.015035  0.003843  -2.5e-05  3.797593  0.0
C  C276  1  0.20395500  0.83206270  0.85338754  1  0.963171  1e-06  0.156267  0.114611  0.0  3.870577  0.0
C  C277  1  0.11629070  0.92152403  0.87546258  1  0.299722  0.0  -0.006572  -0.1212  0.0  3.935918  0.0
C  C278  1  0.20812630  0.94473630  0.87693613  1  0.361909  -0.0  0.004255  -0.019437  0.0  3.985737  0.0
C  C279  1  0.03231037  0.80148768  0.84755289  1  0.308075  1e-06  0.087896  0.157223  0.0  4.042682  0.0
C  C280  1  0.99515497  0.74720885  0.78299641  1  -0.003173  1e-06  -0.08497  -0.153807  0.0  3.973425  0.0
C  C281  1  0.91339853  0.70057204  0.76953953  1  -0.048598  2e-06  -0.078872  -0.099654  0.0  3.95129  0.0
C  C282  1  0.86974963  0.70616705  0.82081470  1  -0.07131  -1e-06  -0.001245  0.065252  0.0  3.909181  0.0
C  C283  1  0.90896328  0.76067507  0.88541950  1  -0.004058  2e-06  -0.095577  -0.126762  1e-06  4.011486  0.0
C  C284  1  0.98945586  0.80856290  0.89897181  1  -0.060422  2e-06  -0.097412  -0.169346  1e-06  4.021188  0.0
C  C285  1  0.68746959  0.31385333  0.64302772  1  0.937465  -0.002614  0.1469  0.091428  -0.003552  3.901682  0.0
C  C286  1  0.84954674  0.32905388  0.65798537  1  0.271741  0.004982  0.0048  -0.091502  0.002389  3.898442  0.003
C  C287  1  0.81356548  0.26017079  0.62267964  1  0.428927  0.002601  0.007734  -0.015626  0.00167  3.972875  0.002
C  C288  1  0.77112145  0.43598640  0.70337320  1  0.304482  0.00037  0.096536  0.167647  6.6e-05  4.030906  0.0
C  C289  1  0.68215092  0.46492569  0.70573087  1  0.09874  -0.000697  -0.086856  -0.162593  -0.000828  3.982701  0.0
C  C290  1  0.68472374  0.53645599  0.73604629  1  -0.075176  0.000206  -0.082489  -0.102047  6.7e-05  3.968877  0.0
C  C291  1  0.77476834  0.58151111  0.76439007  1  -0.053401  -0.000793  -0.0057  0.057402  -0.000881  3.918783  -0.001
C  C292  1  0.86304668  0.55171156  0.76293545  1  -0.010513  6.8e-05  -0.093169  -0.124127  -3.4e-05  4.014784  0.0
C  C293  1  0.86162923  0.47988772  0.73268700  1  -0.036521  5.4e-05  -0.093583  -0.16484  -7.1e-05  3.994784  0.0
C  C294  1  0.49190129  0.79108659  0.56733791  1  0.912115  1e-06  0.141061  0.084669  1e-06  3.887909  0.0
C  C295  1  0.41694557  0.82917110  0.64664852  1  0.226652  6e-06  0.007814  -0.08976  3e-06  3.871225  0.0
C  C296  1  0.37268427  0.85135029  0.59090680  1  0.476759  0.0  0.008979  -0.013009  -2e-06  3.967714  0.0
C  C297  1  0.55901700  0.75748216  0.67362071  1  0.287865  0.0  0.096128  0.164289  0.0  4.017105  0.0
C  C298  1  0.58956927  0.69406990  0.64227711  1  0.015236  1e-06  -0.081171  -0.146517  1e-06  3.956525  0.0
C  C299  1  0.65572446  0.66186626  0.68416214  1  -0.030085  -7e-06  -0.084415  -0.109525  -1e-05  3.970895  0.0
C  C300  1  0.69161272  0.69146250  0.75751386  1  -0.020789  -2.2e-05  -0.006871  0.054582  -2.5e-05  3.912179  0.0
C  C301  1  0.66116973  0.75585688  0.78805460  1  -0.098493  1e-06  -0.092982  -0.118901  1e-06  3.994283  0.0
C  C302  1  0.59522292  0.78869737  0.74688035  1  -0.0234  2e-06  -0.091994  -0.159012  1e-06  3.989947  0.0
C  C303  1  0.24132262  0.94102443  0.45235517  1  1.572432  0.0  0.197687  0.564632  -1.6e-05  4.248024  0.0
C  C304  1  0.23614910  0.01850637  0.47214945  1  -0.045193  -0.000197  -0.02424  -0.041697  -0.000275  3.987961  0.0
C  C305  1  0.32534590  0.06390023  0.50065806  1  -0.017278  0.001394  -0.076493  -0.101991  0.000669  3.915936  0.001
C  C306  1  0.32388549  0.13619126  0.52190085  1  -0.062214  0.00455  -0.019743  -0.034092  0.002248  3.96735  0.003
C  C307  1  0.23145859  0.16333049  0.51304172  1  -0.055014  0.002172  -0.087388  -0.093329  0.00096  3.965366  0.001
C  C308  1  0.14225558  0.11827530  0.48572167  1  -0.061647  0.000271  -0.101848  -0.104797  -4.5e-05  4.040665  0.0
C  C309  1  0.14427980  0.04607355  0.46569429  1  -0.072352  0.001494  -0.088829  -0.101286  0.000792  3.989987  0.001
C  C310  1  0.42140735  0.18328750  0.55149307  1  1.53462  0.003286  0.201058  0.567551  0.002917  4.218546  0.002
C  C311  1  0.36698407  0.00112348  0.80227332  1  1.530307  7.2e-05  0.190119  0.551331  3.8e-05  4.239509  0.0
C  C312  1  0.34675219  0.05041651  0.76174858  1  -0.030897  0.000637  -0.024888  -0.042883  0.000301  4.002678  0.001
C  C313  1  0.38966612  0.11983074  0.79581482  1  -0.006451  0.000539  -0.08289  -0.116918  0.000134  3.959567  0.0
C  C314  1  0.36991319  0.16787073  0.76027293  1  -0.040046  0.003667  -0.025422  -0.044078  0.001907  3.989136  0.003
C  C315  1  0.30607665  0.14599858  0.68978269  1  -0.047043  0.000583  -0.07712  -0.070303  0.000235  3.932146  0.0
C  C316  1  0.26292320  0.07670542  0.65542005  1  -0.098484  7.9e-05  -0.09085  -0.08236  -5e-06  3.999228  0.0
C  C317  1  0.28383407  0.02881677  0.69091325  1  -0.079345  -0.000389  -0.081641  -0.08981  -0.000451  3.962945  0.0
C  C318  1  0.41577222  0.24199309  0.79928272  1  1.529499  -0.00032  0.194693  0.550402  -0.000752  4.227617  -0.002
C  C319  1  0.57101377  0.86734779  0.93686465  1  0.987064  -1.6e-05  0.159141  0.120655  -1.9e-05  3.841441  0.0
C  C320  1  0.68653975  0.94664582  0.94549357  1  0.305861  -6e-06  -0.001975  -0.112237  -6e-06  3.935834  0.0
C  C321  1  0.59522078  0.95232994  0.90027754  1  0.390842  -3e-06  0.008121  -0.015312  -4e-06  3.983968  0.0
C  C322  1  0.74195645  0.87193164  0.02062452  1  0.28361  -8.1e-05  0.092085  0.15751  -9.2e-05  4.038146  0.0
C  C323  1  0.71251178  0.85159400  0.06831260  1  0.029117  1.1e-05  -0.081026  -0.145394  -7e-06  3.9593  0.0
C  C324  1  0.78487947  0.83660282  0.12271072  1  -0.086151  -7.4e-05  -0.085392  -0.110598  -9.3e-05  3.963377  0.0
C  C325  1  0.88669306  0.84241163  0.13076975  1  -0.020814  -3.5e-05  -0.004643  0.060389  -4.5e-05  3.919786  0.0
C  C326  1  0.91433503  0.86130053  0.08100096  1  0.002768  -3.7e-05  -0.091831  -0.117747  -4.3e-05  4.000804  0.0
C  C327  1  0.84304082  0.87563831  0.02609481  1  -0.112999  -3e-06  -0.09822  -0.174414  -6e-06  4.023986  0.0
C  C328  1  0.97053951  0.84046063  0.19730856  1  0.043721  -3e-06  0.014969  0.004534  -2.5e-05  3.798635  0.0
C  C329  1  0.35203685  0.66796283  0.14935983  1  0.945898  0.006182  0.151989  0.110577  0.003683  3.87702  0.005
C  C330  1  0.24072916  0.57776847  0.12272432  1  0.281071  0.004084  -0.008015  -0.122002  0.002152  3.937943  0.003
C  C331  1  0.33149197  0.55483435  0.12209586  1  0.444685  0.0028  0.003165  -0.016201  0.001327  3.984958  0.002
C  C332  1  0.18521540  0.69796161  0.15294463  1  0.245635  0.000477  0.08745  0.15712  0.000245  4.045256  0.0
C  C333  1  0.21247670  0.75256774  0.21731925  1  -0.006631  0.000471  -0.084604  -0.153732  0.000225  3.974301  0.0
C  C334  1  0.14430195  0.79935296  0.23066288  1  0.00659  -0.000131  -0.07926  -0.100259  -0.000153  3.954991  0.0
C  C335  1  0.04947754  0.79361957  0.17948570  1  -0.0852  0.000409  -0.003087  0.062326  0.000215  3.910389  0.0
C  C336  1  0.02407127  0.73872230  0.11513077  1  -0.003826  -3.1e-05  -0.097203  -0.129433  -6.8e-05  4.011375  0.0
C  C337  1  0.09095644  0.69073710  0.10164912  1  -0.023558  0.000447  -0.096696  -0.167737  0.000242  4.018357  0.0
C  C338  1  0.04422642  0.18609556  0.35658184  1  0.936222  -0.002711  0.145526  0.088715  -0.003665  3.904052  0.0
C  C339  1  0.19152721  0.17090160  0.34181618  1  0.270971  0.004939  0.005224  -0.092296  0.002373  3.901125  0.003
C  C340  1  0.19054921  0.23983358  0.37684836  1  0.422287  0.002613  0.007275  -0.014861  0.001672  3.97222  0.003
C  C341  1  0.06792192  0.06392350  0.29663190  1  0.268746  0.000355  0.096093  0.166922  5e-05  4.034303  0.0
C  C342  1  0.97671207  0.03497268  0.29447011  1  0.103646  -0.000694  -0.087719  -0.164042  -0.000801  3.984142  0.0
C  C343  1  0.94910413  0.96342526  0.26423578  1  -0.089121  0.000199  -0.082541  -0.102174  7.7e-05  3.96989  0.0
C  C344  1  0.01082676  0.91836451  0.23581127  1  -0.016855  -0.000804  -0.006116  0.057284  -0.000893  3.918791  -0.001
C  C345  1  0.10046481  0.94817196  0.23710972  1  -0.022227  6.9e-05  -0.093327  -0.124853  -3.6e-05  4.014033  0.0
C  C346  1  0.12917735  0.02001320  0.26727440  1  -0.029827  2.9e-05  -0.09406  -0.16561  -8.8e-05  3.995526  0.0
C  C347  1  0.92588199  0.70898496  0.43356176  1  0.894469  2.9e-05  0.140177  0.08461  1.6e-05  3.888935  0.0
C  C348  1  0.77207018  0.67030314  0.35425109  1  0.267107  -5.1e-05  0.008533  -0.088788  -0.000188  3.869199  0.0
C  C349  1  0.78362693  0.64821110  0.41007734  1  0.417044  0.000117  0.008435  -0.014372  5.5e-05  3.96825  0.0
C  C350  1  0.88649285  0.74243631  0.32712387  1  0.28078  2.9e-05  0.095626  0.163132  5e-06  4.021715  0.0
C  C351  1  0.94821637  0.80587904  0.35833965  1  -0.050145  -1.4e-05  -0.081113  -0.147006  -2e-05  3.958908  0.0
C  C352  1  0.97219758  0.83814178  0.31631727  1  -0.025931  -3.1e-05  -0.085093  -0.109654  -3.8e-05  3.973228  0.0
C  C353  1  0.93463182  0.80853543  0.24297370  1  -0.026377  2e-06  -0.007395  0.05339  -2e-06  3.915412  0.0
C  C354  1  0.87368345  0.74417779  0.21254761  1  -0.043907  -1e-06  -0.092206  -0.117437  -4.7e-05  3.993749  0.0
C  C355  1  0.84918095  0.71129954  0.25386067  1  -0.085807  6.5e-05  -0.09139  -0.158795  -6e-05  3.989712  0.0
C  C356  1  0.78900268  0.55898713  0.54811283  1  1.571225  0.0  0.197542  0.565269  -1.7e-05  4.247469  0.0
C  C357  1  0.76362414  0.48146350  0.52767470  1  -0.047486  -0.000204  -0.024511  -0.042846  -0.000287  3.989572  0.0
C  C358  1  0.82399576  0.43611435  0.49863246  1  -0.016509  0.001424  -0.076306  -0.101001  0.000683  3.915734  0.001
C  C359  1  0.80118444  0.36380820  0.47711220  1  -0.027414  0.004474  -0.020499  -0.036561  0.002198  3.968004  0.003
C  C360  1  0.71787679  0.33662576  0.48629225  1  -0.039191  0.002228  -0.086637  -0.09166  0.000981  3.961868  0.001
C  C361  1  0.65620580  0.38163116  0.51403189  1  -0.069228  0.000262  -0.102704  -0.105515  -5.1e-05  4.04099  0.0
C  C362  1  0.67829298  0.45385274  0.53426223  1  -0.057356  0.001537  -0.08794  -0.100824  0.000817  3.990526  0.001
C  C363  1  0.86894441  0.31678975  0.44711551  1  1.569299  0.003226  0.201217  0.569857  0.002954  4.21455  0.002
N  N364  1  0.37196108  0.40117645  0.89424089  1  -1.225075  0.059843  -0.358602  -0.293362  0.031744  3.659979  0.037
N  N365  1  0.29920634  0.39196983  0.96809627  1  -1.254325  0.004642  -0.223793  0.011741  0.002109  3.802182  0.004
N  N366  1  0.73813106  0.11139887  0.13662545  1  -1.226293  -9e-06  -0.352472  -0.266712  -1.2e-05  3.59586  0.0
N  N367  1  0.88559837  0.14970588  0.14031316  1  -1.291997  -1.8e-05  -0.227317  0.006732  -2.7e-05  3.823321  0.0
N  N368  1  0.28590897  0.74777228  0.38419738  1  -1.251511  1e-05  -0.353741  -0.288526  6e-06  3.628535  0.0
N  N369  1  0.22967143  0.63616460  0.32802125  1  -1.245086  1.5e-05  -0.21885  0.010555  1e-05  3.78832  0.0
N  N370  1  0.58193460  0.17351784  0.45957847  1  -1.233886  0.071691  -0.363194  -0.309317  0.037103  3.673874  0.048
N  N371  1  0.50859516  0.20894453  0.36982252  1  -1.263969  0.003591  -0.225704  0.009006  0.001511  3.802936  0.003
N  N372  1  0.47535393  0.09795227  0.10461572  1  -1.23942  1e-06  -0.350286  -0.267437  -0.0  3.600027  0.0
N  N373  1  0.32982925  0.10762485  0.03090701  1  -1.273211  1e-06  -0.223409  0.012013  1e-06  3.804093  0.0
N  N374  1  0.59979062  0.38864359  0.86142231  1  -1.220604  0.059158  -0.360635  -0.292234  0.031575  3.661056  0.038
N  N375  1  0.74465776  0.35070231  0.85920923  1  -1.29476  0.004254  -0.229044  0.00504  0.001781  3.823799  0.003
N  N376  1  0.90169199  0.75216149  0.61635779  1  -1.24334  1.1e-05  -0.353728  -0.288633  6e-06  3.630106  0.0
N  N377  1  0.90116404  0.86383954  0.67206972  1  -1.263987  9e-06  -0.219875  0.009103  5e-06  3.792308  0.0
N  N378  1  0.12041949  0.32663033  0.53949316  1  -1.222443  0.07194  -0.363561  -0.308833  0.037166  3.67461  0.048
N  N379  1  0.13704605  0.29127427  0.62937304  1  -1.261939  0.003664  -0.226082  0.006385  0.001546  3.803428  0.003
N  N380  1  0.62787524  0.59859067  0.10604500  1  -1.219109  0.05962  -0.358666  -0.292636  0.031775  3.660644  0.037
N  N381  1  0.70087520  0.60768928  0.03230294  1  -1.274131  0.004632  -0.224854  0.011546  0.0021  3.802367  0.004
N  N382  1  0.26173792  0.88852395  0.86350623  1  -1.223798  2e-06  -0.352755  -0.267425  1e-06  3.59602  0.0
N  N383  1  0.11465847  0.84981234  0.86011042  1  -1.259655  0.0  -0.227947  0.003673  0.0  3.822297  0.0
N  N384  1  0.71258406  0.25148249  0.61388518  1  -1.222467  0.066624  -0.366778  -0.316237  0.034753  3.712024  0.039
N  N385  1  0.76943738  0.36316899  0.67093022  1  -1.270226  0.002971  -0.221324  0.008376  0.001055  3.792298  0.002
N  N386  1  0.42014542  0.82756030  0.54217397  1  -1.25647  8e-06  -0.355415  -0.29104  6e-06  3.60593  0.0
N  N387  1  0.49232440  0.79098356  0.63107970  1  -1.264389  -0.0  -0.225125  0.006897  -1e-06  3.805621  0.0
N  N388  1  0.52444312  0.90242290  0.89518683  1  -1.238833  -2e-06  -0.349895  -0.266071  -3e-06  3.599341  0.0
N  N389  1  0.67013826  0.89275672  0.96868104  1  -1.257912  -4e-06  -0.222998  0.012024  -2e-06  3.804572  0.0
N  N390  1  0.39986496  0.61153325  0.13852922  1  -1.21589  0.059234  -0.361075  -0.293053  0.031625  3.661514  0.038
N  N391  1  0.25507336  0.64978759  0.14047881  1  -1.297016  0.004274  -0.228476  0.00505  0.001805  3.823934  0.003
N  N392  1  0.09824284  0.24851563  0.38551583  1  -1.227137  0.066419  -0.365922  -0.315978  0.034627  3.711383  0.039
N  N393  1  0.09852928  0.13675671  0.32890087  1  -1.267812  0.00295  -0.220403  0.010324  0.001046  3.792365  0.002
N  N394  1  0.87951823  0.67236203  0.45880915  1  -1.241065  5.2e-05  -0.355968  -0.290049  2.3e-05  3.606598  0.0
N  N395  1  0.86267145  0.70882450  0.36976880  1  -1.262999  2.5e-05  -0.223916  0.007038  7e-06  3.806865  0.0
O  O396  1  0.41345418  0.43184962  0.76345059  1  -1.135725  0.104684  -0.330886  -0.544554  0.053791  2.308284  0.083
O  O397  1  0.47169444  0.51892562  0.86696463  1  -1.140614  0.039745  -0.320135  -0.553923  0.019581  2.123545  0.033
O  O398  1  0.36943637  0.78322487  0.76669760  1  -1.181716  0.000109  -0.335793  -0.557185  5.5e-05  2.305967  0.0
O  O399  1  0.39486329  0.75770464  0.86546718  1  -1.194467  -0.0  -0.342671  -0.582251  -1.3e-05  2.117535  0.0
O  O400  1  0.67200008  0.07756968  0.55282262  1  -1.140335  0.113447  -0.337367  -0.554525  0.057003  2.37106  0.086
O  O401  1  0.82905967  0.09963975  0.55320080  1  -1.18609  0.01207  -0.329604  -0.561035  0.005667  2.123755  0.009
O  O402  1  0.50066221  0.84428869  0.42339884  1  -1.189857  1.7e-05  -0.356419  -0.57678  3e-06  2.327308  0.0
O  O403  1  0.58008718  0.75470409  0.44946806  1  -1.186067  -1.8e-05  -0.346189  -0.570637  -3.6e-05  2.081098  0.0
O  O404  1  0.64994325  0.06490621  0.23447875  1  -1.171744  0.000126  -0.340196  -0.555782  5.4e-05  2.282865  0.0
O  O405  1  0.60023468  0.97565624  0.13135709  1  -1.199  1.8e-05  -0.33501  -0.567912  3e-06  2.121635  0.0
O  O406  1  0.60312799  0.71491255  0.23544031  1  -1.125259  0.101278  -0.327502  -0.546404  0.052086  2.331182  0.081
O  O407  1  0.52995528  0.73892875  0.13646811  1  -1.189769  0.033041  -0.330765  -0.572405  0.016437  2.122718  0.027
O  O408  1  0.11858173  0.42266421  0.44686765  1  -1.136296  0.113384  -0.336742  -0.554154  0.057004  2.372307  0.086
O  O409  1  0.27494037  0.40031786  0.44595476  1  -1.186206  0.011872  -0.329669  -0.561493  0.005575  2.122892  0.009
O  O410  1  0.07800115  0.65597937  0.57791033  1  -1.174527  1.2e-05  -0.357429  -0.577349  4e-06  2.325426  0.0
O  O411  1  0.13130835  0.74557359  0.55174359  1  -1.184151  -1.3e-05  -0.346528  -0.571449  -2e-05  2.079686  0.0
O  O412  1  0.58563916  0.56827265  0.23694762  1  -1.139493  0.104492  -0.329839  -0.54372  0.053555  2.306991  0.083
O  O413  1  0.52761085  0.48123681  0.13341075  1  -1.132372  0.039939  -0.320068  -0.55302  0.019669  2.125383  0.033
O  O414  1  0.63072385  0.21686594  0.23342042  1  -1.178601  0.000197  -0.335825  -0.556893  9.7e-05  2.306112  0.0
O  O415  1  0.60545124  0.24246883  0.13469782  1  -1.193632  2e-05  -0.34351  -0.583232  1e-06  2.116881  0.0
O  O416  1  0.32574667  0.92281899  0.44472928  1  -1.176458  2.1e-05  -0.345365  -0.559273  1.6e-05  2.347876  0.0
O  O417  1  0.16909388  0.90076412  0.44542614  1  -1.187427  -4.7e-05  -0.334293  -0.564546  -5.7e-05  2.126451  0.0
O  O418  1  0.50069929  0.15245160  0.57210745  1  -1.139095  0.121622  -0.342908  -0.561972  0.060935  2.360786  0.093
O  O419  1  0.42328293  0.24509664  0.55295367  1  -1.176463  0.020373  -0.337566  -0.560199  0.00986  2.076853  0.016
O  O420  1  0.34941451  0.93502314  0.76529225  1  -1.162794  0.000106  -0.340346  -0.555552  5.4e-05  2.282162  0.0
O  O421  1  0.39876048  0.02429545  0.86837473  1  -1.188842  1.1e-05  -0.334595  -0.566669  -1e-06  2.122202  0.0
O  O422  1  0.39669370  0.28504932  0.76450966  1  -1.12505  0.101354  -0.327468  -0.546375  0.052134  2.330281  0.081
O  O423  1  0.47005973  0.26086982  0.86338579  1  -1.189606  0.033027  -0.330396  -0.571812  0.016429  2.122432  0.027
O  O424  1  0.88121565  0.57710639  0.55602146  1  -1.173691  2.1e-05  -0.345618  -0.56016  1.5e-05  2.346434  0.0
O  O425  1  0.72391526  0.59935992  0.55526928  1  -1.192287  -4.9e-05  -0.33346  -0.563896  -6e-05  2.127663  0.0
O  O426  1  0.92743967  0.34768974  0.42632038  1  -1.147201  0.121879  -0.342346  -0.562554  0.061171  2.358873  0.093
O  O427  1  0.86949847  0.25494302  0.44554196  1  -1.178846  0.020804  -0.337862  -0.561178  0.010108  2.073302  0.017
