# generated using pymatgen
data_Ni2H48C48N4O11
_symmetry_space_group_name_H-M   'P 1'
_cell_length_a   16.67603640
_cell_length_b   16.97442536
_cell_length_c   17.97961781
_cell_angle_alpha   104.93052303
_cell_angle_beta   89.99989883
_cell_angle_gamma   90.00001969
_symmetry_Int_Tables_number   1
_chemical_formula_structural   Ni2H48C48N4O11
_chemical_formula_sum   'Ni8 H192 C192 N16 O44'
_cell_volume   4917.59678285
_cell_formula_units_Z   4
loop_
 _symmetry_equiv_pos_site_id
 _symmetry_equiv_pos_as_xyz
  1  'x, y, z'
loop_
 _atom_site_type_symbol
 _atom_site_label
 _atom_site_symmetry_multiplicity
 _atom_site_fract_x
 _atom_site_fract_y
 _atom_site_fract_z
 _atom_site_occupancy
 _atom_site_pbe_bader_charge
 _atom_site_pbe_bader_spin_density
 _atom_site_pbe_cm5_charge
 _atom_site_pbe_ddec_charge
 _atom_site_pbe_ddec_spin_density
 _atom_site_pbe_ddec_sum_bond_order
 _atom_site_pbe_magmom
Ni  Ni0  1  0.69066823  0.35310121  0.79395314  1  1.119868  1.533361  0.648852  0.693684  1.755297  2.595378  1.513
Ni  Ni1  1  0.19066744  0.14689955  0.20604800  1  1.119952  1.533363  0.648838  0.69369  1.755301  2.595398  1.513
Ni  Ni2  1  0.30933302  0.64689893  0.20604820  1  1.119978  1.53336  0.648861  0.693719  1.755299  2.595337  1.513
Ni  Ni3  1  0.80933081  0.85309851  0.79395218  1  1.11994  1.533362  0.648854  0.69368  1.755299  2.595316  1.513
Ni  Ni4  1  0.18266626  0.14758104  0.71597199  1  1.148759  1.552578  0.634534  0.73253  1.780459  2.496034  1.538
Ni  Ni5  1  0.68266141  0.35241823  0.28402801  1  1.148483  1.552579  0.634475  0.732501  1.780457  2.49603  1.538
Ni  Ni6  1  0.81733799  0.85241997  0.28402820  1  1.148567  1.552577  0.634487  0.732467  1.780458  2.49615  1.538
Ni  Ni7  1  0.31733684  0.64757999  0.71597275  1  1.148516  1.552566  0.634503  0.732485  1.780458  2.496157  1.538
H  H8  1  0.08130654  0.12017888  0.60917126  1  0.650103  -0.000119  0.277947  0.367033  7.9e-05  0.987941  0.0
H  H9  1  0.58130210  0.37982041  0.39082890  1  0.650063  -0.000119  0.278023  0.367109  7.9e-05  0.987848  0.0
H  H10  1  0.91869771  0.87981931  0.39082719  1  0.650049  -0.000119  0.277995  0.367106  7.9e-05  0.987849  0.0
H  H11  1  0.41869735  0.62017840  0.60917186  1  0.650081  -0.000119  0.277993  0.367125  7.9e-05  0.987837  0.0
H  H12  1  0.13918180  0.04305862  0.59066275  1  0.598512  0.000392  0.313265  0.388148  0.0003  0.894263  0.0
H  H13  1  0.63917856  0.45693904  0.40933789  1  0.598595  0.000391  0.31328  0.388181  0.0003  0.894261  0.0
H  H14  1  0.86082244  0.95693988  0.40933686  1  0.598641  0.000392  0.313268  0.388189  0.0003  0.894273  0.0
H  H15  1  0.36082089  0.54305989  0.59066114  1  0.598607  0.000391  0.313267  0.388156  0.0003  0.894305  0.0
H  H16  1  0.72403041  0.10681862  0.81622903  1  0.122552  0.000874  0.106884  0.119201  0.00063  1.013494  0.0
H  H17  1  0.22402615  0.39317962  0.18377147  1  0.12257  0.000874  0.106899  0.119258  0.00063  1.013494  0.0
H  H18  1  0.27597264  0.89317870  0.18377057  1  0.122665  0.000874  0.106915  0.119248  0.00063  1.013504  0.0
H  H19  1  0.77597330  0.60681906  0.81623102  1  0.12265  0.000874  0.106873  0.119216  0.00063  1.013396  0.0
H  H20  1  0.63578582  0.99357950  0.98754014  1  0.092851  0.00044  0.107905  0.120843  0.000301  1.025422  0.0
H  H21  1  0.13578474  0.50641973  0.01246054  1  0.092861  0.00044  0.10791  0.120864  0.000301  1.025447  0.0
H  H22  1  0.36421543  0.00641840  0.01245947  1  0.092867  0.00044  0.107892  0.120841  0.000301  1.025493  0.0
H  H23  1  0.86421531  0.49357954  0.98754194  1  0.092898  0.00044  0.107902  0.120841  0.000301  1.025415  0.0
H  H24  1  0.57445935  0.24468559  0.99920690  1  0.091927  0.00036  0.102727  0.118114  0.000236  1.039796  0.0
H  H25  1  0.07445899  0.25531348  0.00078811  1  0.091856  0.00036  0.102743  0.118131  0.000236  1.0397  0.0
H  H26  1  0.42554190  0.75531114  0.00079271  1  0.092096  0.00036  0.102767  0.118186  0.000236  1.039692  0.0
H  H27  1  0.92553927  0.74468722  0.99921093  1  0.092116  0.00036  0.102768  0.118165  0.000236  1.039703  0.0
H  H28  1  0.61665483  0.04723418  0.11418310  1  0.017494  4.9e-05  0.095442  0.053472  1.9e-05  0.986268  0.0
H  H29  1  0.11665526  0.45276963  0.88581415  1  0.017279  4.9e-05  0.095453  0.053514  1.9e-05  0.986281  0.0
H  H30  1  0.38334402  0.95276742  0.88581709  1  0.017455  4.9e-05  0.095433  0.053444  1.9e-05  0.98628  0.0
H  H31  1  0.88334479  0.54723535  0.11418548  1  0.017467  4.9e-05  0.095451  0.053485  1.9e-05  0.986253  0.0
H  H32  1  0.52864175  0.00923933  0.06065805  1  0.042064  1e-06  0.096335  0.057397  -2.6e-05  1.005192  0.0
H  H33  1  0.02864330  0.49076098  0.93934164  1  0.042022  1e-06  0.096283  0.057364  -2.6e-05  1.005217  0.0
H  H34  1  0.47135590  0.99076258  0.93934330  1  0.042006  1e-06  0.096294  0.057368  -2.6e-05  1.005243  0.0
H  H35  1  0.97135735  0.50924034  0.06065971  1  0.0421  1e-06  0.0963  0.057353  -2.6e-05  1.005219  0.0
H  H36  1  0.53161056  0.13768471  0.21587993  1  0.014734  -3e-06  0.088747  0.088491  -2.6e-05  0.99589  0.0
H  H37  1  0.03160935  0.36231603  0.78411917  1  0.014738  -3e-06  0.088773  0.088491  -2.6e-05  0.995876  0.0
H  H38  1  0.46838949  0.86231850  0.78411969  1  0.014777  -3e-06  0.088785  0.08854  -2.6e-05  0.995867  0.0
H  H39  1  0.96838950  0.63768324  0.21588331  1  0.014705  -3e-06  0.088772  0.08852  -2.6e-05  0.995879  0.0
H  H40  1  0.44392490  0.10074669  0.16171377  1  0.061401  0.000243  0.09295  0.104454  0.00017  0.999726  0.0
H  H41  1  0.94392562  0.39925565  0.83828637  1  0.06141  0.000243  0.092959  0.104459  0.00017  0.999767  0.0
H  H42  1  0.55607335  0.89925566  0.83828700  1  0.061405  0.000243  0.092965  0.104478  0.00017  0.999722  0.0
H  H43  1  0.05607383  0.60074715  0.16171613  1  0.061591  0.000243  0.092945  0.104451  0.00017  0.99972  0.0
H  H44  1  0.56593841  0.99503561  0.22107247  1  -0.006705  8.9e-05  0.081669  0.068537  5.7e-05  1.007839  0.0
H  H45  1  0.06594128  0.50496224  0.77892315  1  -0.006754  8.9e-05  0.081707  0.068619  5.7e-05  1.007935  0.0
H  H46  1  0.43405984  0.00496643  0.77892715  1  -0.006758  8.9e-05  0.081658  0.068525  5.7e-05  1.007854  0.0
H  H47  1  0.93406057  0.49503402  0.22107473  1  -0.006748  8.9e-05  0.081654  0.068535  5.7e-05  1.007862  0.0
H  H48  1  0.47833370  0.95806530  0.16803971  1  0.019856  5e-06  0.083972  0.074141  -1.4e-05  1.012599  0.0
H  H49  1  0.97833671  0.54193473  0.83195695  1  0.01994  5e-06  0.083997  0.074207  -1.4e-05  1.012607  0.0
H  H50  1  0.52166635  0.04193689  0.83196049  1  0.019817  5e-06  0.084006  0.074163  -1.4e-05  1.012641  0.0
H  H51  1  0.02166694  0.45806491  0.16804036  1  0.019868  5e-06  0.083989  0.074157  -1.4e-05  1.012579  0.0
H  H52  1  0.48124116  0.08074141  0.32659196  1  0.02746  -2e-06  0.082217  0.072786  -2.1e-05  1.019688  0.0
H  H53  1  0.98124160  0.41925500  0.67340580  1  0.027588  -2e-06  0.082219  0.072771  -2.1e-05  1.019763  0.0
H  H54  1  0.51875949  0.91925755  0.67340938  1  0.027483  -2e-06  0.082212  0.072778  -2.1e-05  1.019599  0.0
H  H55  1  0.01875905  0.58074201  0.32659265  1  0.027438  -2e-06  0.082214  0.072784  -2.1e-05  1.019716  0.0
H  H56  1  0.39382954  0.04146385  0.27468029  1  0.042949  -7.5e-05  0.087724  0.085889  -0.000107  0.988432  0.0
H  H57  1  0.89383110  0.45853481  0.72531935  1  0.042952  -7.5e-05  0.087719  0.085896  -0.000107  0.988427  0.0
H  H58  1  0.60617051  0.95853704  0.72532162  1  0.042914  -7.5e-05  0.087726  0.085907  -0.000107  0.988406  0.0
H  H59  1  0.10617015  0.54146443  0.27468084  1  0.04296  -7.5e-05  0.087726  0.0859  -0.000107  0.988427  0.0
H  H60  1  0.43057643  0.90071328  0.27951120  1  0.018806  4.4e-05  0.093114  0.093013  3.3e-05  0.992088  0.0
H  H61  1  0.93057967  0.59928439  0.72048553  1  0.018947  4.4e-05  0.093108  0.092989  3.4e-05  0.992135  0.0
H  H62  1  0.56942302  0.09928711  0.72048669  1  0.018892  4.4e-05  0.093111  0.093013  3.4e-05  0.992151  0.0
H  H63  1  0.06942518  0.40071336  0.27951350  1  0.018764  4.4e-05  0.093117  0.093003  3.3e-05  0.992156  0.0
H  H64  1  0.52289750  0.93643892  0.32501640  1  0.024519  1.7e-05  0.088801  0.085377  0.0  1.000196  0.0
H  H65  1  0.02290059  0.56355731  0.67497986  1  0.024459  1.7e-05  0.088806  0.085395  0.0  1.00023  0.0
H  H66  1  0.47710195  0.06356029  0.67498148  1  0.024514  1.7e-05  0.088806  0.085391  0.0  1.000196  0.0
H  H67  1  0.97710366  0.43643910  0.32501859  1  0.024547  1.7e-05  0.088813  0.085416  0.0  1.000212  0.0
H  H68  1  0.44784582  0.02437364  0.43703044  1  0.04819  -1.7e-05  0.096827  0.063046  -3.9e-05  0.993928  0.0
H  H69  1  0.94784589  0.47562246  0.56296622  1  0.048188  -1.7e-05  0.096855  0.063087  -3.9e-05  0.99377  0.0
H  H70  1  0.55215423  0.97562265  0.56296973  1  0.048137  -1.7e-05  0.096824  0.063063  -3.9e-05  0.993844  0.0
H  H71  1  0.05215596  0.52437498  0.43703166  1  0.048296  -1.7e-05  0.096839  0.063052  -3.9e-05  0.993876  0.0
H  H72  1  0.35566405  0.98230434  0.39350110  1  0.039829  6e-06  0.098752  0.062429  -1.5e-05  0.977916  0.0
H  H73  1  0.85566508  0.51769602  0.60649691  1  0.039872  6e-06  0.098734  0.06239  -1.5e-05  0.977845  0.0
H  H74  1  0.64433659  0.01769695  0.60649794  1  0.039832  6e-06  0.098751  0.062377  -1.5e-05  0.977871  0.0
H  H75  1  0.14433737  0.48230263  0.39350327  1  0.039805  6e-06  0.098753  0.062396  -1.5e-05  0.977952  0.0
H  H76  1  0.44089042  0.78007197  0.48936160  1  0.097704  7e-06  0.107982  0.122894  -5.8e-05  1.024423  0.0
H  H77  1  0.94089589  0.71992425  0.51063625  1  0.09775  7e-06  0.107988  0.122945  -5.8e-05  1.024446  0.0
H  H78  1  0.55910304  0.21992429  0.51063627  1  0.097737  7e-06  0.107982  0.122937  -5.8e-05  1.024451  0.0
H  H79  1  0.05910836  0.28007425  0.48936335  1  0.097757  7e-06  0.10797  0.12286  -5.8e-05  1.024451  0.0
H  H80  1  0.32033581  0.89877337  0.70019644  1  0.129806  0.000634  0.107899  0.113968  0.000469  1.020266  0.0
H  H81  1  0.82033325  0.60122894  0.29980452  1  0.129811  0.000634  0.107905  0.113947  0.000469  1.020367  0.0
H  H82  1  0.67966904  0.10122838  0.29980433  1  0.129804  0.000634  0.107898  0.113961  0.000469  1.020343  0.0
H  H83  1  0.17966620  0.39877207  0.70019568  1  0.129785  0.000634  0.107894  0.113928  0.000469  1.020294  0.0
H  H84  1  0.35035255  0.02570680  0.52387723  1  0.096049  0.000527  0.10473  0.113698  0.000392  1.054844  0.0
H  H85  1  0.85035518  0.47429049  0.47611961  1  0.096003  0.000527  0.104747  0.113743  0.000392  1.054777  0.0
H  H86  1  0.64964570  0.97429225  0.47612008  1  0.096051  0.000527  0.104739  0.113716  0.000392  1.05487  0.0
H  H87  1  0.14964727  0.52570887  0.52387885  1  0.096005  0.000527  0.104746  0.113741  0.000392  1.054801  0.0
H  H88  1  0.83977205  0.26952482  0.73384996  1  0.101941  0.002553  0.12085  0.090171  0.000935  0.999033  0.002
H  H89  1  0.33977297  0.23047502  0.26614978  1  0.102037  0.002552  0.120833  0.09013  0.000935  0.999031  0.002
H  H90  1  0.16022620  0.73047501  0.26615023  1  0.10205  0.002552  0.120832  0.090141  0.000935  0.999044  0.002
H  H91  1  0.66022408  0.76951948  0.73384809  1  0.101988  0.002552  0.12086  0.090157  0.000935  0.999073  0.002
H  H92  1  0.91592215  0.23293633  0.60836839  1  0.12913  0.001175  0.107203  0.125705  0.000584  1.017101  0.001
H  H93  1  0.41592225  0.26706645  0.39163123  1  0.129084  0.001175  0.107187  0.125647  0.000584  1.017097  0.001
H  H94  1  0.08407850  0.76706633  0.39163354  1  0.129101  0.001175  0.107193  0.125689  0.000584  1.017091  0.001
H  H95  1  0.58407480  0.73293276  0.60836666  1  0.129082  0.001175  0.107146  0.125596  0.000584  1.0171  0.001
H  H96  1  0.73885980  0.36910808  0.51822638  1  0.087419  0.001205  0.109455  0.125188  0.000551  0.994092  0.001
H  H97  1  0.23886028  0.13089311  0.48177411  1  0.087421  0.001206  0.109425  0.125125  0.000551  0.994157  0.001
H  H98  1  0.26114145  0.63089324  0.48177497  1  0.087394  0.001205  0.109418  0.125122  0.000551  0.994132  0.001
H  H99  1  0.76113677  0.86910657  0.51822551  1  0.087014  0.001206  0.109474  0.125203  0.000551  0.994148  0.001
H  H100  1  0.67260713  0.40243946  0.64793189  1  0.117493  0.002653  0.119844  0.088781  0.000998  0.992276  0.001
H  H101  1  0.17260665  0.09756173  0.35206870  1  0.117502  0.002653  0.119842  0.088774  0.000998  0.992293  0.001
H  H102  1  0.32739292  0.59756096  0.35206830  1  0.117507  0.002653  0.119841  0.088774  0.000998  0.992282  0.001
H  H103  1  0.82738860  0.90243499  0.64793090  1  0.117591  0.002652  0.119814  0.088729  0.000998  0.992405  0.001
H  H104  1  0.93387739  0.27017423  0.47737817  1  0.037924  -0.000187  0.093003  0.095503  -0.000153  1.020604  0.0
H  H105  1  0.43387603  0.22982736  0.52262141  1  0.037719  -0.000187  0.093004  0.095516  -0.000153  1.02063  0.0
H  H106  1  0.06612446  0.72982929  0.52262261  1  0.037736  -0.000187  0.093006  0.095526  -0.000152  1.020572  0.0
H  H107  1  0.56611982  0.77017067  0.47737647  1  0.037866  -0.000187  0.093018  0.095515  -0.000153  1.020615  0.0
H  H108  1  0.85102561  0.31448770  0.44061705  1  0.06293  0.000152  0.095385  0.107209  0.00014  1.005336  0.0
H  H109  1  0.35102416  0.18551466  0.55938325  1  0.062844  0.000152  0.095406  0.107193  0.00014  1.005333  0.0
H  H110  1  0.14897744  0.68551539  0.55938430  1  0.063012  0.000153  0.095402  0.107188  0.00014  1.005325  0.0
H  H111  1  0.64897229  0.81448486  0.44061579  1  0.062948  0.000152  0.095396  0.107209  0.00014  1.005389  0.0
H  H112  1  0.77346998  0.18090090  0.44587596  1  0.046592  -8.2e-05  0.08707  0.081014  -9.7e-05  1.024643  0.0
H  H113  1  0.27346859  0.31910118  0.55412562  1  0.04656  -8.2e-05  0.087077  0.080997  -9.7e-05  1.024653  0.0
H  H114  1  0.22653427  0.81910147  0.55412711  1  0.046513  -8.2e-05  0.087104  0.081045  -9.7e-05  1.024698  0.0
H  H115  1  0.72652966  0.68089865  0.44587457  1  0.046593  -8.2e-05  0.08708  0.081021  -9.7e-05  1.024628  0.0
H  H116  1  0.86920974  0.13857823  0.45202423  1  0.03484  0.000252  0.08878  0.082508  0.000142  0.975919  0.0
H  H117  1  0.36920898  0.36142483  0.54797431  1  0.034743  0.000252  0.088752  0.082463  0.000142  0.975855  0.0
H  H118  1  0.13079391  0.86142526  0.54797424  1  0.034774  0.000252  0.08877  0.082459  0.000142  0.975881  0.0
H  H119  1  0.63078867  0.63857556  0.45202358  1  0.034591  0.000252  0.088743  0.08245  0.000142  0.975898  0.0
H  H120  1  0.81218492  0.10900208  0.31739609  1  0.067967  0.000105  0.09311  0.099779  0.000101  1.025339  0.0
H  H121  1  0.31218752  0.39100071  0.68260370  1  0.067879  0.000105  0.093112  0.099737  0.000101  1.02541  0.0
H  H122  1  0.18781093  0.89100027  0.68260468  1  0.067862  0.000105  0.0931  0.099735  0.0001  1.025394  0.0
H  H123  1  0.68781493  0.60899983  0.31739476  1  0.06793  0.000105  0.093123  0.099783  0.000101  1.025424  0.0
H  H124  1  0.80934793  0.21508757  0.32490442  1  0.088817  -0.00034  0.098231  0.112254  -0.000363  0.997171  0.0
H  H125  1  0.30934990  0.28491538  0.67509595  1  0.088884  -0.00034  0.098241  0.112257  -0.000363  0.997144  0.0
H  H126  1  0.19064852  0.78491524  0.67509808  1  0.088881  -0.00034  0.098248  0.112264  -0.000363  0.997148  0.0
H  H127  1  0.69064955  0.71508501  0.32490194  1  0.088857  -0.00034  0.098241  0.112254  -0.000363  0.997137  0.0
H  H128  1  0.92730583  0.03050029  0.27122672  1  0.101331  0.001077  0.108116  0.12715  0.000407  1.010768  0.001
H  H129  1  0.42730657  0.46950189  0.72877287  1  0.101654  0.001077  0.108069  0.127108  0.000407  1.010849  0.001
H  H130  1  0.07268882  0.96950143  0.72877174  1  0.101681  0.001077  0.108032  0.127103  0.000407  1.010825  0.001
H  H131  1  0.57269108  0.53049645  0.27122616  1  0.101615  0.001077  0.108038  0.127112  0.000407  1.010763  0.001
H  H132  1  0.06727718  0.02667606  0.21806805  1  0.126231  0.002173  0.118038  0.094345  0.000755  1.009049  0.002
H  H133  1  0.56727743  0.47332456  0.78193272  1  0.126099  0.002174  0.118024  0.094331  0.000755  1.009053  0.002
H  H134  1  0.93271808  0.97332184  0.78193155  1  0.126093  0.002174  0.118061  0.094396  0.000755  1.00899  0.002
H  H135  1  0.43272022  0.52667735  0.21806863  1  0.126111  0.002174  0.118046  0.094374  0.000755  1.009006  0.002
H  H136  1  0.09035397  0.27678351  0.29632923  1  0.11504  0.002126  0.116837  0.087963  0.000656  1.029358  0.001
H  H137  1  0.59035609  0.22321782  0.70366978  1  0.11504  0.002126  0.116892  0.088052  0.000656  1.029259  0.001
H  H138  1  0.90964548  0.72321411  0.70367152  1  0.115028  0.002126  0.116878  0.088094  0.000656  1.02927  0.001
H  H139  1  0.40964576  0.77678304  0.29632984  1  0.115038  0.002126  0.116873  0.088033  0.000656  1.029327  0.001
H  H140  1  0.95064709  0.29252581  0.34660330  1  0.09363  0.000902  0.108647  0.116196  0.000429  1.021301  0.0
H  H141  1  0.45064907  0.20747532  0.65339453  1  0.093672  0.000902  0.108656  0.116164  0.000429  1.021341  0.0
H  H142  1  0.04935296  0.70747328  0.65339631  1  0.093542  0.000902  0.108654  0.116226  0.000429  1.021263  0.0
H  H143  1  0.54935278  0.79252467  0.34660624  1  0.093679  0.000902  0.108646  0.116214  0.000429  1.021321  0.0
H  H144  1  0.16613520  0.10559139  0.86449044  1  0.099045  0.00239  0.122971  0.095238  0.000882  0.974224  0.002
H  H145  1  0.66613185  0.39440878  0.13551074  1  0.099125  0.00239  0.122974  0.095238  0.000882  0.974204  0.002
H  H146  1  0.83386664  0.89441006  0.13550918  1  0.099031  0.00239  0.122962  0.095233  0.000882  0.974199  0.002
H  H147  1  0.33386460  0.60558245  0.86448597  1  0.099199  0.00239  0.122933  0.0952  0.000882  0.974284  0.002
H  H148  1  0.05614555  0.09205204  0.95332735  1  0.075246  0.001138  0.112043  0.125904  0.000565  1.010624  0.0
H  H149  1  0.55614058  0.40794886  0.04667229  1  0.07524  0.001138  0.112041  0.125824  0.000565  1.01073  0.0
H  H150  1  0.94385810  0.90795000  0.04667227  1  0.075236  0.001138  0.11206  0.125903  0.000565  1.010726  0.0
H  H151  1  0.44385947  0.59204488  0.95332500  1  0.075606  0.001138  0.112027  0.125856  0.000565  1.01072  0.0
H  H152  1  0.89601134  0.19342287  0.81327598  1  0.061989  0.001171  0.114274  0.126124  0.000553  0.988938  0.0
H  H153  1  0.39600525  0.30657607  0.18672251  1  0.061862  0.001171  0.11433  0.126281  0.000553  0.988867  0.0
H  H154  1  0.10399111  0.80657650  0.18672248  1  0.061955  0.001171  0.114302  0.126234  0.000553  0.988907  0.0
H  H155  1  0.60398940  0.69342200  0.81327768  1  0.061989  0.001171  0.114324  0.126255  0.000553  0.988928  0.0
H  H156  1  0.01385756  0.20269116  0.72965418  1  0.084451  0.002337  0.119163  0.086095  0.00083  1.011553  0.001
H  H157  1  0.51385092  0.29730779  0.27034265  1  0.084832  0.002337  0.119165  0.086039  0.000831  1.011515  0.001
H  H158  1  0.98614489  0.79730581  0.27034197  1  0.084819  0.002337  0.119181  0.086115  0.000831  1.011512  0.001
H  H159  1  0.48614613  0.70269052  0.72965409  1  0.084475  0.002337  0.119196  0.086069  0.000831  1.011555  0.001
H  H160  1  0.87313945  0.19084673  0.97027345  1  0.059363  -0.000535  0.101217  0.111445  -0.000462  0.962613  0.0
H  H161  1  0.37313606  0.30915649  0.02972566  1  0.059087  -0.000536  0.101238  0.111457  -0.000462  0.962599  0.0
H  H162  1  0.12686240  0.80915841  0.02972675  1  0.059129  -0.000536  0.10125  0.111484  -0.000462  0.962517  0.0
H  H163  1  0.62686219  0.69084303  0.97027338  1  0.059431  -0.000535  0.101217  0.111438  -0.000462  0.962628  0.0
H  H164  1  0.84384778  0.10785951  0.89531551  1  0.104609  6.7e-05  0.098051  0.107648  8.3e-05  1.032878  0.0
H  H165  1  0.34384487  0.39214399  0.10468250  1  0.104663  6.7e-05  0.09805  0.107659  8.3e-05  1.032897  0.0
H  H166  1  0.15615467  0.89214578  0.10468527  1  0.104623  6.7e-05  0.09802  0.107619  8.3e-05  1.032937  0.0
H  H167  1  0.65615218  0.60785494  0.89531653  1  0.104705  6.7e-05  0.098021  0.107644  8.3e-05  1.032883  0.0
H  H168  1  0.94065787  0.02079212  0.96170161  1  0.030952  -1.2e-05  0.093185  0.087993  -3.9e-05  1.000257  0.0
H  H169  1  0.44065692  0.47920783  0.03829623  1  0.030984  -1.2e-05  0.093202  0.08801  -3.9e-05  1.000268  0.0
H  H170  1  0.05934338  0.97921007  0.03829859  1  0.031024  -1.2e-05  0.093177  0.08798  -3.9e-05  1.000258  0.0
H  H171  1  0.55934313  0.52079246  0.96170568  1  0.031003  -1.2e-05  0.093174  0.08793  -3.9e-05  1.000268  0.0
H  H172  1  0.84259138  0.04414151  0.99324677  1  0.038708  5.4e-05  0.092144  0.087377  -6e-06  0.994532  0.0
H  H173  1  0.34259108  0.45586066  0.00675067  1  0.038644  5.4e-05  0.092137  0.087335  -6e-06  0.994582  0.0
H  H174  1  0.15740927  0.95586347  0.00675287  1  0.038709  5.4e-05  0.092132  0.087311  -6e-06  0.994627  0.0
H  H175  1  0.65740777  0.54414258  0.99325125  1  0.038688  5.4e-05  0.092134  0.087345  -6e-06  0.994593  0.0
H  H176  1  0.98973215  0.14387057  0.06937878  1  0.063639  0.000165  0.094658  0.109001  9.8e-05  1.010447  0.0
H  H177  1  0.48973306  0.35613087  0.93062013  1  0.063718  0.000165  0.094652  0.109006  9.8e-05  1.01043  0.0
H  H178  1  0.01026910  0.85613355  0.93062199  1  0.063628  0.000165  0.094648  0.109022  9.8e-05  1.010421  0.0
H  H179  1  0.51026519  0.64387234  0.06937950  1  0.063568  0.000165  0.094623  0.108936  9.8e-05  1.010482  0.0
H  H180  1  0.94248587  0.06624543  0.10174752  1  0.046141  -0.000392  0.093346  0.092692  -0.000345  1.01113  0.0
H  H181  1  0.44248627  0.43375496  0.89824974  1  0.045756  -0.000392  0.093365  0.092711  -0.000345  1.011086  0.0
H  H182  1  0.05751478  0.93375633  0.89825325  1  0.046106  -0.000392  0.09332  0.092643  -0.000345  1.011157  0.0
H  H183  1  0.55751318  0.56624990  0.10175161  1  0.045852  -0.000392  0.09334  0.092676  -0.000345  1.011131  0.0
H  H184  1  0.94916372  0.27916179  0.13734345  1  0.10472  0.001189  0.1087  0.120819  0.000549  0.997978  0.001
H  H185  1  0.44916591  0.22083890  0.86265495  1  0.104687  0.001189  0.108697  0.120791  0.000549  0.998002  0.001
H  H186  1  0.05083513  0.72084220  0.86265905  1  0.104723  0.001189  0.108707  0.120878  0.000549  0.997916  0.001
H  H187  1  0.55083534  0.77916471  0.13734180  1  0.10478  0.001189  0.108724  0.120821  0.00055  0.997917  0.001
H  H188  1  0.84686297  0.37173902  0.21603579  1  0.121367  0.002089  0.113959  0.081428  0.000695  1.028823  0.001
H  H189  1  0.34686528  0.12826082  0.78396393  1  0.121352  0.002089  0.113981  0.081441  0.000695  1.02881  0.001
H  H190  1  0.15313468  0.62826143  0.78396670  1  0.121356  0.002088  0.113976  0.08144  0.000694  1.028829  0.001
H  H191  1  0.65313477  0.87174271  0.21603685  1  0.121259  0.002089  0.113999  0.081502  0.000695  1.028956  0.001
H  H192  1  0.68085889  0.18544751  0.18668180  1  0.093315  0.002137  0.11997  0.092587  0.000741  1.012821  0.001
H  H193  1  0.18085941  0.31455428  0.81331878  1  0.093238  0.002137  0.119959  0.092607  0.000741  1.012796  0.001
H  H194  1  0.31914296  0.81455350  0.81331839  1  0.093371  0.002138  0.120006  0.092636  0.000741  1.012864  0.001
H  H195  1  0.81914004  0.68544850  0.18668142  1  0.093379  0.002137  0.119965  0.092605  0.000741  1.012873  0.001
H  H196  1  0.77560328  0.08501929  0.10685758  1  0.04821  0.001077  0.108109  0.114234  0.000501  1.000115  0.0
H  H197  1  0.27560549  0.41497909  0.89314341  1  0.048252  0.001077  0.108075  0.114203  0.000501  1.000159  0.0
H  H198  1  0.22439677  0.91497892  0.89314318  1  0.048218  0.001077  0.108114  0.114247  0.000501  1.000068  0.0
H  H199  1  0.72439276  0.58502340  0.10685794  1  0.048264  0.001077  0.108089  0.114174  0.000501  1.000145  0.0
C  C200  1  0.65743782  0.25232734  0.86760757  1  1.526574  -0.003924  0.190943  0.547427  -0.005219  4.197076  -0.006
C  C201  1  0.15743421  0.24767163  0.13239132  1  1.526783  -0.003924  0.191072  0.547554  -0.005219  4.196927  -0.006
C  C202  1  0.34256043  0.74767159  0.13239147  1  1.526303  -0.003922  0.19098  0.547424  -0.005218  4.197081  -0.006
C  C203  1  0.84256284  0.75232851  0.86761002  1  1.526689  -0.003925  0.190991  0.547489  -0.005219  4.197047  -0.006
C  C204  1  0.64876066  0.18263189  0.90332942  1  -0.029546  0.003895  -0.020672  -0.013419  0.002377  4.023897  0.003
C  C205  1  0.14875834  0.31736707  0.09666948  1  -0.029698  0.003895  -0.020729  -0.013427  0.002377  4.023772  0.003
C  C206  1  0.35124119  0.81736704  0.09666961  1  -0.029523  0.003895  -0.020672  -0.013334  0.002377  4.023759  0.003
C  C207  1  0.85124051  0.68263189  0.90333185  1  -0.030702  0.003895  -0.020697  -0.013376  0.002377  4.02388  0.003
C  C208  1  0.68902744  0.11042259  0.86798219  1  -0.024945  0.002691  -0.08973  -0.141818  0.001663  3.970344  0.002
C  C209  1  0.18902088  0.38957699  0.13201895  1  -0.024637  0.002691  -0.089708  -0.141887  0.001664  3.970325  0.002
C  C210  1  0.31097561  0.88957650  0.13201742  1  -0.025283  0.002691  -0.08977  -0.141897  0.001663  3.970331  0.002
C  C211  1  0.81097677  0.61042377  0.86798469  1  -0.024116  0.00269  -0.089708  -0.141856  0.001663  3.970257  0.002
C  C212  1  0.68415274  0.04374531  0.89923601  1  -0.047858  0.002571  -0.017439  0.000393  0.001567  4.030762  0.002
C  C213  1  0.18414806  0.45625501  0.10076571  1  -0.047844  0.002571  -0.017409  0.000577  0.001567  4.030629  0.002
C  C214  1  0.31584731  0.95625244  0.10076302  1  -0.047546  0.00257  -0.017373  0.000542  0.001568  4.030725  0.002
C  C215  1  0.81584899  0.54374575  0.89923793  1  -0.047647  0.00257  -0.017424  0.000513  0.001567  4.030602  0.002
C  C216  1  0.63872402  0.04754576  0.96560693  1  -0.031561  0.000301  -0.102699  -0.246298  -0.000202  3.978605  0.0
C  C217  1  0.13872306  0.45245277  0.03439257  1  -0.031687  0.000301  -0.102704  -0.246437  -0.000202  3.978677  0.0
C  C218  1  0.36127543  0.95245332  0.03439269  1  -0.031579  0.000301  -0.102704  -0.246454  -0.000202  3.978694  0.0
C  C219  1  0.86127699  0.54754619  0.96560877  1  -0.031724  0.000301  -0.102716  -0.246393  -0.000202  3.978549  0.0
C  C220  1  0.59960053  0.12047193  0.00170550  1  0.442451  0.00063  0.079644  0.246241  0.000222  4.096299  0.001
C  C221  1  0.09960013  0.37952555  0.99829233  1  0.442545  0.00063  0.079637  0.246266  0.000222  4.096382  0.001
C  C222  1  0.40040251  0.87952715  0.99829411  1  0.442142  0.00063  0.079672  0.246464  0.000222  4.09613  0.001
C  C223  1  0.90040172  0.62047323  0.00170613  1  0.44252  0.00063  0.079678  0.246327  0.000222  4.096231  0.001
C  C224  1  0.60449528  0.18810045  0.97034663  1  -0.003602  0.001107  -0.095279  -0.208712  0.000669  3.933417  0.001
C  C225  1  0.10449428  0.31189656  0.02964946  1  -0.003722  0.001108  -0.09531  -0.20876  0.000669  3.933292  0.001
C  C226  1  0.39550837  0.81189758  0.02965125  1  -0.003924  0.001107  -0.095364  -0.208945  0.000669  3.93343  0.001
C  C227  1  0.89550517  0.68810326  0.97035072  1  -0.003803  0.001108  -0.095351  -0.208858  0.000669  3.933435  0.001
C  C228  1  0.72943768  0.96907193  0.86118272  1  1.526553  -0.00301  0.192529  0.544298  -0.00431  4.196704  -0.005
C  C229  1  0.22943578  0.53092745  0.13881838  1  1.526184  -0.003009  0.192506  0.544233  -0.004309  4.196767  -0.005
C  C230  1  0.27056177  0.03092582  0.13881632  1  1.526493  -0.003009  0.192496  0.544255  -0.00431  4.196782  -0.005
C  C231  1  0.77056247  0.46907378  0.86118698  1  1.526487  -0.003009  0.192484  0.544341  -0.004309  4.196707  -0.005
C  C232  1  0.55452677  0.06296131  0.10189087  1  0.423029  4e-05  -0.067346  0.039641  2.4e-05  3.919009  0.0
C  C233  1  0.05452897  0.43704030  0.89810705  1  0.423219  4e-05  -0.067302  0.039565  2.4e-05  3.919149  0.0
C  C234  1  0.44547208  0.93704029  0.89810933  1  0.42306  4e-05  -0.067277  0.039779  2.4e-05  3.919  0.0
C  C235  1  0.94547227  0.56296263  0.10189372  1  0.423084  4e-05  -0.067324  0.039691  2.4e-05  3.919052  0.0
C  C236  1  0.50520623  0.08431816  0.17487087  1  -0.004406  0.000166  -0.171518  -0.188654  9.1e-05  3.952088  0.0
C  C237  1  0.00520617  0.41568244  0.82512770  1  -0.004468  0.000166  -0.171496  -0.188519  9.1e-05  3.952045  0.0
C  C238  1  0.49479322  0.91568446  0.82512875  1  -0.004444  0.000166  -0.171553  -0.188747  9.1e-05  3.95212  0.0
C  C239  1  0.99479328  0.58431770  0.17487364  1  -0.004565  0.000166  -0.171499  -0.188669  9.1e-05  3.952149  0.0
C  C240  1  0.50378498  0.01142175  0.21000565  1  -0.015555  4.3e-05  -0.166734  -0.13702  1.3e-05  3.954528  0.0
C  C241  1  0.00378681  0.48857838  0.78999120  1  -0.01552  4.3e-05  -0.166878  -0.137329  1.3e-05  3.954888  0.0
C  C242  1  0.49621387  0.98858103  0.78999455  1  -0.015485  4.3e-05  -0.166818  -0.137068  1.3e-05  3.954706  0.0
C  C243  1  0.99621384  0.51142099  0.21000726  1  -0.015557  4.3e-05  -0.166787  -0.137075  1.3e-05  3.954578  0.0
C  C244  1  0.45657286  0.02681931  0.28496395  1  -0.035148  -4.2e-05  -0.167632  -0.140119  -9.6e-05  3.946012  0.0
C  C245  1  0.95657504  0.47317812  0.71503328  1  -0.035583  -4.2e-05  -0.167585  -0.140037  -9.6e-05  3.945998  0.0
C  C246  1  0.54342659  0.97318201  0.71503740  1  -0.035098  -4.2e-05  -0.167597  -0.140103  -9.6e-05  3.945959  0.0
C  C247  1  0.04342681  0.52681932  0.28496460  1  -0.035156  -4.2e-05  -0.167599  -0.140097  -9.6e-05  3.946007  0.0
C  C248  1  0.45986994  0.95327205  0.31901078  1  0.013906  4.8e-05  -0.168174  -0.179499  4.1e-05  3.959586  0.0
C  C249  1  0.95987263  0.54672531  0.68098475  1  0.013774  4.8e-05  -0.168185  -0.179489  4.1e-05  3.959758  0.0
C  C250  1  0.54013011  0.04672806  0.68098826  1  0.013849  4.8e-05  -0.1682  -0.179576  4.1e-05  3.959736  0.0
C  C251  1  0.04013102  0.45327257  0.31901256  1  0.013996  4.8e-05  -0.16821  -0.179556  4.1e-05  3.959714  0.0
C  C252  1  0.42043604  0.97048084  0.39732510  1  0.38608  4.7e-05  -0.065432  0.040858  1.4e-05  3.889378  0.0
C  C253  1  0.92043827  0.52951640  0.60267222  1  0.386515  4.7e-05  -0.065462  0.040843  1.4e-05  3.889172  0.0
C  C254  1  0.57956341  0.02951750  0.60267394  1  0.386273  4.7e-05  -0.065402  0.040979  1.4e-05  3.889189  0.0
C  C255  1  0.07956478  0.47048253  0.39732681  1  0.385918  4.7e-05  -0.065421  0.04093  1.4e-05  3.889326  0.0
C  C256  1  0.40177862  0.90367879  0.49843654  1  0.521953  0.00129  0.081848  0.253966  0.000665  4.087806  0.001
C  C257  1  0.90177927  0.59631743  0.50156139  1  0.522046  0.00129  0.081909  0.254114  0.000665  4.087772  0.001
C  C258  1  0.59821843  0.09631834  0.50156019  1  0.522856  0.00129  0.081896  0.254061  0.000665  4.08786  0.001
C  C259  1  0.09822318  0.40368122  0.49843880  1  0.521977  0.00129  0.081924  0.254047  0.000665  4.087712  0.001
C  C260  1  0.41211257  0.83394300  0.52571935  1  0.018559  -0.001415  -0.089564  -0.207772  -0.001758  3.937866  -0.001
C  C261  1  0.91211330  0.66605588  0.47427971  1  0.01866  -0.001415  -0.089563  -0.207918  -0.001759  3.9379  -0.001
C  C262  1  0.58788388  0.16605503  0.47427853  1  0.018567  -0.001415  -0.089561  -0.207877  -0.001759  3.938015  -0.001
C  C263  1  0.08788855  0.33394379  0.52571990  1  0.018681  -0.001415  -0.089604  -0.207807  -0.001759  3.937811  -0.001
C  C264  1  0.38363571  0.83236854  0.59834862  1  -0.073722  0.007267  -0.017867  -0.018977  0.004258  3.993236  0.006
C  C265  1  0.88363477  0.66762800  0.40165049  1  -0.074004  0.007268  -0.017883  -0.01891  0.004258  3.993128  0.006
C  C266  1  0.61636554  0.16762996  0.40165099  1  -0.073871  0.007268  -0.017892  -0.018967  0.004259  3.993348  0.006
C  C267  1  0.11636468  0.33237065  0.59834970  1  -0.073945  0.007269  -0.017835  -0.018882  0.004259  3.993153  0.006
C  C268  1  0.34378628  0.90049474  0.64421426  1  -0.042156  -0.000816  -0.083729  -0.128108  -0.001033  3.945401  -0.001
C  C269  1  0.84378361  0.59950180  0.35578491  1  -0.042674  -0.000816  -0.08369  -0.12804  -0.001033  3.94545  -0.001
C  C270  1  0.65621617  0.09950360  0.35578477  1  -0.042775  -0.000816  -0.083731  -0.128088  -0.001033  3.945544  -0.001
C  C271  1  0.15621524  0.40049744  0.64421527  1  -0.042729  -0.000816  -0.083689  -0.128035  -0.001034  3.945382  -0.001
C  C272  1  0.33171091  0.96903690  0.61619417  1  -0.036532  0.003857  -0.021895  -0.014623  0.002431  4.014134  0.003
C  C273  1  0.83170936  0.53096082  0.38380503  1  -0.036021  0.003857  -0.021943  -0.014702  0.002431  4.01428  0.003
C  C274  1  0.66829094  0.03096262  0.38380487  1  -0.035856  0.003857  -0.021928  -0.014691  0.002431  4.014229  0.003
C  C275  1  0.16829189  0.46903976  0.61619574  1  -0.035865  0.003856  -0.021991  -0.014755  0.002431  4.014371  0.003
C  C276  1  0.36126836  0.97129095  0.54365576  1  -0.063125  -0.000694  -0.102331  -0.235813  -0.000958  3.964435  0.0
C  C277  1  0.86126967  0.52870617  0.45634338  1  -0.063102  -0.000694  -0.102369  -0.235884  -0.000958  3.964339  0.0
C  C278  1  0.63872989  0.02870664  0.45634269  1  -0.063745  -0.000694  -0.102332  -0.235819  -0.000958  3.964381  0.0
C  C279  1  0.13873278  0.47129263  0.54365738  1  -0.063223  -0.000694  -0.10235  -0.235847  -0.000958  3.964382  0.0
C  C280  1  0.39184745  0.75507524  0.62418712  1  1.546064  -0.00095  0.209699  0.566847  -0.001323  4.189711  -0.001
C  C281  1  0.89184780  0.74492279  0.37581312  1  1.546113  -0.000951  0.209743  0.566911  -0.001323  4.189578  -0.001
C  C282  1  0.60815140  0.24492357  0.37581364  1  1.546047  -0.000951  0.209731  0.566872  -0.001324  4.189594  -0.001
C  C283  1  0.10815405  0.25507558  0.62418821  1  1.546165  -0.000951  0.209687  0.566771  -0.001323  4.189755  -0.001
C  C284  1  0.28172880  0.03888780  0.65917981  1  1.492507  -0.003748  0.188573  0.529157  -0.005099  4.211763  -0.006
C  C285  1  0.78172689  0.46111189  0.34081944  1  1.492424  -0.003748  0.188488  0.529043  -0.005099  4.211799  -0.006
C  C286  1  0.71827545  0.96111380  0.34082038  1  1.492467  -0.003749  0.188558  0.529188  -0.005099  4.211867  -0.006
C  C287  1  0.21827256  0.53888943  0.65918190  1  1.492444  -0.003748  0.188546  0.52907  -0.0051  4.211724  -0.006
C  C288  1  0.82013674  0.28994616  0.68409661  1  0.462599  -0.005067  0.050296  0.097992  -0.005505  3.947104  -0.003
C  C289  1  0.32013936  0.21005325  0.31590373  1  0.462292  -0.005066  0.050299  0.098023  -0.005504  3.947038  -0.003
C  C290  1  0.17986031  0.71005249  0.31590358  1  0.46229  -0.005066  0.050232  0.097934  -0.005504  3.947018  -0.003
C  C291  1  0.67986009  0.78994155  0.68409529  1  0.462334  -0.005067  0.050187  0.097907  -0.005504  3.947142  -0.003
C  C292  1  0.86137981  0.26970665  0.61452550  1  -0.059539  0.007005  -0.085084  -0.189404  0.003934  3.924562  0.005
C  C293  1  0.36138291  0.23029201  0.38547419  1  -0.05909  0.007005  -0.085078  -0.189356  0.003934  3.924519  0.005
C  C294  1  0.13861844  0.73029259  0.38547469  1  -0.05908  0.007005  -0.085067  -0.189362  0.003934  3.924533  0.005
C  C295  1  0.63861774  0.76970264  0.61452425  1  -0.059244  0.007005  -0.085018  -0.189332  0.003934  3.924566  0.005
C  C296  1  0.83213492  0.29696234  0.55237733  1  -0.02955  -0.008568  0.014579  0.176615  -0.009144  3.945494  -0.006
C  C297  1  0.33213609  0.20303856  0.44762414  1  -0.029801  -0.008568  0.014555  0.176582  -0.009144  3.945394  -0.006
C  C298  1  0.16786573  0.70303914  0.44762459  1  -0.029784  -0.008568  0.014523  0.176474  -0.009145  3.94541  -0.006
C  C299  1  0.66786156  0.79696112  0.55237547  1  -0.029827  -0.008569  0.0146  0.176703  -0.009145  3.945433  -0.006
C  C300  1  0.76349510  0.34627678  0.56492704  1  0.012858  0.006032  -0.086738  -0.194611  0.003395  3.955103  0.005
C  C301  1  0.26349688  0.15372263  0.43507340  1  0.012979  0.006032  -0.086757  -0.194591  0.003395  3.955077  0.005
C  C302  1  0.23650555  0.65372394  0.43507430  1  0.01283  0.006032  -0.086713  -0.194479  0.003395  3.955045  0.005
C  C303  1  0.73650257  0.84627351  0.56492620  1  0.013503  0.006031  -0.086849  -0.194739  0.003395  3.955192  0.005
C  C304  1  0.72623619  0.36454979  0.63635939  1  0.4202  -0.006041  0.045117  0.08979  -0.006833  3.974488  -0.004
C  C305  1  0.22623689  0.13544963  0.36364111  1  0.420431  -0.00604  0.045128  0.089773  -0.006833  3.974412  -0.004
C  C306  1  0.27376326  0.63545019  0.36364137  1  0.42057  -0.00604  0.04514  0.089782  -0.006833  3.974521  -0.004
C  C307  1  0.77376016  0.86454859  0.63635965  1  0.420132  -0.006042  0.04524  0.089887  -0.006834  3.974412  -0.004
C  C308  1  0.86819572  0.27072592  0.47355171  1  -0.031514  0.000315  -0.162496  -0.217415  -3.3e-05  3.929017  0.0
C  C309  1  0.36819495  0.22927584  0.52644856  1  -0.031241  0.000315  -0.162537  -0.217446  -3.3e-05  3.929001  0.0
C  C310  1  0.13180553  0.72927791  0.52645022  1  -0.031459  0.000315  -0.162498  -0.217393  -3.3e-05  3.928892  0.0
C  C311  1  0.63180210  0.77072368  0.47355048  1  -0.031556  0.000315  -0.162527  -0.217493  -3.3e-05  3.929064  0.0
C  C312  1  0.83695870  0.18533969  0.43112488  1  -0.026974  -0.001134  -0.157055  -0.113432  -0.001286  3.887274  -0.001
C  C313  1  0.33695789  0.31466428  0.56887487  1  -0.02687  -0.001134  -0.157004  -0.113347  -0.001286  3.887174  -0.001
C  C314  1  0.16304375  0.81466427  0.56887532  1  -0.026835  -0.001134  -0.157055  -0.113387  -0.001286  3.887313  -0.001
C  C315  1  0.66304156  0.68533583  0.43112417  1  -0.026693  -0.001134  -0.157006  -0.113324  -0.001286  3.887149  -0.001
C  C316  1  0.84247388  0.16710421  0.34296904  1  -0.060405  9.2e-05  -0.163659  -0.215899  -0.000192  3.929596  0.0
C  C317  1  0.34247530  0.33289886  0.65702955  1  -0.060785  9.2e-05  -0.163599  -0.215755  -0.000192  3.929538  0.0
C  C318  1  0.15752497  0.83289944  0.65703001  1  -0.060754  9.2e-05  -0.163617  -0.215803  -0.000192  3.929559  0.0
C  C319  1  0.65752594  0.66710004  0.34296718  1  -0.06042  9.2e-05  -0.163651  -0.215883  -0.000192  3.929637  0.0
C  C320  1  0.92648368  0.16218218  0.31283941  1  0.01265  -0.007559  0.013524  0.176108  -0.008068  3.93139  -0.005
C  C321  1  0.42648325  0.33782028  0.68715904  1  0.012781  -0.007559  0.013433  0.176043  -0.008067  3.931464  -0.005
C  C322  1  0.07351637  0.83781985  0.68716021  1  0.012798  -0.007559  0.013486  0.176079  -0.008067  3.931478  -0.005
C  C323  1  0.57351680  0.66217818  0.31283827  1  0.012408  -0.00756  0.013455  0.176024  -0.008069  3.931471  -0.005
C  C324  1  0.96109144  0.08672947  0.27687218  1  -0.058549  0.006642  -0.085776  -0.186688  0.0037  3.932619  0.005
C  C325  1  0.46109337  0.41327271  0.72312735  1  -0.058895  0.006642  -0.085654  -0.186628  0.0037  3.932499  0.005
C  C326  1  0.03890381  0.91327126  0.72312916  1  -0.058892  0.006642  -0.08565  -0.186624  0.0037  3.932596  0.005
C  C327  1  0.53890548  0.58672634  0.27686996  1  -0.058909  0.006642  -0.08564  -0.186607  0.0037  3.932619  0.005
C  C328  1  0.03856830  0.08380890  0.24792278  1  0.443399  -0.003866  0.043273  0.083594  -0.004125  3.959658  -0.002
C  C329  1  0.53857039  0.41619144  0.75207919  1  0.443516  -0.003866  0.043209  0.083557  -0.004124  3.959618  -0.002
C  C330  1  0.96142695  0.91618810  0.75207567  1  0.443605  -0.003866  0.043197  0.083485  -0.004124  3.959587  -0.002
C  C331  1  0.46142966  0.58380988  0.24792215  1  0.443491  -0.003866  0.04324  0.083569  -0.004125  3.959664  -0.002
C  C332  1  0.05139147  0.22421479  0.29120511  1  0.462964  -0.005786  0.041558  0.084747  -0.006703  3.96024  -0.004
C  C333  1  0.55139300  0.27578506  0.70879281  1  0.462974  -0.005787  0.041484  0.084639  -0.006703  3.960195  -0.004
C  C334  1  0.94860738  0.77578222  0.70879334  1  0.46263  -0.005787  0.041496  0.084532  -0.006704  3.960329  -0.004
C  C335  1  0.44860825  0.72421595  0.29120739  1  0.462924  -0.005787  0.041532  0.084699  -0.006704  3.960231  -0.004
C  C336  1  0.97378090  0.23194817  0.31964804  1  -0.051126  0.005254  -0.08649  -0.185468  0.002955  3.953063  0.004
C  C337  1  0.47377985  0.26805503  0.68035091  1  -0.05081  0.005255  -0.086504  -0.185428  0.002956  3.953141  0.004
C  C338  1  0.02622095  0.76805296  0.68035043  1  -0.050696  0.005255  -0.086517  -0.185489  0.002956  3.95304  0.004
C  C339  1  0.52622020  0.73194582  0.31964871  1  -0.050816  0.005255  -0.086498  -0.18548  0.002956  3.953078  0.004
C  C340  1  0.10513151  0.12415663  0.85512351  1  0.467338  -0.005045  0.050892  0.094936  -0.005546  3.956761  -0.003
C  C341  1  0.60512874  0.37584308  0.14487604  1  0.46754  -0.005048  0.050957  0.095015  -0.005546  3.956626  -0.003
C  C342  1  0.89486914  0.87584407  0.14487553  1  0.467682  -0.005048  0.050941  0.094981  -0.005547  3.956685  -0.003
C  C343  1  0.39486891  0.62414992  0.85512067  1  0.467349  -0.005048  0.050943  0.0949  -0.005547  3.956871  -0.003
C  C344  1  0.04278032  0.11612907  0.90409302  1  -0.049119  0.006271  -0.085195  -0.195879  0.003557  3.947733  0.005
C  C345  1  0.54277584  0.38387183  0.09590665  1  -0.048805  0.006272  -0.085237  -0.195846  0.003557  3.947783  0.005
C  C346  1  0.95722273  0.88387312  0.09590718  1  -0.04902  0.006272  -0.08526  -0.195918  0.003557  3.94798  0.005
C  C347  1  0.45722001  0.61612325  0.90409123  1  -0.049446  0.006272  -0.08522  -0.195804  0.003557  3.947792  0.005
C  C348  1  0.96497369  0.13991669  0.88990641  1  0.011055  -0.007499  0.018569  0.175177  -0.008048  3.921272  -0.005
C  C349  1  0.46496896  0.36008313  0.11009311  1  0.011002  -0.007499  0.018544  0.17513  -0.008048  3.921302  -0.005
C  C350  1  0.03502876  0.86008550  0.11009379  1  0.011043  -0.0075  0.018515  0.175056  -0.008048  3.921465  -0.005
C  C351  1  0.53502629  0.63991434  0.88990707  1  0.011107  -0.0075  0.018593  0.175184  -0.008049  3.921254  -0.005
C  C352  1  0.95515368  0.17312848  0.82659484  1  0.021755  0.005925  -0.078655  -0.177875  0.003396  3.923439  0.005
C  C353  1  0.45514822  0.32687343  0.17340586  1  0.021727  0.005925  -0.078736  -0.178081  0.003396  3.923483  0.005
C  C354  1  0.04484817  0.82687371  0.17340536  1  0.021761  0.005925  -0.078701  -0.178057  0.003396  3.92353  0.005
C  C355  1  0.54484763  0.67312597  0.82659490  1  0.021772  0.005925  -0.07871  -0.178094  0.003396  3.923512  0.005
C  C356  1  0.02003343  0.17883824  0.78012515  1  0.475895  -0.00477  0.04926  0.103869  -0.005417  3.946185  -0.003
C  C357  1  0.52003110  0.32116381  0.21987225  1  0.475632  -0.004771  0.049299  0.10399  -0.005417  3.94609  -0.003
C  C358  1  0.97996602  0.82116200  0.21987216  1  0.475475  -0.004771  0.049274  0.103943  -0.005418  3.946132  -0.003
C  C359  1  0.47996655  0.67883747  0.78012679  1  0.475846  -0.004772  0.049254  0.103978  -0.005418  3.94604  -0.003
C  C360  1  0.89259134  0.12988562  0.93656016  1  -0.063698  0.000363  -0.158835  -0.211098  2e-06  3.925318  0.0
C  C361  1  0.39258910  0.37011641  0.06343892  1  -0.063513  0.000364  -0.158875  -0.211108  2e-06  3.925255  0.0
C  C362  1  0.10741171  0.87011849  0.06344062  1  -0.063488  0.000364  -0.158819  -0.211003  2e-06  3.925105  0.0
C  C363  1  0.60740915  0.62988326  0.93656069  1  -0.06391  0.000364  -0.15885  -0.211103  2e-06  3.925312  0.0
C  C364  1  0.90132057  0.07214062  0.98902248  1  -0.016172  -0.000302  -0.160761  -0.127675  -0.000373  3.916024  0.0
C  C365  1  0.40131965  0.42785993  0.01097543  1  -0.016144  -0.000302  -0.160732  -0.12761  -0.000373  3.916008  0.0
C  C366  1  0.09868188  0.92786232  0.01097829  1  -0.016355  -0.000302  -0.160721  -0.127608  -0.000373  3.915893  0.0
C  C367  1  0.59868040  0.57214183  0.98902534  1  -0.016162  -0.000302  -0.160664  -0.127527  -0.000373  3.915906  0.0
C  C368  1  0.93172735  0.11337058  0.07061966  1  -0.014049  0.000265  -0.161966  -0.22057  -3.5e-05  3.93843  0.0
C  C369  1  0.43172828  0.38663071  0.92937877  1  -0.013443  0.000265  -0.162011  -0.22064  -3.5e-05  3.938476  0.0
C  C370  1  0.06827450  0.88663145  0.92937996  1  -0.014052  0.000265  -0.16193  -0.22051  -3.5e-05  3.938322  0.0
C  C371  1  0.56827057  0.61337400  0.07062201  1  -0.013356  0.000265  -0.162  -0.220505  -3.5e-05  3.938363  0.0
C  C372  1  0.87195592  0.17309723  0.11619295  1  -0.019535  -0.006876  0.015544  0.17538  -0.007348  3.93857  -0.004
C  C373  1  0.37195871  0.32690304  0.88380616  1  -0.019966  -0.006876  0.015525  0.175317  -0.007348  3.938747  -0.004
C  C374  1  0.12804353  0.82690186  0.88380666  1  -0.019212  -0.006876  0.015499  0.175305  -0.007348  3.938803  -0.004
C  C375  1  0.62804014  0.67309976  0.11619634  1  -0.019979  -0.006876  0.015603  0.175331  -0.007348  3.938528  -0.004
C  C376  1  0.89029540  0.25552849  0.14685551  1  -0.002526  0.005927  -0.084721  -0.187817  0.003339  3.947064  0.005
C  C377  1  0.39029822  0.24447236  0.85314357  1  -0.002505  0.005927  -0.084656  -0.187697  0.003339  3.946857  0.005
C  C378  1  0.10970525  0.74447239  0.85314641  1  -0.002717  0.005927  -0.084729  -0.187958  0.003339  3.947097  0.005
C  C379  1  0.60970303  0.75553159  0.14685663  1  -0.002675  0.005927  -0.084739  -0.187822  0.003339  3.947026  0.005
C  C380  1  0.83378373  0.30748890  0.19104071  1  0.423781  -0.003869  0.04531  0.093704  -0.004395  3.955888  -0.002
C  C381  1  0.33378542  0.19251137  0.80895846  1  0.423747  -0.00387  0.045197  0.0936  -0.004397  3.955689  -0.002
C  C382  1  0.16621751  0.69250975  0.80895948  1  0.42379  -0.003871  0.045349  0.093788  -0.004398  3.955681  -0.002
C  C383  1  0.66621523  0.80749333  0.19104232  1  0.423782  -0.00387  0.045244  0.093605  -0.004396  3.955953  -0.002
C  C384  1  0.74094213  0.20344016  0.17405610  1  0.509424  -0.004423  0.048163  0.099769  -0.005106  3.944488  -0.003
C  C385  1  0.24094262  0.29655941  0.82594495  1  0.509285  -0.004423  0.048152  0.099661  -0.005106  3.944556  -0.003
C  C386  1  0.25905852  0.79656085  0.82594410  1  0.509364  -0.004423  0.048066  0.099646  -0.005105  3.944688  -0.003
C  C387  1  0.75905683  0.70344237  0.17405812  1  0.508693  -0.004424  0.048114  0.099639  -0.005106  3.944579  -0.003
C  C388  1  0.79443748  0.14809093  0.12997963  1  -0.048417  0.005605  -0.082751  -0.177836  0.0032  3.928705  0.004
C  C389  1  0.29443911  0.35190773  0.87002017  1  -0.048126  0.005606  -0.08273  -0.177751  0.0032  3.928822  0.004
C  C390  1  0.20556257  0.85190713  0.87002055  1  -0.048389  0.005606  -0.082728  -0.177774  0.0032  3.928732  0.004
C  C391  1  0.70555974  0.64809507  0.12998233  1  -0.047994  0.005605  -0.082743  -0.1777  0.0032  3.928606  0.004
N  N392  1  0.75307764  0.33575963  0.69491265  1  -1.21616  0.081971  -0.334697  -0.230565  0.047114  3.637389  0.073
N  N393  1  0.25307966  0.16423904  0.30508723  1  -1.216458  0.081973  -0.334664  -0.230498  0.047116  3.637246  0.073
N  N394  1  0.24692002  0.66423827  0.30508696  1  -1.216456  0.081971  -0.334636  -0.230502  0.047115  3.637207  0.073
N  N395  1  0.74691859  0.83575623  0.69491352  1  -1.216118  0.081971  -0.33468  -0.230472  0.047113  3.637174  0.073
N  N396  1  0.08302011  0.15156247  0.25468780  1  -1.226082  0.074626  -0.344746  -0.239425  0.04336  3.677276  0.065
N  N397  1  0.58301979  0.34843653  0.74531351  1  -1.226087  0.074632  -0.34468  -0.239379  0.043363  3.677224  0.065
N  N398  1  0.91697934  0.84843335  0.74531065  1  -1.2259  0.074629  -0.34471  -0.239313  0.043361  3.677098  0.065
N  N399  1  0.41697966  0.65156448  0.25468668  1  -1.226105  0.074627  -0.344712  -0.23942  0.043361  3.677196  0.065
N  N400  1  0.09422371  0.15388562  0.79339143  1  -1.227986  0.074906  -0.339224  -0.240316  0.043757  3.640402  0.066
N  N401  1  0.59422140  0.34611677  0.20660930  1  -1.228215  0.074908  -0.339234  -0.24032  0.043755  3.640356  0.066
N  N402  1  0.90577634  0.84611508  0.20660761  1  -1.228162  0.074909  -0.339222  -0.240295  0.043757  3.640375  0.066
N  N403  1  0.40577625  0.65388247  0.79339089  1  -1.22794  0.074911  -0.339223  -0.240255  0.043757  3.640372  0.066
N  N404  1  0.76039337  0.28208031  0.20581403  1  -1.227319  0.077373  -0.330817  -0.242449  0.04523  3.607993  0.069
N  N405  1  0.26039450  0.21792029  0.79418641  1  -1.22731  0.077376  -0.330745  -0.242331  0.045233  3.608037  0.069
N  N406  1  0.23960907  0.71792086  0.79418673  1  -1.227376  0.07738  -0.330807  -0.242418  0.045234  3.607992  0.069
N  N407  1  0.73960495  0.78208295  0.20581551  1  -1.226914  0.077377  -0.330763  -0.242317  0.045232  3.607939  0.069
O  O408  1  0.63111021  0.32322698  0.89923873  1  -1.147674  0.067854  -0.317044  -0.535633  0.037905  2.126985  0.059
O  O409  1  0.13110843  0.17677155  0.10076078  1  -1.14777  0.067852  -0.31708  -0.535669  0.037904  2.127004  0.059
O  O410  1  0.36888744  0.67677151  0.10076088  1  -1.147717  0.067856  -0.31711  -0.535694  0.037906  2.127052  0.059
O  O411  1  0.86888982  0.82322915  0.89923826  1  -1.147744  0.067852  -0.317054  -0.535662  0.037904  2.127047  0.059
O  O412  1  0.69405930  0.23726460  0.80224063  1  -1.131723  0.083088  -0.326648  -0.539181  0.046737  2.277588  0.075
O  O413  1  0.19405736  0.26273554  0.19775819  1  -1.131842  0.083092  -0.326713  -0.539267  0.04674  2.277527  0.075
O  O414  1  0.30593836  0.76273551  0.19775840  1  -1.131459  0.083089  -0.32663  -0.53915  0.046739  2.277544  0.075
O  O415  1  0.80593909  0.73726342  0.80224314  1  -1.131753  0.083093  -0.32663  -0.539197  0.04674  2.277492  0.075
O  O416  1  0.79301458  0.97723124  0.82326403  1  -1.136549  0.077405  -0.319451  -0.536698  0.043715  2.252435  0.069
O  O417  1  0.29301380  0.52276558  0.17673408  1  -1.136192  0.077406  -0.319461  -0.536721  0.043715  2.252466  0.069
O  O418  1  0.20698727  0.02276638  0.17673673  1  -1.136539  0.077406  -0.319449  -0.53672  0.043715  2.252495  0.069
O  O419  1  0.70698565  0.47723236  0.82326783  1  -1.136473  0.077405  -0.319439  -0.536725  0.043715  2.252503  0.069
O  O420  1  0.70642080  0.89873467  0.86521202  1  -1.130467  0.072982  -0.316845  -0.52319  0.041102  2.156356  0.064
O  O421  1  0.20642013  0.60126517  0.13479085  1  -1.130423  0.07298  -0.316812  -0.523161  0.041101  2.156323  0.064
O  O422  1  0.29357805  0.10126457  0.13478817  1  -1.130405  0.072981  -0.316836  -0.523173  0.041102  2.156304  0.064
O  O423  1  0.79357992  0.39873680  0.86521510  1  -1.130408  0.072977  -0.316809  -0.52323  0.0411  2.156298  0.064
O  O424  1  0.55608654  0.13091387  0.06797466  1  -1.069588  0.000201  -0.186617  -0.208685  7.6e-05  2.530985  0.0
O  O425  1  0.05608985  0.36908610  0.93202152  1  -1.069529  0.000201  -0.186635  -0.208669  7.6e-05  2.531185  0.0
O  O426  1  0.44391591  0.86908624  0.93202438  1  -1.069234  0.000201  -0.186618  -0.208785  7.6e-05  2.530961  0.0
O  O427  1  0.94391320  0.63091504  0.06797694  1  -1.069591  0.000201  -0.186663  -0.208757  7.6e-05  2.531007  0.0
O  O428  1  0.43200769  0.90014115  0.42713167  1  -1.076799  0.000413  -0.182048  -0.207532  0.000243  2.542998  0.0
O  O429  1  0.93201060  0.59985566  0.57286621  1  -1.077124  0.000414  -0.182073  -0.207606  0.000243  2.54303  0.0
O  O430  1  0.56799056  0.09985614  0.57286564  1  -1.077406  0.000414  -0.182066  -0.20758  0.000243  2.543011  0.0
O  O431  1  0.06799244  0.40014315  0.42713455  1  -1.07687  0.000414  -0.182061  -0.207583  0.000243  2.542976  0.0
O  O432  1  0.27393142  0.10178318  0.63252659  1  -1.139781  0.072035  -0.320983  -0.545754  0.040439  2.222266  0.065
O  O433  1  0.77392823  0.39821741  0.36747383  1  -1.139816  0.072039  -0.320971  -0.545711  0.040438  2.222239  0.065
O  O434  1  0.72607163  0.89821814  0.36747475  1  -1.139819  0.072043  -0.321013  -0.545779  0.04044  2.222245  0.065
O  O435  1  0.22607122  0.60178555  0.63252924  1  -1.139804  0.072042  -0.321001  -0.545727  0.04044  2.222138  0.065
O  O436  1  0.24360458  0.03496029  0.71994793  1  -1.137596  0.080679  -0.315993  -0.53542  0.045416  2.182331  0.072
O  O437  1  0.74360038  0.46504000  0.28005139  1  -1.137361  0.080681  -0.315915  -0.535353  0.045417  2.182189  0.072
O  O438  1  0.75640207  0.96504103  0.28005341  1  -1.137396  0.08068  -0.315944  -0.535429  0.045417  2.182349  0.072
O  O439  1  0.25639787  0.53496265  0.71995053  1  -1.137449  0.080682  -0.315962  -0.535349  0.045419  2.182248  0.072
O  O440  1  0.34859012  0.75021477  0.68175631  1  -1.149196  0.067522  -0.313578  -0.554347  0.037879  2.383127  0.062
O  O441  1  0.84859057  0.74978459  0.31824459  1  -1.149055  0.067515  -0.313575  -0.554343  0.037879  2.382998  0.062
O  O442  1  0.65140933  0.24978344  0.31824445  1  -1.149057  0.067519  -0.313586  -0.554347  0.037882  2.38298  0.062
O  O443  1  0.15141368  0.25021732  0.68175675  1  -1.149267  0.067524  -0.313602  -0.55434  0.037881  2.38309  0.062
O  O444  1  0.43927961  0.70011668  0.58724542  1  -1.186726  4.5e-05  -0.325587  -0.553554  -0.000924  2.157702  0.0
O  O445  1  0.93927990  0.79988177  0.41275418  1  -1.18672  4.6e-05  -0.325593  -0.553567  -0.000924  2.157674  0.0
O  O446  1  0.56071984  0.29988212  0.41275534  1  -1.186713  4.6e-05  -0.325581  -0.553542  -0.000924  2.157751  0.0
O  O447  1  0.06072194  0.20011881  0.58724659  1  -1.18668  4.6e-05  -0.325536  -0.553473  -0.000924  2.157818  0.0
O  O448  1  0.10406192  0.07418203  0.63088179  1  -1.220395  0.064596  -0.572411  -0.736754  0.036718  2.105463  0.055
O  O449  1  0.60405874  0.42581666  0.36911834  1  -1.220422  0.0646  -0.572495  -0.736855  0.03672  2.105535  0.055
O  O450  1  0.89594173  0.92581616  0.36911667  1  -1.220456  0.0646  -0.572448  -0.736847  0.03672  2.105555  0.055
O  O451  1  0.39594131  0.57418066  0.63088127  1  -1.220424  0.0646  -0.572455  -0.736834  0.03672  2.105538  0.055
