# generated using pymatgen
data_Co5H26C32(NO5)4
_symmetry_space_group_name_H-M   'P 1'
_cell_length_a   11.16847972
_cell_length_b   18.57378984
_cell_length_c   21.19883340
_cell_angle_alpha   94.49974808
_cell_angle_beta   90.01829736
_cell_angle_gamma   107.50169918
_symmetry_Int_Tables_number   1
_chemical_formula_structural   Co5H26C32(NO5)4
_chemical_formula_sum   'Co20 H104 C128 N16 O80'
_cell_volume   4179.68810472
_cell_formula_units_Z   4
loop_
 _symmetry_equiv_pos_site_id
 _symmetry_equiv_pos_as_xyz
  1  'x, y, z'
loop_
 _atom_site_type_symbol
 _atom_site_label
 _atom_site_symmetry_multiplicity
 _atom_site_fract_x
 _atom_site_fract_y
 _atom_site_fract_z
 _atom_site_occupancy
 _atom_site_pbe_bader_charge
 _atom_site_pbe_bader_spin_density
 _atom_site_pbe_cm5_charge
 _atom_site_pbe_ddec_charge
 _atom_site_pbe_ddec_spin_density
 _atom_site_pbe_ddec_sum_bond_order
 _atom_site_pbe_magmom
Co  Co0  1  0.40767702  0.65273875  0.23985308  1  1.27507  2.6164  0.64361  0.971607  2.837035  2.38262  2.6
Co  Co1  1  0.75497246  0.34734888  0.26011951  1  1.276398  2.616369  0.643793  0.97172  2.835083  2.38328  2.6
Co  Co2  1  0.59232582  0.34725965  0.76014571  1  1.275191  2.616391  0.643579  0.971578  2.837025  2.38262  2.6
Co  Co3  1  0.24503199  0.65265631  0.73988163  1  1.276202  2.616363  0.643741  0.971649  2.835038  2.383092  2.6
Co  Co4  1  0.62078739  0.80025518  0.17736716  1  1.29529  2.622544  0.624187  1.046819  2.838127  2.365124  2.606
Co  Co5  1  0.82060970  0.19980318  0.32272058  1  1.29488  2.622317  0.624254  1.047493  2.837354  2.363312  2.606
Co  Co6  1  0.37922663  0.19974944  0.82264573  1  1.295132  2.622564  0.624163  1.046872  2.838174  2.364977  2.606
Co  Co7  1  0.17939587  0.80019352  0.67726488  1  1.29475  2.622358  0.624282  1.047581  2.8374  2.363052  2.606
Co  Co8  1  0.57884430  0.25652958  0.37271250  1  1.270576  2.590003  0.640668  1.023958  2.77217  2.342029  2.551
Co  Co9  1  0.32230755  0.74356859  0.12728565  1  1.270104  2.590282  0.641019  1.024143  2.773863  2.34167  2.551
Co  Co10  1  0.42115119  0.74346486  0.62727374  1  1.270617  2.590018  0.640758  1.024168  2.772229  2.342125  2.551
Co  Co11  1  0.67769271  0.25643716  0.87273251  1  1.26999  2.590267  0.64101  1.024163  2.773856  2.341502  2.551
Co  Co12  1  0.97768462  0.72418533  0.55935883  1  1.256481  2.592075  0.656685  0.998958  2.762894  2.445647  2.542
Co  Co13  1  0.25361388  0.27580924  0.94053989  1  1.263278  2.591721  0.656859  0.999476  2.765159  2.445604  2.542
Co  Co14  1  0.02231364  0.27580571  0.44062765  1  1.256225  2.592091  0.656722  0.999105  2.762891  2.445713  2.542
Co  Co15  1  0.74639085  0.72419650  0.05948157  1  1.263073  2.59172  0.656861  0.99959  2.765139  2.445522  2.542
Co  Co16  1  0.17205957  0.85708961  0.50082141  1  1.242343  2.566853  0.629442  0.915338  2.779869  2.416783  2.553
Co  Co17  1  0.31493896  0.14287284  0.99920721  1  1.240193  2.566716  0.629912  0.916079  2.780219  2.41465  2.553
Co  Co18  1  0.82793341  0.14289803  0.49915210  1  1.242282  2.566889  0.629567  0.915576  2.779881  2.416404  2.553
Co  Co19  1  0.68505517  0.85713857  0.00081700  1  1.240325  2.566764  0.629885  0.916149  2.780322  2.414506  2.553
H  H20  1  0.48633679  0.67495048  0.13033482  1  0.629212  0.000633  0.284283  0.366181  0.00115  0.994746  0.002
H  H21  1  0.81154037  0.32511702  0.36961796  1  0.631359  0.000632  0.284548  0.366847  0.001138  0.993518  0.002
H  H22  1  0.51367054  0.32505867  0.86966989  1  0.629018  0.000633  0.284249  0.366095  0.00115  0.994824  0.002
H  H23  1  0.18845817  0.67487458  0.63037894  1  0.631376  0.000632  0.284506  0.366722  0.001139  0.99368  0.002
H  H24  1  0.55404264  0.76844761  0.06530876  1  0.596148  0.001277  0.28754  0.363846  0.001597  0.978867  0.004
H  H25  1  0.78562574  0.23170119  0.43475361  1  0.611593  0.001222  0.287654  0.364488  0.001591  0.978844  0.004
H  H26  1  0.44595992  0.23156097  0.93470865  1  0.596045  0.001277  0.287501  0.363858  0.001596  0.978912  0.004
H  H27  1  0.21437003  0.76829381  0.56523078  1  0.611276  0.001221  0.287679  0.3645  0.001591  0.978707  0.004
H  H28  1  0.10417794  0.85950046  0.38942347  1  0.442067  -0.000897  0.315638  0.312766  -0.001036  0.910516  -0.001
H  H29  1  0.24487318  0.14062171  0.11065518  1  0.467643  -0.000892  0.31587  0.313847  -0.001037  0.908668  -0.001
H  H30  1  0.89581421  0.14049625  0.61055066  1  0.442148  -0.000898  0.315537  0.312593  -0.001036  0.910551  -0.001
H  H31  1  0.75511797  0.85937837  0.88936777  1  0.467596  -0.000891  0.315766  0.313699  -0.001037  0.908787  -0.001
H  H32  1  0.13494838  0.95095303  0.41441498  1  0.421514  4e-06  0.304976  0.292232  -9.5e-05  0.939143  0.0
H  H33  1  0.18416671  0.04913687  0.08575611  1  0.425323  -2.2e-05  0.304968  0.292267  -9.7e-05  0.940368  0.0
H  H34  1  0.86504791  0.04904481  0.58556159  1  0.42126  4e-06  0.30503  0.292272  -9.5e-05  0.939224  0.0
H  H35  1  0.81582571  0.95086038  0.91426476  1  0.425761  -2.1e-05  0.305015  0.29227  -9.7e-05  0.940406  0.0
H  H36  1  0.73609777  0.45840736  0.34090672  1  0.468492  -0.000359  0.303672  0.303697  -0.000359  0.936434  0.0
H  H37  1  0.27755717  0.54168519  0.15905894  1  0.45115  -0.000357  0.303548  0.304335  -0.000359  0.935275  0.0
H  H38  1  0.26389588  0.54158877  0.65909427  1  0.468077  -0.00036  0.303727  0.303804  -0.000359  0.936373  0.0
H  H39  1  0.72243950  0.45832057  0.84094130  1  0.451366  -0.000357  0.30355  0.304371  -0.00036  0.935244  0.0
H  H40  1  0.88436740  0.45957311  0.34547356  1  0.474151  -0.000544  0.292177  0.282509  -0.000626  1.00584  -0.001
H  H41  1  0.42463792  0.54046478  0.15444602  1  0.458966  -0.000547  0.292143  0.282188  -0.000628  1.00705  -0.001
H  H42  1  0.11562475  0.54042358  0.65453076  1  0.474085  -0.000544  0.292171  0.282506  -0.000626  1.005886  -0.001
H  H43  1  0.57535701  0.45953928  0.84555221  1  0.458876  -0.000547  0.292201  0.282246  -0.000628  1.007005  -0.001
H  H44  1  0.14356807  0.95157242  0.59343444  1  0.447165  -0.000237  0.308794  0.307202  -0.000564  0.915045  0.0
H  H45  1  0.19195389  0.04839485  0.90661392  1  0.437896  -0.000222  0.308476  0.306661  -0.000563  0.915748  0.0
H  H46  1  0.85642510  0.04841919  0.40653510  1  0.447001  -0.000237  0.308836  0.30731  -0.000565  0.915065  0.0
H  H47  1  0.80805095  0.95161826  0.09341371  1  0.437334  -0.000224  0.308449  0.306748  -0.000564  0.915599  0.0
H  H48  1  0.28730877  0.94535935  0.59788924  1  0.500244  -5.7e-05  0.297096  0.30365  -0.000231  0.98605  0.0
H  H49  1  0.34189700  0.05460644  0.90215244  1  0.493443  -5e-05  0.296991  0.303482  -0.000231  0.984674  0.0
H  H50  1  0.71267921  0.05462546  0.40208359  1  0.499115  -5.6e-05  0.297156  0.303697  -0.000232  0.986068  0.0
H  H51  1  0.65810750  0.94540780  0.09787338  1  0.493172  -5e-05  0.296892  0.303206  -0.000232  0.985261  0.0
H  H52  1  0.47553205  0.65282380  0.35217224  1  0.469005  -0.000258  0.318537  0.313889  -0.000282  0.901692  0.0
H  H53  1  0.82269883  0.34728673  0.14784770  1  0.45681  -0.000258  0.318341  0.313689  -0.000285  0.901458  0.0
H  H54  1  0.52446608  0.34717233  0.64783063  1  0.46903  -0.000258  0.318464  0.313831  -0.000282  0.901656  0.0
H  H55  1  0.17730868  0.65271562  0.85215371  1  0.456869  -0.000258  0.318302  0.313602  -0.000285  0.901524  0.0
H  H56  1  0.44163709  0.56183312  0.32549910  1  0.445187  -0.000691  0.307254  0.296411  -0.000902  0.940087  0.0
H  H57  1  0.87979416  0.43831735  0.17448072  1  0.442555  -0.000696  0.307297  0.296306  -0.000904  0.940123  0.0
H  H58  1  0.55837414  0.43816414  0.67450573  1  0.445395  -0.000692  0.30723  0.296305  -0.000903  0.940214  0.0
H  H59  1  0.12021839  0.56168615  0.82551936  1  0.442733  -0.000696  0.307273  0.296273  -0.000904  0.940155  0.0
H  H60  1  0.61305207  0.97234307  0.29915836  1  0.088427  0.000501  0.103976  0.110961  0.0001  1.016935  0.0
H  H61  1  0.64093619  0.02766842  0.20093688  1  0.11874  0.000466  0.103568  0.110683  9.7e-05  1.016847  0.0
H  H62  1  0.38696260  0.02764853  0.70083712  1  0.088272  0.000501  0.103936  0.110898  0.0001  1.016988  0.0
H  H63  1  0.35908787  0.97234017  0.79906921  1  0.118928  0.000466  0.10358  0.110662  9.7e-05  1.016949  0.0
H  H64  1  0.31657770  0.04589224  0.38552067  1  0.095212  0.000172  0.104101  0.115972  -2.8e-05  1.026509  0.0
H  H65  1  0.27079235  0.95427290  0.11461060  1  0.100842  0.000172  0.104071  0.11663  -2.8e-05  1.025035  0.0
H  H66  1  0.68341924  0.95410333  0.61444207  1  0.094994  0.000172  0.104125  0.115993  -2.8e-05  1.026257  0.0
H  H67  1  0.72920653  0.04572831  0.88541762  1  0.100799  0.000172  0.104108  0.116648  -2.8e-05  1.0251  0.0
H  H68  1  0.27393694  0.80743797  0.35117698  1  0.089183  0.00037  0.110679  0.129188  3.9e-05  1.01972  0.0
H  H69  1  0.46697699  0.19269525  0.14891020  1  0.128473  0.000332  0.11095  0.129512  3.9e-05  1.019539  0.0
H  H70  1  0.72606298  0.19255817  0.64880372  1  0.089325  0.00037  0.110715  0.129114  4e-05  1.019921  0.0
H  H71  1  0.53302581  0.80730483  0.85109955  1  0.128453  0.000332  0.110935  0.129532  3.9e-05  1.01947  0.0
H  H72  1  0.94313156  0.71332230  0.19078869  1  0.094448  0.000687  0.110598  0.126598  0.000182  0.99963  0.0
H  H73  1  0.22984404  0.28678268  0.30919444  1  0.095985  0.000691  0.110306  0.126371  0.000182  0.999041  0.0
H  H74  1  0.05687318  0.28668345  0.80922758  1  0.094348  0.000687  0.110538  0.126496  0.000182  0.999607  0.0
H  H75  1  0.77015164  0.71321572  0.69079632  1  0.096402  0.000691  0.110333  0.126392  0.000182  0.999076  0.0
H  H76  1  0.04449864  0.53438375  0.27335455  1  0.104307  8.7e-05  0.104829  0.119514  -0.000109  1.032113  0.0
H  H77  1  0.51000864  0.46566028  0.22651889  1  0.125205  8.3e-05  0.10482  0.120037  -0.000109  1.031971  0.0
H  H78  1  0.95549855  0.46561407  0.72664939  1  0.10413  8.7e-05  0.104831  0.119458  -0.000109  1.032216  0.0
H  H79  1  0.48998865  0.53434491  0.77347895  1  0.125166  8.3e-05  0.104803  0.11997  -0.000109  1.031985  0.0
H  H80  1  0.66780716  0.54946351  0.29032676  1  0.095107  1.2e-05  0.103866  0.115325  -0.000141  1.017636  0.0
H  H81  1  0.11820153  0.45052301  0.20955639  1  0.105158  8e-06  0.103411  0.114893  -0.000143  1.017361  0.0
H  H82  1  0.33218823  0.45053431  0.70967717  1  0.095227  1.2e-05  0.103832  0.11521  -0.000141  1.017731  0.0
H  H83  1  0.88179368  0.54948161  0.79044329  1  0.105246  8e-06  0.103392  0.114939  -0.000143  1.017311  0.0
H  H84  1  0.36556034  0.21412365  0.45499092  1  0.098311  0.000999  0.108577  0.112459  0.000351  1.022195  0.0
H  H85  1  0.15131821  0.78572413  0.04496486  1  0.097481  0.001009  0.108377  0.112081  0.000355  1.022206  0.0
H  H86  1  0.63442921  0.78586965  0.54498486  1  0.098722  0.000997  0.108662  0.112708  0.000351  1.022242  0.0
H  H87  1  0.84866980  0.21428218  0.95504910  1  0.097861  0.001008  0.108391  0.112105  0.000356  1.022336  0.0
H  H88  1  0.07807488  0.03660516  0.53370067  1  0.096861  0.000125  0.102528  0.112405  -6.9e-05  1.02857  0.0
H  H89  1  0.04150480  0.96340201  0.96638854  1  0.0709  0.000144  0.102344  0.112095  -6.9e-05  1.028668  0.0
H  H90  1  0.92191785  0.96336946  0.46625307  1  0.09693  0.000125  0.102603  0.112658  -6.9e-05  1.028154  0.0
H  H91  1  0.95849702  0.03661223  0.03363210  1  0.070501  0.000144  0.102433  0.112312  -6.9e-05  1.028505  0.0
H  H92  1  0.46328208  0.03581585  0.54165232  1  0.113698  0.000158  0.109455  0.125365  -3e-06  1.027137  0.0
H  H93  1  0.42738426  0.96405274  0.95831865  1  0.133342  0.00015  0.109576  0.125359  -2e-06  1.02671  0.0
H  H94  1  0.53671613  0.96417689  0.45832107  1  0.114346  0.000158  0.109446  0.125293  -3e-06  1.027052  0.0
H  H95  1  0.57262280  0.03596659  0.04171696  1  0.133909  0.000151  0.109502  0.125224  -2e-06  1.026567  0.0
H  H96  1  0.96763623  0.54380001  0.44466871  1  0.128455  0.000584  0.107917  0.120173  0.000155  1.004788  0.0
H  H97  1  0.42330974  0.45603055  0.05540566  1  0.115181  0.000589  0.107996  0.120476  0.000153  1.004729  0.0
H  H98  1  0.03236288  0.45619272  0.55532732  1  0.128421  0.000584  0.1079  0.12017  0.000155  1.004748  0.0
H  H99  1  0.57668938  0.54397293  0.94461329  1  0.115047  0.000589  0.107916  0.120369  0.000153  1.004772  0.0
H  H100  1  0.26341677  0.46878357  0.35871965  1  0.113717  0.000237  0.1065  0.120649  -3.3e-05  1.029794  0.0
H  H101  1  0.79433651  0.53126803  0.14128554  1  0.108181  0.000243  0.106758  0.120994  -3.4e-05  1.029202  0.0
H  H102  1  0.73658889  0.53120973  0.64128019  1  0.113918  0.000237  0.10654  0.120737  -3.3e-05  1.029792  0.0
H  H103  1  0.20566982  0.46873375  0.85872480  1  0.10844  0.000243  0.106763  0.121074  -3.4e-05  1.029249  0.0
H  H104  1  0.29949691  0.70720697  0.38280892  1  0.132696  0.000316  0.111772  0.132579  3.8e-05  1.0191  0.0
H  H105  1  0.59231209  0.29280251  0.11717618  1  0.130072  0.000319  0.112294  0.13361  3.6e-05  1.018926  0.0
H  H106  1  0.70049358  0.29278463  0.61718703  1  0.132562  0.000315  0.111845  0.132693  3.8e-05  1.018999  0.0
H  H107  1  0.40769212  0.70720041  0.88283471  1  0.130077  0.000319  0.112201  0.133487  3.7e-05  1.018986  0.0
H  H108  1  0.85041248  0.84963744  0.20452383  1  0.622894  -0.000414  0.319652  0.408279  -0.000655  0.886907  0.0
H  H109  1  0.00084019  0.15034106  0.29560386  1  0.627485  -0.000419  0.319703  0.408054  -0.000654  0.887082  0.0
H  H110  1  0.14959805  0.15037454  0.79548485  1  0.622746  -0.000414  0.319605  0.408126  -0.000655  0.887  0.0
H  H111  1  0.99916189  0.84965223  0.70438561  1  0.627591  -0.000418  0.319694  0.408042  -0.000654  0.887094  0.0
H  H112  1  0.77949793  0.90102265  0.23834283  1  0.62799  -0.000573  0.316087  0.405643  -0.000676  0.893233  0.0
H  H113  1  0.87844272  0.09904506  0.26178253  1  0.62577  -0.000574  0.315622  0.405277  -0.000676  0.892847  0.0
H  H114  1  0.22049973  0.09897970  0.76166990  1  0.628323  -0.000573  0.316058  0.405556  -0.000676  0.893265  0.0
H  H115  1  0.12155725  0.90096013  0.73820304  1  0.625961  -0.000573  0.315526  0.405144  -0.000676  0.89305  0.0
H  H116  1  0.75384289  0.39582778  0.43897259  1  0.62662  0.000179  0.301071  0.394956  8.4e-05  0.929183  0.0
H  H117  1  0.35759225  0.60415657  0.06110461  1  0.637223  0.000156  0.301347  0.395849  7.8e-05  0.927936  0.0
H  H118  1  0.24615227  0.60416778  0.56101892  1  0.62662  0.000179  0.301123  0.395048  8.4e-05  0.929085  0.0
H  H119  1  0.64240961  0.39584521  0.93890479  1  0.637135  0.000156  0.301281  0.395767  7.8e-05  0.928005  0.0
H  H120  1  0.62381104  0.38196659  0.47035119  1  0.600163  0.000275  0.320892  0.400775  -0.000154  0.881793  0.0
H  H121  1  0.24162779  0.61809579  0.02957970  1  0.634548  0.000255  0.320686  0.400524  -0.000153  0.881932  0.0
H  H122  1  0.37618671  0.61802161  0.52964028  1  0.599975  0.000275  0.320754  0.400657  -0.000153  0.881698  0.0
H  H123  1  0.75838109  0.38191109  0.97043193  1  0.634146  0.000255  0.320686  0.400555  -0.000153  0.882074  0.0
C  C124  1  0.44778667  0.88324415  0.32136955  1  -0.081754  0.005951  -0.018261  -0.020263  0.002664  3.979168  0.004
C  C125  1  0.56494107  0.11684378  0.17868298  1  -0.026976  0.005818  -0.018527  -0.019474  0.002632  3.976971  0.004
C  C126  1  0.55222192  0.11675142  0.67861583  1  -0.081064  0.005951  -0.018263  -0.020151  0.002664  3.979102  0.004
C  C127  1  0.43506814  0.88316197  0.82132056  1  -0.028584  0.005822  -0.018568  -0.019512  0.002633  3.977093  0.004
C  C128  1  0.52013851  0.95887104  0.31924135  1  0.011433  0.015021  -0.087948  -0.131612  0.007848  3.956559  0.009
C  C129  1  0.56150283  0.04119722  0.18085001  1  -0.064221  0.015183  -0.08718  -0.131158  0.007879  3.958349  0.009
C  C130  1  0.47986711  0.04112397  0.68074163  1  0.012477  0.01502  -0.087704  -0.131313  0.007849  3.956164  0.009
C  C131  1  0.43851000  0.95880683  0.81915765  1  -0.064844  0.015183  -0.087242  -0.131113  0.007879  3.95882  0.009
C  C132  1  0.47129649  0.01702101  0.34143994  1  -0.013274  0.006152  -0.020418  -0.026061  0.002816  4.006019  0.005
C  C133  1  0.45441405  0.98307229  0.15869248  1  -0.028165  0.006141  -0.020582  -0.025845  0.0028  4.007583  0.005
C  C134  1  0.52869451  0.98297343  0.65853168  1  -0.014217  0.006153  -0.020554  -0.026046  0.002815  4.00604  0.005
C  C135  1  0.54559106  0.01693063  0.84132407  1  -0.027615  0.006138  -0.020526  -0.025706  0.002799  4.00784  0.005
C  C136  1  0.35259798  0.99982360  0.36806848  1  -0.052279  0.011834  -0.086729  -0.188231  0.005956  3.913853  0.007
C  C137  1  0.35295285  0.00032535  0.13205221  1  -0.048841  0.011868  -0.086711  -0.189067  0.005981  3.914222  0.007
C  C138  1  0.64739242  0.00017141  0.63189375  1  -0.05308  0.011836  -0.08681  -0.188345  0.005956  3.913367  0.007
C  C139  1  0.64704750  0.99967700  0.86796854  1  -0.048574  0.011869  -0.086833  -0.189328  0.005982  3.914524  0.007
C  C140  1  0.28365405  0.92436493  0.37363850  1  0.340252  -0.003463  0.088424  0.280912  -0.004613  4.042447  -0.004
C  C141  1  0.35955596  0.07579258  0.12646672  1  0.356088  -0.003488  0.088107  0.279882  -0.004636  4.042152  -0.004
C  C142  1  0.71633578  0.07562895  0.62633402  1  0.340912  -0.003464  0.088429  0.280698  -0.004613  4.0419  -0.004
C  C143  1  0.64045193  0.92420694  0.87354629  1  0.356094  -0.00349  0.088016  0.279797  -0.004637  4.04222  -0.004
C  C144  1  0.32943095  0.86619932  0.34845374  1  0.070612  0.013244  -0.078689  -0.16395  0.006469  3.867395  0.008
C  C145  1  0.46363254  0.13393236  0.15161270  1  0.019795  0.013338  -0.078256  -0.163339  0.006501  3.866426  0.008
C  C146  1  0.67056416  0.13379795  0.65152563  1  0.069479  0.013242  -0.07868  -0.163733  0.006467  3.867212  0.008
C  C147  1  0.53637200  0.86606942  0.84839623  1  0.021177  0.013341  -0.078177  -0.163356  0.006504  3.866459  0.008
C  C148  1  0.49422222  0.82033666  0.29311715  1  1.553137  0.003262  0.216307  0.599684  0.001282  4.158443  0.002
C  C149  1  0.67441936  0.17973532  0.20685249  1  1.545071  0.003505  0.216591  0.599503  0.001429  4.158351  0.002
C  C150  1  0.50579004  0.17965550  0.70688639  1  1.553386  0.003252  0.216122  0.599479  0.001276  4.158633  0.002
C  C151  1  0.32559782  0.82027384  0.79314090  1  1.545338  0.003497  0.216535  0.599498  0.001422  4.158406  0.002
C  C152  1  0.54876981  0.09771982  0.33999311  1  1.494937  -0.002735  0.215828  0.58526  -0.004289  4.171603  -0.003
C  C153  1  0.45112444  0.90236086  0.16005218  1  1.522815  -0.002707  0.215378  0.583866  -0.004245  4.172918  -0.003
C  C154  1  0.45122992  0.90227236  0.65998071  1  1.495152  -0.002732  0.216026  0.58524  -0.004286  4.17211  -0.003
C  C155  1  0.54888005  0.09764262  0.83996912  1  1.522876  -0.002708  0.215345  0.583691  -0.004245  4.172711  -0.003
C  C156  1  0.79622573  0.63639759  0.24100140  1  -0.010435  0.008647  -0.019522  -0.023803  0.004342  3.984897  0.007
C  C157  1  0.15974344  0.36366231  0.25896944  1  0.031929  0.008607  -0.019803  -0.02488  0.004351  3.986512  0.007
C  C158  1  0.20377405  0.36360363  0.75900984  1  -0.0105  0.008649  -0.019468  -0.023864  0.004342  3.984723  0.007
C  C159  1  0.84025036  0.63633948  0.74102439  1  0.032303  0.008606  -0.019872  -0.025123  0.00435  3.986822  0.007
C  C160  1  0.91781008  0.66399287  0.21817652  1  0.001731  0.010221  -0.082919  -0.120921  0.005281  3.92297  0.006
C  C161  1  0.25380505  0.33608093  0.28176331  1  0.015398  0.010202  -0.082722  -0.12074  0.005278  3.924564  0.006
C  C162  1  0.08219201  0.33601119  0.78183445  1  0.000938  0.010222  -0.082907  -0.120826  0.005281  3.922945  0.006
C  C163  1  0.74619091  0.66391803  0.71822749  1  0.014679  0.0102  -0.082703  -0.120771  0.005276  3.9247  0.006
C  C164  1  0.00639996  0.62672071  0.22999202  1  -0.048031  0.008382  -0.018509  -0.024001  0.004117  3.993365  0.006
C  C165  1  0.37965152  0.37330091  0.26987804  1  -0.051948  0.008359  -0.018977  -0.024456  0.004114  3.994708  0.006
C  C166  1  0.99359855  0.37328334  0.77001894  1  -0.047511  0.008381  -0.018583  -0.024094  0.004118  3.993406  0.006
C  C167  1  0.62034859  0.62669918  0.73011284  1  -0.051753  0.00836  -0.019057  -0.024364  0.004115  3.994385  0.006
C  C168  1  0.97345990  0.56163136  0.26352054  1  -0.03693  0.006525  -0.092454  -0.205247  0.003049  3.915966  0.004
C  C169  1  0.41173139  0.43837641  0.23633588  1  -0.057187  0.006475  -0.092319  -0.205984  0.00302  3.917568  0.004
C  C170  1  0.02653460  0.43836646  0.73648528  1  -0.036831  0.006522  -0.092366  -0.20508  0.003048  3.915908  0.004
C  C171  1  0.58826236  0.56162708  0.76365901  1  -0.05728  0.006473  -0.09219  -0.205745  0.00302  3.917231  0.004
C  C172  1  0.85094977  0.53256348  0.28486324  1  0.296227  -0.001263  0.087868  0.285267  -0.002202  4.033733  -0.002
C  C173  1  0.31827178  0.46745078  0.21502226  1  0.334014  -0.001307  0.087809  0.2852  -0.002192  4.035352  -0.002
C  C174  1  0.14904921  0.46743434  0.71514258  1  0.296364  -0.001264  0.087796  0.285159  -0.002204  4.033813  -0.002
C  C175  1  0.68172164  0.53255384  0.78497506  1  0.333731  -0.001307  0.087765  0.285088  -0.002192  4.035361  -0.002
C  C176  1  0.76334301  0.57083079  0.27377882  1  -0.02182  0.005793  -0.089594  -0.192028  0.002727  3.906768  0.004
C  C177  1  0.19238916  0.42917420  0.22611791  1  -0.086994  0.005917  -0.088484  -0.190109  0.002758  3.905176  0.004
C  C178  1  0.23665587  0.42917043  0.72622770  1  -0.021909  0.005798  -0.089491  -0.191644  0.00273  3.906441  0.004
C  C179  1  0.80760459  0.57082929  0.77387981  1  -0.087072  0.005916  -0.088444  -0.190036  0.002757  3.905024  0.004
C  C180  1  0.69805538  0.67417539  0.22832320  1  1.54993  -0.006295  0.218709  0.609594  -0.008552  4.133377  -0.005
C  C181  1  0.02386060  0.32592769  0.27179097  1  1.560154  -0.00623  0.218613  0.608869  -0.008463  4.132388  -0.005
C  C182  1  0.30194945  0.32582697  0.77168577  1  1.54992  -0.006293  0.218759  0.609605  -0.008547  4.13365  -0.005
C  C183  1  0.97613650  0.67407353  0.72820612  1  1.560022  -0.006229  0.218663  0.608944  -0.008462  4.132501  -0.005
C  C184  1  0.13809617  0.65554488  0.20739590  1  1.549382  -0.006199  0.223323  0.598939  -0.008161  4.13904  -0.004
C  C185  1  0.48258177  0.34450377  0.29246782  1  1.531625  -0.006203  0.224233  0.600102  -0.008227  4.135399  -0.004
C  C186  1  0.86190300  0.34445691  0.79261396  1  1.54956  -0.006198  0.223153  0.598571  -0.008154  4.139473  -0.004
C  C187  1  0.51741452  0.65549407  0.70752243  1  1.531589  -0.006204  0.224086  0.599769  -0.008228  4.135266  -0.004
C  C188  1  0.42898244  0.12862403  0.49764106  1  -0.021357  0.003456  -0.017332  -0.033339  0.001155  3.983693  0.003
C  C189  1  0.30027838  0.87121429  0.00232616  1  -0.003962  0.003437  -0.01738  -0.034942  0.001168  3.984745  0.003
C  C190  1  0.57102114  0.87136871  0.50233233  1  -0.02032  0.003461  -0.017082  -0.033027  0.001158  3.983533  0.003
C  C191  1  0.69972480  0.12879373  0.99769262  1  -0.003408  0.003438  -0.017516  -0.035267  0.001169  3.984422  0.003
C  C192  1  0.33911708  0.16225925  0.47924281  1  -0.044197  0.013846  -0.083288  -0.128527  0.007387  3.940931  0.009
C  C193  1  0.17675921  0.83761115  0.02073614  1  -0.071799  0.013788  -0.08307  -0.127484  0.007345  3.939859  0.008
C  C194  1  0.66088103  0.83772613  0.52073101  1  -0.044963  0.013845  -0.083467  -0.12909  0.007387  3.940799  0.009
C  C195  1  0.82323851  0.16240026  0.97928193  1  -0.071578  0.01379  -0.082965  -0.127156  0.007346  3.940036  0.008
C  C196  1  0.21267194  0.12833360  0.49252053  1  -0.023568  0.006477  -0.022629  -0.024139  0.00291  4.017552  0.005
C  C197  1  0.08425790  0.87159245  0.00750152  1  0.024219  0.00645  -0.022192  -0.02393  0.002922  4.017135  0.005
C  C198  1  0.78732005  0.87164668  0.50744728  1  -0.02401  0.006478  -0.022513  -0.02348  0.002911  4.016959  0.005
C  C199  1  0.91573619  0.12842066  0.99252092  1  0.023913  0.006453  -0.022261  -0.024316  0.002923  4.017778  0.005
C  C200  1  0.17674834  0.06143379  0.52321532  1  -0.053318  0.008839  -0.095184  -0.206803  0.004239  3.94706  0.006
C  C201  1  0.11532312  0.93852344  0.97684382  1  -0.060623  0.008877  -0.095385  -0.207362  0.004261  3.947107  0.006
C  C202  1  0.82323766  0.93854706  0.47674970  1  -0.053223  0.008845  -0.095476  -0.20776  0.004241  3.947108  0.006
C  C203  1  0.88467634  0.06148967  0.02317910  1  -0.059736  0.008879  -0.095442  -0.207592  0.004262  3.947541  0.006
C  C204  1  0.26531212  0.02689544  0.54081133  1  0.340141  -0.002461  0.08804  0.278775  -0.003461  4.046031  -0.002
C  C205  1  0.23841373  0.97302738  0.95921076  1  0.349996  -0.002425  0.08855  0.279952  -0.00343  4.043891  -0.002
C  C206  1  0.73467690  0.97308427  0.45915267  1  0.342032  -0.002462  0.08818  0.279243  -0.003459  4.045999  -0.002
C  C207  1  0.76158719  0.02698686  0.04081789  1  0.34978  -0.002423  0.088401  0.279925  -0.003429  4.044423  -0.002
C  C208  1  0.39195584  0.06109608  0.52812202  1  0.002281  0.008818  -0.079857  -0.171925  0.004218  3.871063  0.006
C  C209  1  0.33080289  0.93876486  0.97186552  1  -0.007919  0.008722  -0.080052  -0.171538  0.00416  3.869346  0.005
C  C210  1  0.60803397  0.93888703  0.47184835  1  0.000339  0.008809  -0.079882  -0.171771  0.004214  3.871326  0.006
C  C211  1  0.66920285  0.06124825  0.02816259  1  -0.010074  0.008725  -0.079844  -0.171193  0.004162  3.868975  0.005
C  C212  1  0.56611561  0.16187070  0.48465692  1  1.540718  0.000623  0.222909  0.599913  -0.001083  4.109849  0.002
C  C213  1  0.40422608  0.83799032  0.01529570  1  1.526744  0.000673  0.224263  0.602993  -0.001088  4.108504  0.002
C  C214  1  0.43387210  0.83812430  0.51532228  1  1.540701  0.000623  0.222885  0.59976  -0.001085  4.110096  0.002
C  C215  1  0.59576682  0.16201146  0.98472265  1  1.526893  0.00068  0.224196  0.602967  -0.001083  4.108059  0.002
C  C216  1  0.11271258  0.16258047  0.47686201  1  1.524705  -0.008317  0.215685  0.585667  -0.010862  4.162881  -0.006
C  C217  1  0.95007583  0.83736990  0.02314698  1  1.517721  -0.008345  0.216095  0.587374  -0.010913  4.161459  -0.006
C  C218  1  0.88728134  0.83740547  0.52310384  1  1.527272  -0.008319  0.21558  0.58519  -0.010859  4.163485  -0.006
C  C219  1  0.04992680  0.16264773  0.97687860  1  1.517951  -0.008349  0.216049  0.58735  -0.010912  4.161436  -0.006
C  C220  1  0.12898855  0.63170252  0.41637921  1  -0.06972  0.006938  -0.017837  -0.016566  0.003206  3.992391  0.005
C  C221  1  0.49705280  0.36823518  0.08369381  1  -0.01703  0.006893  -0.017619  -0.017775  0.003205  3.995227  0.005
C  C222  1  0.87101325  0.36829021  0.58361116  1  -0.068742  0.006939  -0.017911  -0.016652  0.003206  3.992454  0.005
C  C223  1  0.50294868  0.63176944  0.91632663  1  -0.010985  0.006891  -0.017633  -0.018137  0.003207  3.995058  0.005
C  C224  1  0.05842261  0.55636090  0.42221617  1  -0.040149  0.01312  -0.08551  -0.12761  0.006798  3.953074  0.008
C  C225  1  0.50164036  0.44354670  0.07784736  1  -0.101425  0.013203  -0.085531  -0.127314  0.006794  3.953291  0.008
C  C226  1  0.94157504  0.44363070  0.57777601  1  -0.040256  0.013116  -0.085461  -0.127529  0.006796  3.953478  0.008
C  C227  1  0.49835730  0.55645564  0.92217292  1  -0.100647  0.013203  -0.085564  -0.127103  0.006793  3.952926  0.008
C  C228  1  0.10800747  0.49834995  0.40150681  1  0.026664  0.002094  -0.023678  -0.037159  0.000373  4.029726  0.001
C  C229  1  0.60924940  0.50160006  0.09852515  1  0.033704  0.002078  -0.023614  -0.03651  0.000366  4.02884  0.001
C  C230  1  0.89199117  0.50163825  0.59849079  1  0.026636  0.002095  -0.02366  -0.037097  0.000373  4.029816  0.001
C  C231  1  0.39075298  0.49840455  0.90149010  1  0.032968  0.00208  -0.023562  -0.036256  0.000367  4.028276  0.001
C  C232  1  0.22604875  0.51505468  0.37374857  1  -0.07882  0.010617  -0.087876  -0.191008  0.005226  3.9171  0.007
C  C233  1  0.71074579  0.48496375  0.12624657  1  -0.007321  0.010598  -0.088196  -0.191952  0.005235  3.916274  0.007
C  C234  1  0.77395503  0.48494201  0.62625056  1  -0.078779  0.010613  -0.087976  -0.191077  0.005224  3.917416  0.007
C  C235  1  0.28926022  0.51503917  0.87376668  1  -0.007355  0.0106  -0.088229  -0.192278  0.005235  3.916469  0.007
C  C236  1  0.29349456  0.59001501  0.36569005  1  0.339193  -0.002535  0.08527  0.270054  -0.003482  4.059104  -0.003
C  C237  1  0.70335909  0.41002650  0.13431784  1  0.228383  -0.002523  0.085237  0.270991  -0.003491  4.056633  -0.003
C  C238  1  0.70651068  0.40998282  0.63430822  1  0.339099  -0.002533  0.08532  0.270118  -0.003481  4.0592  -0.003
C  C239  1  0.29664216  0.58997586  0.86569112  1  0.227824  -0.002523  0.085195  0.270989  -0.003491  4.056387  -0.003
C  C240  1  0.24600217  0.64859783  0.38808969  1  -0.012549  0.010163  -0.080537  -0.173583  0.004856  3.884078  0.006
C  C241  1  0.59730876  0.35139915  0.11191738  1  0.045553  0.010163  -0.08083  -0.174541  0.004873  3.883891  0.006
C  C242  1  0.75399775  0.35139830  0.61190421  1  -0.012279  0.010162  -0.08061  -0.173815  0.004856  3.883845  0.006
C  C243  1  0.40269102  0.64860206  0.88809717  1  0.045612  0.010165  -0.080641  -0.174302  0.004874  3.883754  0.006
C  C244  1  0.08294959  0.69428951  0.44443636  1  1.54668  0.002741  0.212921  0.583165  0.001872  4.177385  0.002
C  C245  1  0.38858344  0.30561725  0.05558103  1  1.536487  0.002675  0.213002  0.582742  0.001831  4.179622  0.002
C  C246  1  0.91703699  0.30570323  0.55554647  1  1.544931  0.002733  0.213044  0.583338  0.001865  4.177118  0.002
C  C247  1  0.61141526  0.69439076  0.94444388  1  1.530519  0.002684  0.213137  0.583324  0.00183  4.179666  0.002
C  C248  1  0.03800591  0.41801353  0.41007547  1  1.520191  0.00011  0.214187  0.577086  -0.000264  4.180898  0.0
C  C249  1  0.61955271  0.58193494  0.08994102  1  1.541851  0.000136  0.213691  0.576114  -0.000234  4.177226  0.0
C  C250  1  0.96199678  0.58197920  0.58991820  1  1.519673  0.000117  0.214127  0.576905  -0.000265  4.180394  0.0
C  C251  1  0.38045354  0.41807024  0.91007333  1  1.542111  0.000138  0.213602  0.575919  -0.000232  4.177718  0.0
N  N252  1  0.17133527  0.90677365  0.40819478  1  -1.156634  0.047881  -0.590106  -0.60182  0.024856  3.437379  0.039
N  N253  1  0.26473639  0.09334083  0.09191609  1  -1.183809  0.047962  -0.590324  -0.602792  0.024903  3.436731  0.039
N  N254  1  0.82865715  0.09322363  0.59177703  1  -1.156027  0.047871  -0.590084  -0.601621  0.024856  3.437368  0.039
N  N255  1  0.73525807  0.90665869  0.90810400  1  -1.184603  0.047954  -0.590153  -0.602388  0.0249  3.43658  0.039
N  N256  1  0.81582481  0.46453022  0.31553113  1  -1.207892  0.049442  -0.597157  -0.614044  0.025985  3.403578  0.041
N  N257  1  0.35119660  0.53551227  0.18440190  1  -1.205466  0.049411  -0.597215  -0.614949  0.025945  3.404409  0.041
N  N258  1  0.18416917  0.53546478  0.68447119  1  -1.20726  0.049439  -0.597172  -0.614231  0.025984  3.403728  0.041
N  N259  1  0.64879979  0.46449292  0.81559688  1  -1.205355  0.049411  -0.597248  -0.615082  0.025944  3.404523  0.041
N  N260  1  0.22331713  0.95687438  0.56824786  1  -1.212232  0.050967  -0.599365  -0.60979  0.026959  3.436933  0.04
N  N261  1  0.26642567  0.04307004  0.93179578  1  -1.200546  0.050831  -0.599183  -0.609866  0.026912  3.435013  0.04
N  N262  1  0.77667240  0.04310817  0.43172294  1  -1.211778  0.050953  -0.599536  -0.610258  0.026955  3.437323  0.04
N  N263  1  0.73357997  0.95694647  0.06823208  1  -1.198944  0.050813  -0.599011  -0.609727  0.026907  3.435333  0.04
N  N264  1  0.40724494  0.60686600  0.33213936  1  -1.20717  0.05252  -0.592564  -0.601784  0.028457  3.443048  0.039
N  N265  1  0.80039119  0.39325606  0.16784172  1  -1.193646  0.05255  -0.592809  -0.602044  0.028462  3.441006  0.039
N  N266  1  0.59276214  0.39313012  0.66786304  1  -1.207419  0.052527  -0.592478  -0.601627  0.028457  3.442979  0.039
N  N267  1  0.19961755  0.60674516  0.83216103  1  -1.193646  0.052543  -0.592788  -0.601941  0.028457  3.440931  0.039
O  O268  1  0.41971440  0.75327363  0.29279948  1  -1.167967  0.074348  -0.306015  -0.566157  0.03753  2.384655  0.067
O  O269  1  0.66700048  0.24679717  0.20710521  1  -1.159313  0.074341  -0.305938  -0.566045  0.037501  2.384319  0.067
O  O270  1  0.58028943  0.24672136  0.70720236  1  -1.168163  0.074352  -0.305947  -0.566075  0.03753  2.384657  0.067
O  O271  1  0.33301166  0.75321085  0.79289613  1  -1.159517  0.074342  -0.306  -0.566111  0.037498  2.383958  0.067
O  O272  1  0.60418094  0.83712825  0.26976260  1  -1.1731  0.063528  -0.333384  -0.608334  0.0323  2.346052  0.052
O  O273  1  0.76760980  0.16297188  0.23022598  1  -1.180453  0.063462  -0.334108  -0.609311  0.032234  2.34723  0.052
O  O274  1  0.39583673  0.16286221  0.73025073  1  -1.172931  0.063521  -0.333306  -0.608405  0.032293  2.346076  0.052
O  O275  1  0.23242689  0.83704408  0.76975610  1  -1.180127  0.063444  -0.333995  -0.609237  0.032236  2.347536  0.052
O  O276  1  0.66757715  0.10976699  0.34107153  1  -1.141596  0.057519  -0.309873  -0.572054  0.030028  2.434074  0.05
O  O277  1  0.55785448  0.89029398  0.15886719  1  -1.169422  0.057531  -0.309361  -0.570979  0.030012  2.432647  0.05
O  O278  1  0.33242738  0.89022405  0.65890457  1  -1.14177  0.057523  -0.309927  -0.571977  0.030031  2.434484  0.05
O  O279  1  0.44215294  0.10971176  0.84115805  1  -1.169229  0.057528  -0.309247  -0.570895  0.030009  2.432437  0.05
O  O280  1  0.49401768  0.14882132  0.33978631  1  -1.136097  0.077612  -0.309741  -0.555597  0.039394  2.337686  0.065
O  O281  1  0.34525568  0.85126273  0.16025994  1  -1.139359  0.077614  -0.309911  -0.555219  0.039432  2.338442  0.065
O  O282  1  0.50597814  0.85117198  0.66019939  1  -1.135993  0.077606  -0.309906  -0.555736  0.039393  2.337822  0.065
O  O283  1  0.65475367  0.14873792  0.83975928  1  -1.139476  0.077602  -0.309902  -0.555115  0.039423  2.338276  0.065
O  O284  1  0.58681983  0.64090428  0.24527312  1  -1.17033  0.06168  -0.316625  -0.576983  0.032124  2.366462  0.054
O  O285  1  0.94586851  0.35921391  0.25489809  1  -1.174776  0.061707  -0.316644  -0.576267  0.032121  2.365989  0.054
O  O286  1  0.41318117  0.35909581  0.75473050  1  -1.170639  0.061675  -0.3167  -0.577114  0.032122  2.366618  0.054
O  O287  1  0.05412505  0.64078561  0.74510360  1  -1.174628  0.061697  -0.316615  -0.576159  0.032115  2.365905  0.054
O  O288  1  0.73152240  0.73570962  0.20075641  1  -1.180987  0.073652  -0.313081  -0.610603  0.039208  2.420717  0.063
O  O289  1  0.99589226  0.26440983  0.29938400  1  -1.181118  0.073705  -0.312817  -0.609969  0.039223  2.418667  0.063
O  O290  1  0.26848714  0.26429500  0.79925554  1  -1.180434  0.073651  -0.312995  -0.610453  0.039203  2.420718  0.063
O  O291  1  0.00410992  0.73559083  0.70061164  1  -1.181107  0.073685  -0.312868  -0.610068  0.039217  2.418687  0.063
O  O292  1  0.15906265  0.70173654  0.16410260  1  -1.11542  0.092374  -0.309758  -0.54231  0.047323  2.34975  0.073
O  O293  1  0.45744818  0.29836575  0.33580552  1  -1.116036  0.09235  -0.310084  -0.542961  0.047232  2.34898  0.073
O  O294  1  0.84093996  0.29827035  0.83590856  1  -1.115764  0.092369  -0.309643  -0.542134  0.047314  2.349905  0.073
O  O295  1  0.54254071  0.70162982  0.66418315  1  -1.116169  0.092353  -0.309967  -0.542816  0.047235  2.348924  0.073
O  O296  1  0.21991236  0.63080485  0.23259526  1  -1.168287  0.07479  -0.308884  -0.561982  0.03919  2.424344  0.063
O  O297  1  0.58908745  0.36920064  0.26723499  1  -1.162541  0.074774  -0.30923  -0.561935  0.039134  2.419972  0.063
O  O298  1  0.78008893  0.36919581  0.76741264  1  -1.1683  0.0748  -0.30887  -0.56182  0.039191  2.424353  0.063
O  O299  1  0.41091294  0.63080002  0.73276112  1  -1.162396  0.074778  -0.309195  -0.561838  0.039135  2.419884  0.063
O  O300  1  0.63799571  0.12523222  0.50165346  1  -1.146891  0.075069  -0.294122  -0.515579  0.039292  2.38838  0.064
O  O301  1  0.51269350  0.87461674  0.99824402  1  -1.143654  0.075054  -0.295021  -0.517404  0.039289  2.388894  0.064
O  O302  1  0.36198908  0.87476052  0.49832276  1  -1.147118  0.07508  -0.29405  -0.515361  0.039293  2.388772  0.064
O  O303  1  0.48730176  0.12538617  0.00178007  1  -1.143639  0.075035  -0.294835  -0.517185  0.039278  2.388704  0.064
O  O304  1  0.60638344  0.22486435  0.45820866  1  -1.174497  0.067063  -0.330128  -0.608548  0.033656  2.391237  0.051
O  O305  1  0.38162239  0.77505957  0.04182102  1  -1.174198  0.067066  -0.330418  -0.609309  0.033675  2.3925  0.051
O  O306  1  0.39360494  0.77513914  0.54178669  1  -1.174368  0.067069  -0.330233  -0.608762  0.033663  2.391542  0.051
O  O307  1  0.61837263  0.22494108  0.95819113  1  -1.174167  0.067083  -0.330487  -0.609349  0.033682  2.39239  0.051
O  O308  1  0.13876167  0.21634473  0.43999548  1  -1.122267  0.094006  -0.308617  -0.527861  0.04755  2.312925  0.075
O  O309  1  0.92232510  0.78364239  0.06004044  1  -1.128357  0.094279  -0.309416  -0.529417  0.047532  2.313149  0.075
O  O310  1  0.86123721  0.78364575  0.55997068  1  -1.123991  0.093997  -0.308491  -0.527466  0.047548  2.313377  0.075
O  O311  1  0.07767140  0.21638091  0.93998884  1  -1.128257  0.094293  -0.309317  -0.529352  0.047539  2.312808  0.075
O  O312  1  0.00655024  0.13645541  0.50236971  1  -1.182214  0.072252  -0.31739  -0.587392  0.038031  2.428969  0.062
O  O313  1  0.87005413  0.86349540  0.99758266  1  -1.179016  0.072393  -0.317434  -0.5881  0.038007  2.428332  0.062
O  O314  1  0.99344614  0.86353903  0.49760144  1  -1.183202  0.072248  -0.317489  -0.587496  0.038025  2.429334  0.062
O  O315  1  0.12993741  0.13651261  0.00243943  1  -1.179351  0.07239  -0.317524  -0.588023  0.038005  2.428474  0.062
O  O316  1  0.15261247  0.76201565  0.44058132  1  -1.169146  0.073626  -0.309807  -0.561686  0.037793  2.412285  0.064
O  O317  1  0.39070566  0.23792878  0.05940317  1  -1.156614  0.073709  -0.310345  -0.561416  0.037852  2.413158  0.064
O  O318  1  0.84737114  0.23797652  0.55938732  1  -1.168888  0.073622  -0.309926  -0.5618  0.037789  2.412108  0.064
O  O319  1  0.60927466  0.76207469  0.94062190  1  -1.156006  0.073687  -0.310267  -0.561506  0.037844  2.413253  0.064
O  O320  1  0.97897620  0.67577684  0.47335725  1  -1.143642  0.088824  -0.322151  -0.561976  0.044159  2.352131  0.071
O  O321  1  0.30307043  0.32405559  0.02660295  1  -1.141496  0.088842  -0.321776  -0.561219  0.044064  2.351449  0.071
O  O322  1  0.02101664  0.32421590  0.52662746  1  -1.143408  0.088832  -0.322266  -0.56214  0.044167  2.352005  0.071
O  O323  1  0.69692973  0.67595356  0.97342111  1  -1.14187  0.088821  -0.321884  -0.561543  0.044065  2.351852  0.071
O  O324  1  0.91952901  0.39798822  0.41721200  1  -1.202963  0.012856  -0.313983  -0.58094  0.005819  2.245949  0.009
O  O325  1  0.52109425  0.60194443  0.08273112  1  -1.208432  0.012827  -0.313908  -0.580918  0.005815  2.24512  0.009
O  O326  1  0.08047840  0.60200677  0.58278419  1  -1.202562  0.012852  -0.313964  -0.580848  0.00582  2.245856  0.009
O  O327  1  0.47891642  0.39806246  0.91727579  1  -1.208175  0.012827  -0.313827  -0.580774  0.005814  2.245154  0.009
O  O328  1  0.10450383  0.37254263  0.40900131  1  -1.106705  0.089492  -0.307157  -0.524337  0.045364  2.383033  0.068
O  O329  1  0.73152387  0.62743590  0.09113218  1  -1.12277  0.089436  -0.306937  -0.524246  0.045256  2.380564  0.068
O  O330  1  0.89549556  0.62745067  0.59098910  1  -1.106495  0.089487  -0.307133  -0.524284  0.045361  2.382956  0.068
O  O331  1  0.26848323  0.37257098  0.90888794  1  -1.123201  0.089431  -0.30687  -0.524146  0.045253  2.38078  0.068
O  O332  1  0.45977597  0.71078999  0.16023800  1  -1.19722  0.223255  -0.569968  -0.924043  0.120849  2.52971  0.194
O  O333  1  0.74904395  0.28927321  0.33974194  1  -1.198919  0.223561  -0.570414  -0.925347  0.120878  2.531085  0.194
O  O334  1  0.54023112  0.28921689  0.83976892  1  -1.196896  0.223251  -0.569985  -0.924049  0.120849  2.529949  0.194
O  O335  1  0.25096039  0.71072463  0.66024925  1  -1.199049  0.223559  -0.570397  -0.925309  0.12088  2.531052  0.194
O  O336  1  0.64266317  0.78918106  0.07997615  1  -1.173411  0.215492  -0.565321  -0.897132  0.117911  2.442868  0.18
O  O337  1  0.85345811  0.21092852  0.42011593  1  -1.187054  0.215252  -0.565306  -0.897844  0.118037  2.445664  0.18
O  O338  1  0.35734048  0.21083148  0.92003917  1  -1.173311  0.21549  -0.565335  -0.897074  0.11791  2.442829  0.18
O  O339  1  0.14653525  0.78906705  0.57986615  1  -1.18717  0.215288  -0.565315  -0.897776  0.118029  2.445312  0.18
O  O340  1  0.81256885  0.88956196  0.19719658  1  -1.204977  0.042794  -0.564707  -0.733795  0.022019  1.978928  0.034
O  O341  1  0.92305066  0.11043317  0.30292506  1  -1.207278  0.042714  -0.564553  -0.733306  0.021936  1.977675  0.034
O  O342  1  0.18744047  0.11045115  0.80281501  1  -1.205133  0.042787  -0.564621  -0.733542  0.022016  1.978899  0.034
O  O343  1  0.07694747  0.88956297  0.69706035  1  -1.207494  0.042706  -0.564434  -0.733167  0.021933  1.97782  0.034
O  O344  1  0.66378710  0.38624966  0.42949703  1  -1.201765  0.028885  -0.568016  -0.753101  0.013843  1.997361  0.023
O  O345  1  0.27709280  0.61373607  0.07048157  1  -1.246545  0.028907  -0.568335  -0.753713  0.013846  1.996328  0.023
O  O346  1  0.33621244  0.61374930  0.57049613  1  -1.201618  0.02889  -0.567948  -0.753116  0.013846  1.997124  0.023
O  O347  1  0.72291382  0.38626629  0.92952834  1  -1.245992  0.028912  -0.568274  -0.753676  0.013847  1.996585  0.023
