# generated using pymatgen
data_CdH30C26(N2O)4
_symmetry_space_group_name_H-M   'P 1'
_cell_length_a   20.56619826
_cell_length_b   20.56620328
_cell_length_c   20.67535829
_cell_angle_alpha   60.17444153
_cell_angle_beta   60.17444712
_cell_angle_gamma   59.99999036
_symmetry_Int_Tables_number   1
_chemical_formula_structural   CdH30C26(N2O)4
_chemical_formula_sum   'Cd6 H180 C156 N48 O24'
_cell_volume   6199.92240099
_cell_formula_units_Z   6
loop_
 _symmetry_equiv_pos_site_id
 _symmetry_equiv_pos_as_xyz
  1  'x, y, z'
loop_
 _atom_site_type_symbol
 _atom_site_label
 _atom_site_symmetry_multiplicity
 _atom_site_fract_x
 _atom_site_fract_y
 _atom_site_fract_z
 _atom_site_occupancy
 _atom_site_pbe_bader_charge
 _atom_site_pbe_bader_spin_density
 _atom_site_pbe_cm5_charge
 _atom_site_pbe_ddec_charge
 _atom_site_pbe_ddec_spin_density
 _atom_site_pbe_ddec_sum_bond_order
 _atom_site_pbe_magmom
Cd  Cd0  1  0.73205879  0.25000039  0.24999874  1  1.263342  0  0.796929  0.786129  0  2.338592  0
Cd  Cd1  1  0.76794156  0.73205935  0.24999844  1  1.264472  0  0.79694  0.786131  0  2.338559  0
Cd  Cd2  1  0.25000002  0.76794177  0.24999890  1  1.263332  0  0.796933  0.78613  0  2.338569  0
Cd  Cd3  1  0.26794108  0.74999999  0.75000101  1  1.263331  0  0.796927  0.78612  0  2.338592  0
Cd  Cd4  1  0.23205831  0.26794047  0.75000159  1  1.264489  0  0.796928  0.786128  0  2.338572  0
Cd  Cd5  1  0.74999985  0.23205805  0.75000113  1  1.263337  0  0.796929  0.786131  0  2.338552  0
H  H6  1  0.60919384  0.36910077  0.16541546  1  0.543482  0  0.305718  0.269363  0  1.026403  0
H  H7  1  0.85628988  0.60919429  0.16541484  1  0.570665  0  0.305695  0.269308  0  1.026435  0
H  H8  1  0.36910107  0.85629019  0.16541447  1  0.570404  0  0.305707  0.269329  0  1.026453  0
H  H9  1  0.89080532  0.64370965  0.33458579  1  0.570672  0  0.305688  0.269292  0  1.026445  0
H  H10  1  0.64370985  0.13089902  0.33458552  1  0.570377  0  0.305661  0.269242  0  1.026514  0
H  H11  1  0.13089899  0.89080575  0.33458539  1  0.54348  0  0.305696  0.269317  0  1.026414  0
H  H12  1  0.39080544  0.63089925  0.83458477  1  0.543472  0  0.305719  0.269351  0  1.026406  0
H  H13  1  0.14370999  0.39080608  0.83458491  1  0.570664  0  0.305695  0.269306  0  1.026434  0
H  H14  1  0.63089880  0.14371019  0.83458480  1  0.570396  0  0.305715  0.269353  0  1.02643  0
H  H15  1  0.10919455  0.35629017  0.66541472  1  0.570672  0  0.305673  0.269274  0  1.026445  0
H  H16  1  0.35629062  0.86910059  0.66541431  1  0.57038  0  0.305694  0.269283  0  1.026457  0
H  H17  1  0.86910089  0.10919463  0.66541436  1  0.543485  0  0.305695  0.269302  0  1.026423  0
H  H18  1  0.85739140  0.27405464  0.77434495  1  0.511314  0  0.329149  0.278425  0  0.955359  0
H  H19  1  0.09420924  0.85739143  0.77434506  1  0.513041  0  0.329145  0.278442  0  0.955345  0
H  H20  1  0.27405407  0.09420972  0.77434526  1  0.50776  0  0.32915  0.278456  0  0.95526  0
H  H21  1  0.64260952  0.40578983  0.72565411  1  0.513055  0  0.329126  0.278423  0  0.955376  0
H  H22  1  0.40578957  0.22594662  0.72565434  1  0.507762  0  0.329143  0.278445  0  0.955289  0
H  H23  1  0.22594649  0.64260922  0.72565437  1  0.511334  0  0.329135  0.278424  0  0.955367  0
H  H24  1  0.14260847  0.72594573  0.22565481  1  0.511296  0  0.329152  0.278462  0  0.955326  0
H  H25  1  0.90579063  0.14260839  0.22565448  1  0.513041  0  0.329154  0.278467  0  0.955297  0
H  H26  1  0.72594640  0.90578989  0.22565506  1  0.507727  0  0.329148  0.278451  0  0.955277  0
H  H27  1  0.35739095  0.59420979  0.27434572  1  0.513051  0  0.329146  0.278429  0  0.955364  0
H  H28  1  0.59420971  0.77405340  0.27434588  1  0.507758  0  0.329137  0.278438  0  0.955301  0
H  H29  1  0.77405398  0.35739096  0.27434519  1  0.511317  0  0.32914  0.278441  0  0.95533  0
H  H30  1  0.59297522  0.27273598  0.01313792  1  0.041643  0  0.091188  0.126796  0  1.010231  0
H  H31  1  0.12115147  0.59297425  0.01313772  1  0.043959  0  0.091177  0.126778  0  1.010271  0
H  H32  1  0.27273546  0.12115156  0.01313841  1  0.053329  0  0.091165  0.126748  0  1.010281  0
H  H33  1  0.90702569  0.37884880  0.48686176  1  0.043959  0  0.091176  0.126781  0  1.010252  0
H  H34  1  0.37884849  0.22726403  0.48686176  1  0.053322  0  0.091174  0.126767  0  1.010268  0
H  H35  1  0.22726453  0.90702527  0.48686114  1  0.04163  0  0.091177  0.126771  0  1.010232  0
H  H36  1  0.40702525  0.72726419  0.98686164  1  0.041646  0  0.091169  0.12676  0  1.010266  0
H  H37  1  0.87884899  0.40702480  0.98686239  1  0.043976  0  0.091172  0.126768  0  1.010261  0
H  H38  1  0.72726501  0.87884861  0.98686163  1  0.053319  0  0.091172  0.126753  0  1.010262  0
H  H39  1  0.09297477  0.62115082  0.51313808  1  0.043966  0  0.091166  0.126754  0  1.010269  0
H  H40  1  0.62115138  0.77273578  0.51313827  1  0.053332  0  0.091167  0.126757  0  1.010268  0
H  H41  1  0.77273594  0.09297434  0.51313869  1  0.041637  0  0.091168  0.126757  0  1.010262  0
H  H42  1  0.62457225  0.21223135  0.95741142  1  0.057807  0  0.094944  0.135794  0  1.014652  0
H  H43  1  0.20578561  0.62457172  0.95741148  1  0.0597  0  0.094934  0.135786  0  1.014665  0
H  H44  1  0.21223081  0.20578540  0.95741148  1  0.065307  0  0.094937  0.13577  0  1.01469  0
H  H45  1  0.87542865  0.29421410  0.54258817  1  0.059704  0  0.094948  0.135813  0  1.014633  0
H  H46  1  0.29421496  0.28776998  0.54258752  1  0.065602  0  0.094942  0.13579  0  1.01467  0
H  H47  1  0.28776919  0.87542794  0.54258790  1  0.057799  0  0.094947  0.135788  0  1.014667  0
H  H48  1  0.37542822  0.78776827  0.04258842  1  0.057824  0  0.094943  0.135783  0  1.014679  0
H  H49  1  0.79421485  0.37542789  0.04258884  1  0.059665  0  0.094942  0.135785  0  1.014675  0
H  H50  1  0.78776966  0.79421478  0.04258808  1  0.065304  0  0.094949  0.135797  0  1.014659  0
H  H51  1  0.12457241  0.70578475  0.45741174  1  0.059669  0  0.094942  0.135779  0  1.014672  0
H  H52  1  0.70578491  0.71223095  0.45741147  1  0.065313  0  0.094941  0.135778  0  1.014685  0
H  H53  1  0.71223068  0.12457244  0.45741185  1  0.057798  0  0.09494  0.135782  0  1.014677  0
H  H54  1  0.57819591  0.31585070  0.91993387  1  0.047524  0  0.095659  0.142963  0  0.99373  0
H  H55  1  0.18601942  0.57819565  0.91993343  1  0.067646  0  0.095643  0.142954  0  0.993726  0
H  H56  1  0.31585083  0.18602044  0.91993366  1  0.037696  0  0.095645  0.142942  0  0.993729  0
H  H57  1  0.92180500  0.31398022  0.58006564  1  0.067602  0  0.095642  0.142942  0  0.993742  0
H  H58  1  0.31397936  0.18414970  0.58006576  1  0.037707  0  0.09564  0.142945  0  0.993735  0
H  H59  1  0.18414918  0.92180551  0.58006516  1  0.047499  0  0.09565  0.142953  0  0.993717  0
H  H60  1  0.42180515  0.68414759  0.08006633  1  0.0475  0  0.095648  0.142948  0  0.993712  0
H  H61  1  0.81398045  0.42180417  0.08006660  1  0.06757  0  0.095655  0.142961  0  0.993708  0
H  H62  1  0.68414964  0.81397973  0.08006638  1  0.037713  0  0.095625  0.142907  0  0.993742  0
H  H63  1  0.07819487  0.68601960  0.41993439  1  0.067605  0  0.095645  0.142944  0  0.993731  0
H  H64  1  0.68601992  0.81585087  0.41993419  1  0.037695  0  0.095644  0.142943  0  0.993732  0
H  H65  1  0.81585070  0.07819543  0.41993432  1  0.04752  0  0.095656  0.142971  0  0.993719  0
H  H66  1  0.87393401  0.37586452  0.84253706  1  0.071636  0  0.100095  0.141897  0  0.972614  0
H  H67  1  0.90766461  0.87393416  0.84253670  1  0.04273  0  0.100092  0.141883  0  0.972628  0
H  H68  1  0.37586418  0.90766517  0.84253617  1  0.035106  0  0.100094  0.141897  0  0.972642  0
H  H69  1  0.62606634  0.59233410  0.65746448  1  0.042493  0  0.100093  0.141888  0  0.972612  0
H  H70  1  0.59233515  0.12413487  0.65746334  1  0.035199  0  0.100081  0.141883  0  0.972647  0
H  H71  1  0.12413527  0.62606634  0.65746402  1  0.071628  0  0.100099  0.141898  0  0.972607  0
H  H72  1  0.12606586  0.62413530  0.15746297  1  0.071637  0  0.1001  0.141896  0  0.972604  0
H  H73  1  0.09233526  0.12606566  0.15746333  1  0.042739  0  0.100089  0.141876  0  0.972647  0
H  H74  1  0.62413569  0.09233521  0.15746261  1  0.03523  0  0.1001  0.141888  0  0.972655  0
H  H75  1  0.37393353  0.40766516  0.34253631  1  0.042708  0  0.100105  0.141911  0  0.972585  0
H  H76  1  0.40766472  0.87586439  0.34253648  1  0.035207  0  0.100102  0.141896  0  0.972636  0
H  H77  1  0.87586520  0.37393328  0.34253630  1  0.07162  0  0.100097  0.141899  0  0.972604  0
H  H78  1  0.93684196  0.27733479  0.84602583  1  0.057554  0  0.097697  0.144303  0  1.011856  0
H  H79  1  0.93979845  0.93684133  0.84602585  1  0.053315  0  0.097701  0.144318  0  1.011851  0
H  H80  1  0.27733437  0.93979871  0.84602547  1  0.049723  0  0.097703  0.144333  0  1.011769  0
H  H81  1  0.56315897  0.56020052  0.65397481  1  0.053411  0  0.097707  0.144331  0  1.011848  0
H  H82  1  0.56020073  0.22266483  0.65397487  1  0.04969  0  0.097717  0.14435  0  1.011797  0
H  H83  1  0.22266567  0.56315821  0.65397453  1  0.05755  0  0.097708  0.144335  0  1.011806  0
H  H84  1  0.06315791  0.72266503  0.15397372  1  0.057562  0  0.097707  0.144311  0  1.011841  0
H  H85  1  0.06020143  0.06315792  0.15397446  1  0.053291  0  0.097721  0.144351  0  1.011815  0
H  H86  1  0.72266550  0.06020166  0.15397477  1  0.049588  0  0.097709  0.14433  0  1.011805  0
H  H87  1  0.43684150  0.43979854  0.34602530  1  0.053339  0  0.097698  0.144315  0  1.011874  0
H  H88  1  0.43979914  0.77733387  0.34602523  1  0.049702  0  0.097714  0.144347  0  1.011783  0
H  H89  1  0.77733480  0.43684196  0.34602551  1  0.05756  0  0.097706  0.144327  0  1.011838  0
H  H90  1  0.87676965  0.30069027  0.93519948  1  0.058995  0  0.100117  0.148059  0  1.002598  0
H  H91  1  0.88734025  0.87677041  0.93519893  1  0.090872  0  0.100123  0.148071  0  1.002588  0
H  H92  1  0.30069020  0.88734060  0.93519889  1  0.065154  0  0.10012  0.148077  0  1.002604  0
H  H93  1  0.62322950  0.61265893  0.56480230  1  0.090924  0  0.100122  0.14806  0  1.00263  0
H  H94  1  0.61265952  0.19931017  0.56480104  1  0.065157  0  0.100103  0.148035  0  1.002624  0
H  H95  1  0.19930865  0.62323049  0.56480213  1  0.059  0  0.100112  0.148041  0  1.002635  0
H  H96  1  0.12323022  0.69930954  0.06480055  1  0.05899  0  0.100116  0.148048  0  1.002599  0
H  H97  1  0.11265963  0.12322940  0.06480110  1  0.090925  0  0.100132  0.148101  0  1.002566  0
H  H98  1  0.69931086  0.11265882  0.06480075  1  0.06515  0  0.100132  0.148094  0  1.00256  0
H  H99  1  0.37677037  0.38734088  0.43519821  1  0.090946  0  0.100115  0.148067  0  1.002634  0
H  H100  1  0.38734095  0.80068945  0.43519831  1  0.065161  0  0.100112  0.148074  0  1.002574  0
H  H101  1  0.80069062  0.37677008  0.43519830  1  0.058999  0  0.100113  0.148061  0  1.002624  0
H  H102  1  0.55275815  0.46843610  0.05155436  1  0.032059  0  0.101493  0.142491  0  0.98628  0
H  H103  1  0.92725029  0.55275871  0.05155428  1  0.039762  0  0.10148  0.142475  0  0.986282  0
H  H104  1  0.46843658  0.92725072  0.05155391  1  0.07544  0  0.101503  0.142517  0  0.986267  0
H  H105  1  0.94724161  0.57274914  0.44844655  1  0.039766  0  0.101477  0.142464  0  0.986275  0
H  H106  1  0.57274883  0.03156268  0.44844674  1  0.075455  0  0.101491  0.142498  0  0.986263  0
H  H107  1  0.03156290  0.94724197  0.44844610  1  0.032045  0  0.101509  0.142516  0  0.986256  0
H  H108  1  0.44724113  0.53156392  0.94844538  1  0.032047  0  0.101467  0.142465  0  0.986275  0
H  H109  1  0.07274959  0.44724167  0.94844547  1  0.039758  0  0.101502  0.142507  0  0.98623  0
H  H110  1  0.53156389  0.07274890  0.94844544  1  0.075463  0  0.101499  0.142501  0  0.986285  0
H  H111  1  0.05275826  0.42725067  0.55155396  1  0.039755  0  0.101483  0.142469  0  0.986294  0
H  H112  1  0.42725163  0.96843637  0.55155337  1  0.075468  0  0.101467  0.142456  0  0.986319  0
H  H113  1  0.96843698  0.05275841  0.55155365  1  0.032057  0  0.101493  0.142499  0  0.986252  0
H  H114  1  0.53922395  0.40970491  0.02191132  1  0.049281  0  0.096554  0.132514  0  0.998688  0
H  H115  1  0.02916005  0.53922361  0.02191106  1  0.037964  0  0.096547  0.132494  0  0.998719  0
H  H116  1  0.40970536  0.02916000  0.02191073  1  0.044527  0  0.096549  0.132507  0  0.998707  0
H  H117  1  0.96077639  0.47084036  0.47808928  1  0.037979  0  0.096552  0.132501  0  0.998727  0
H  H118  1  0.47083989  0.09029407  0.47809006  1  0.044536  0  0.096558  0.132519  0  0.9987  0
H  H119  1  0.09029462  0.96077658  0.47808915  1  0.049231  0  0.096547  0.132483  0  0.998712  0
H  H120  1  0.46077592  0.59029490  0.97808871  1  0.049294  0  0.096563  0.132522  0  0.99868  0
H  H121  1  0.97084041  0.46077601  0.97808925  1  0.037979  0  0.096557  0.132524  0  0.998701  0
H  H122  1  0.59029451  0.97083981  0.97808978  1  0.04455  0  0.09654  0.132486  0  0.998722  0
H  H123  1  0.03922408  0.52915981  0.52191028  1  0.037978  0  0.096556  0.132509  0  0.998708  0
H  H124  1  0.52916057  0.90970554  0.52190977  1  0.044553  0  0.096548  0.13249  0  0.998708  0
H  H125  1  0.90970525  0.03922435  0.52191081  1  0.049288  0  0.096558  0.13252  0  0.998687  0
H  H126  1  0.61204339  0.45646701  0.95671215  1  0.060026  0  0.099218  0.138941  0  0.984724  0
H  H127  1  0.97477767  0.61204303  0.95671166  1  0.045165  0  0.099217  0.138929  0  0.984713  0
H  H128  1  0.45646735  0.97477757  0.95671179  1  0.059794  0  0.099216  0.138937  0  0.984712  0
H  H129  1  0.88795637  0.52522214  0.54328907  1  0.045148  0  0.099209  0.138908  0  0.98473  0
H  H130  1  0.52522265  0.04353182  0.54328868  1  0.059882  0  0.099231  0.138937  0  0.984689  0
H  H131  1  0.04353213  0.88795702  0.54328821  1  0.060022  0  0.099232  0.138943  0  0.9847  0
H  H132  1  0.38795648  0.54353225  0.04328816  1  0.060022  0  0.099232  0.138936  0  0.984714  0
H  H133  1  0.02522280  0.38795603  0.04328846  1  0.045161  0  0.099224  0.138935  0  0.984727  0
H  H134  1  0.54353252  0.02522281  0.04328796  1  0.059798  0  0.09923  0.138929  0  0.984721  0
H  H135  1  0.11204350  0.47477656  0.45671151  1  0.045154  0  0.099219  0.138911  0  0.984733  0
H  H136  1  0.47477722  0.95646799  0.45671135  1  0.059888  0  0.099235  0.138941  0  0.984681  0
H  H137  1  0.95646774  0.11204335  0.45671154  1  0.060012  0  0.099217  0.138926  0  0.984723  0
H  H138  1  0.86457412  0.17640762  0.09047708  1  0.053859  0  0.093231  0.131266  0  1.035294  0
H  H139  1  0.86854126  0.86457449  0.09047661  1  0.074361  0  0.093245  0.131295  0  1.035288  0
H  H140  1  0.17640710  0.86854146  0.09047714  1  0.066785  0  0.093237  0.131297  0  1.035268  0
H  H141  1  0.63542562  0.63145891  0.40952391  1  0.074361  0  0.093243  0.131289  0  1.03529  0
H  H142  1  0.63145911  0.32359136  0.40952338  1  0.066791  0  0.093262  0.13132  0  1.035274  0
H  H143  1  0.32359174  0.63542584  0.40952334  1  0.05385  0  0.093237  0.131293  0  1.035284  0
H  H144  1  0.13542516  0.82359296  0.90952287  1  0.053849  0  0.093229  0.131281  0  1.035277  0
H  H145  1  0.13145861  0.13542589  0.90952314  1  0.074366  0  0.093246  0.1313  0  1.035287  0
H  H146  1  0.82359217  0.13145912  0.90952329  1  0.066777  0  0.093237  0.131279  0  1.035291  0
H  H147  1  0.36457425  0.36854090  0.59047612  1  0.07436  0  0.093247  0.131314  0  1.035275  0
H  H148  1  0.36854136  0.67640826  0.59047646  1  0.066788  0  0.093249  0.131321  0  1.035255  0
H  H149  1  0.67640813  0.36457454  0.59047642  1  0.053854  0  0.09324  0.131294  0  1.035265  0
H  H150  1  0.84691956  0.16565423  0.02087628  1  0.039841  0  0.092614  0.133151  0  1.00438  0
H  H151  1  0.96655052  0.84691944  0.02087589  1  0.040862  0  0.092589  0.133114  0  1.004419  0
H  H152  1  0.16565464  0.96655026  0.02087503  1  0.038031  0  0.092586  0.133104  0  1.004405  0
H  H153  1  0.65308017  0.53344935  0.47912457  1  0.040853  0  0.092583  0.133107  0  1.004406  0
H  H154  1  0.53344924  0.33434599  0.47912445  1  0.038029  0  0.092591  0.133138  0  1.004412  0
H  H155  1  0.33434541  0.65308023  0.47912457  1  0.039825  0  0.092594  0.133131  0  1.004387  0
H  H156  1  0.15307972  0.83434579  0.97912443  1  0.039833  0  0.092601  0.133119  0  1.004397  0
H  H157  1  0.03344935  0.15308038  0.97912414  1  0.040859  0  0.092591  0.133116  0  1.004407  0
H  H158  1  0.83434583  0.03344992  0.97912404  1  0.038048  0  0.0926  0.133119  0  1.004404  0
H  H159  1  0.34691971  0.46655047  0.52087595  1  0.040854  0  0.092593  0.133123  0  1.004428  0
H  H160  1  0.46655063  0.66565383  0.52087606  1  0.038042  0  0.092594  0.133134  0  1.0044  0
H  H161  1  0.66565387  0.34691979  0.52087614  1  0.039831  0  0.092597  0.133118  0  1.004407  0
H  H162  1  0.80560726  0.11906257  0.12392087  1  0.062211  0  0.093731  0.136232  0  1.020752  0
H  H163  1  0.95140938  0.80560731  0.12392058  1  0.049851  0  0.093729  0.136208  0  1.020763  0
H  H164  1  0.11906242  0.95140947  0.12392055  1  0.064029  0  0.093727  0.1362  0  1.020788  0
H  H165  1  0.69439246  0.54859046  0.37608030  1  0.049861  0  0.093739  0.136219  0  1.02075  0
H  H166  1  0.54858979  0.38093714  0.37608005  1  0.064189  0  0.093732  0.136219  0  1.020787  0
H  H167  1  0.38093703  0.69439294  0.37607980  1  0.062186  0  0.093738  0.136226  0  1.020776  0
H  H168  1  0.19439261  0.88093781  0.87607889  1  0.062207  0  0.093723  0.13619  0  1.020788  0
H  H169  1  0.04859109  0.19439231  0.87607926  1  0.049857  0  0.093727  0.136206  0  1.020768  0
H  H170  1  0.88093745  0.04859091  0.87607920  1  0.064031  0  0.093727  0.136204  0  1.020783  0
H  H171  1  0.30560741  0.45140992  0.62391994  1  0.049868  0  0.093726  0.136213  0  1.020759  0
H  H172  1  0.45141008  0.61906268  0.62392046  1  0.064173  0  0.093733  0.136234  0  1.02076  0
H  H173  1  0.61906284  0.30560744  0.62391995  1  0.062192  0  0.093736  0.136215  0  1.02078  0
H  H174  1  0.49324455  0.56021918  0.21910117  1  0.08639  0  0.100074  0.098077  0  1.038625  0
H  H175  1  0.72743523  0.49324404  0.21910204  1  0.095578  0  0.100056  0.098027  0  1.038614  0
H  H176  1  0.56021908  0.72743560  0.21910163  1  0.101477  0  0.100047  0.098031  0  1.038607  0
H  H177  1  0.00675606  0.77256467  0.28089896  1  0.095574  0  0.100058  0.098036  0  1.038635  0
H  H178  1  0.77256456  0.93978041  0.28089967  1  0.101547  0  0.100062  0.098031  0  1.038617  0
H  H179  1  0.93978065  0.00675538  0.28089905  1  0.086396  0  0.100052  0.098018  0  1.038594  0
H  H180  1  0.50675591  0.43978099  0.78089790  1  0.086394  0  0.10006  0.098021  0  1.038605  0
H  H181  1  0.27256464  0.50675634  0.78089771  1  0.095572  0  0.100052  0.098016  0  1.038619  0
H  H182  1  0.43978079  0.27256477  0.78089812  1  0.101485  0  0.100053  0.098034  0  1.038608  0
H  H183  1  0.99324441  0.22743551  0.71910108  1  0.095582  0  0.100059  0.098021  0  1.038621  0
H  H184  1  0.22743531  0.06021997  0.71910056  1  0.101486  0  0.100064  0.098055  0  1.038597  0
H  H185  1  0.06021982  0.99324424  0.71910079  1  0.086389  0  0.10007  0.098066  0  1.038573  0
C  C186  1  0.61914903  0.27007481  0.95320054  1  -0.052339  0  -0.236038  -0.420544  0  3.96399  0
C  C187  1  0.15757640  0.61914869  0.95319974  1  -0.069703  0  -0.236003  -0.420536  0  3.964  0
C  C188  1  0.27007496  0.15757625  0.95320009  1  -0.062602  0  -0.235992  -0.420463  0  3.964036  0
C  C189  1  0.88085188  0.34242333  0.54679933  1  -0.069699  0  -0.236019  -0.420543  0  3.963931  0
C  C190  1  0.34242358  0.22992574  0.54679923  1  -0.062911  0  -0.236009  -0.420528  0  3.964024  0
C  C191  1  0.22992503  0.88085189  0.54679924  1  -0.052317  0  -0.236009  -0.420487  0  3.963937  0
C  C192  1  0.38085084  0.72992445  0.04680025  1  -0.052321  0  -0.235994  -0.420475  0  3.964001  0
C  C193  1  0.84242407  0.38085093  0.04680010  1  -0.069752  0  -0.236007  -0.420509  0  3.963979  0
C  C194  1  0.72992550  0.84242393  0.04679995  1  -0.062591  0  -0.235982  -0.420455  0  3.964014  0
C  C195  1  0.11914859  0.65757629  0.45320002  1  -0.069788  0  -0.236006  -0.420486  0  3.963976  0
C  C196  1  0.65757629  0.77007519  0.45319976  1  -0.062598  0  -0.236002  -0.420491  0  3.963996  0
C  C197  1  0.77007484  0.11914905  0.45320023  1  -0.052327  0  -0.236015  -0.420525  0  3.964012  0
C  C198  1  0.69849540  0.28065887  0.91336030  1  0.478102  0  0.096127  0.20317  0  4.009735  0
C  C199  1  0.10748511  0.69849607  0.91336039  1  0.485386  0  0.096113  0.203201  0  4.00962  0
C  C200  1  0.28065809  0.10748551  0.91336093  1  0.489672  0  0.096138  0.20322  0  4.009705  0
C  C201  1  0.80150433  0.39251450  0.58663880  1  0.485413  0  0.096115  0.203172  0  4.009639  0
C  C202  1  0.39251427  0.21934223  0.58663909  1  0.4899  0  0.096157  0.203262  0  4.009606  0
C  C203  1  0.21934189  0.80150468  0.58663897  1  0.47809  0  0.096118  0.203141  0  4.009731  0
C  C204  1  0.30150388  0.71934170  0.08663965  1  0.478085  0  0.096111  0.203152  0  4.009792  0
C  C205  1  0.89251476  0.30150375  0.08663964  1  0.485558  0  0.096099  0.203165  0  4.009667  0
C  C206  1  0.71934238  0.89251410  0.08663939  1  0.489899  0  0.096147  0.203231  0  4.009641  0
C  C207  1  0.19849613  0.60748511  0.41336103  1  0.485555  0  0.09612  0.203188  0  4.009661  0
C  C208  1  0.60748560  0.78065759  0.41336045  1  0.489909  0  0.096125  0.203195  0  4.009638  0
C  C209  1  0.78065798  0.19849570  0.41336078  1  0.478079  0  0.096109  0.203176  0  4.009655  0
C  C210  1  0.73888654  0.29339846  0.94309725  1  0.025513  0  -0.037658  -0.14598  0  4.080137  0
C  C211  1  0.02461854  0.73888717  0.94309701  1  0.004985  0  -0.037622  -0.145924  0  4.080007  0
C  C212  1  0.29339808  0.02461869  0.94309715  1  0.006296  0  -0.037636  -0.146025  0  4.080102  0
C  C213  1  0.76111319  0.47538143  0.55690249  1  0.004868  0  -0.037646  -0.145949  0  4.080097  0
C  C214  1  0.47538144  0.20660215  0.55690275  1  0.006302  0  -0.037628  -0.146034  0  4.080099  0
C  C215  1  0.20660308  0.76111280  0.55690249  1  0.025504  0  -0.037693  -0.146033  0  4.080176  0
C  C216  1  0.26111333  0.70660192  0.05690299  1  0.025521  0  -0.037668  -0.146027  0  4.080165  0
C  C217  1  0.97538192  0.26111356  0.05690324  1  0.004951  0  -0.037646  -0.145972  0  4.080089  0
C  C218  1  0.70660358  0.97538165  0.05690222  1  0.006222  0  -0.037696  -0.146025  0  4.080134  0
C  C219  1  0.23888668  0.52461838  0.44309754  1  0.004994  0  -0.037673  -0.146001  0  4.080146  0
C  C220  1  0.52461843  0.79339711  0.44309707  1  0.005855  0  -0.037658  -0.146007  0  4.080117  0
C  C221  1  0.79339679  0.23888758  0.44309727  1  0.025519  0  -0.037657  -0.145994  0  4.080133  0
C  C222  1  0.81188445  0.29711835  0.88283336  1  0.373351  0  0.097725  0.194561  0  3.998433  0
C  C223  1  0.00816424  0.81188434  0.88283297  1  0.385149  0  0.097742  0.194631  0  3.998396  0
C  C224  1  0.29711880  0.00816477  0.88283297  1  0.396762  0  0.097753  0.194707  0  3.998351  0
C  C225  1  0.68811648  0.49183529  0.61716700  1  0.385207  0  0.097744  0.194641  0  3.998364  0
C  C226  1  0.49183516  0.20288087  0.61716731  1  0.396768  0  0.097718  0.194664  0  3.998381  0
C  C227  1  0.20288116  0.68811615  0.61716724  1  0.372919  0  0.097724  0.19461  0  3.998378  0
C  C228  1  0.18811542  0.70288147  0.11716667  1  0.373344  0  0.097738  0.194681  0  3.998405  0
C  C229  1  0.99183623  0.18811527  0.11716686  1  0.385192  0  0.097755  0.194683  0  3.998358  0
C  C230  1  0.70288226  0.99183577  0.11716660  1  0.396852  0  0.097734  0.194666  0  3.998279  0
C  C231  1  0.31188399  0.50816432  0.38283284  1  0.385171  0  0.097741  0.194632  0  3.998388  0
C  C232  1  0.50816412  0.79711859  0.38283271  1  0.39722  0  0.09774  0.19467  0  3.998342  0
C  C233  1  0.79711811  0.31188442  0.38283319  1  0.372975  0  0.09776  0.194675  0  3.998335  0
C  C234  1  0.87833947  0.31308786  0.87647673  1  -0.043046  0  -0.229648  -0.423843  0  3.95427  0
C  C235  1  0.93209639  0.87833861  0.87647694  1  -0.048685  0  -0.229623  -0.423833  0  3.95429  0
C  C236  1  0.31308813  0.93209672  0.87647666  1  -0.009241  0  -0.229651  -0.423917  0  3.954195  0
C  C237  1  0.62166147  0.56790266  0.62352428  1  -0.048688  0  -0.229623  -0.423835  0  3.954298  0
C  C238  1  0.56790337  0.18691150  0.62352364  1  -0.009306  0  -0.229617  -0.423841  0  3.954261  0
C  C239  1  0.18691192  0.62166085  0.62352389  1  -0.043017  0  -0.229627  -0.423829  0  3.954265  0
C  C240  1  0.12166100  0.68691232  0.12352283  1  -0.043047  0  -0.229617  -0.423806  0  3.954258  0
C  C241  1  0.06790407  0.12166045  0.12352318  1  -0.048743  0  -0.229671  -0.423917  0  3.954272  0
C  C242  1  0.68691294  0.06790326  0.12352319  1  -0.009241  0  -0.229657  -0.42389  0  3.954265  0
C  C243  1  0.37833900  0.43209639  0.37647632  1  -0.048762  0  -0.229607  -0.423839  0  3.954303  0
C  C244  1  0.43209650  0.81308776  0.37647618  1  -0.009357  0  -0.229624  -0.423863  0  3.954211  0
C  C245  1  0.81308855  0.37833877  0.37647643  1  -0.043024  0  -0.229615  -0.423845  0  3.954234  0
C  C246  1  0.71184611  0.29806752  0.02112201  1  0.058686  0  -0.0396  -0.151243  0  4.088926  0
C  C247  1  0.96896484  0.71184595  0.02112223  1  0.03421  0  -0.039613  -0.151297  0  4.088904  0
C  C248  1  0.29806697  0.96896501  0.02112189  1  0.047989  0  -0.039626  -0.151274  0  4.088926  0
C  C249  1  0.78815422  0.53103568  0.47887812  1  0.034301  0  -0.039614  -0.151313  0  4.088928  0
C  C250  1  0.53103549  0.20193190  0.47887846  1  0.047927  0  -0.039597  -0.151197  0  4.088865  0
C  C251  1  0.20193190  0.78815398  0.47887828  1  0.058706  0  -0.039583  -0.151194  0  4.088873  0
C  C252  1  0.28815317  0.70193249  0.97887821  1  0.058688  0  -0.039607  -0.151242  0  4.088964  0
C  C253  1  0.03103562  0.28815367  0.97887809  1  0.034197  0  -0.039595  -0.151248  0  4.088933  0
C  C254  1  0.70193290  0.03103536  0.97887786  1  0.047899  0  -0.039606  -0.151286  0  4.088956  0
C  C255  1  0.21184624  0.46896450  0.52112192  1  0.034128  0  -0.03958  -0.151206  0  4.08887  0
C  C256  1  0.46896438  0.79806736  0.52112185  1  0.04799  0  -0.039588  -0.151201  0  4.088935  0
C  C257  1  0.79806738  0.21184660  0.52112167  1  0.058692  0  -0.039597  -0.15123  0  4.08892  0
C  C258  1  0.64481933  0.35520158  0.05327500  1  0.407903  0  0.096476  0.196107  0  4.001957  0
C  C259  1  0.94670432  0.64481892  0.05327476  1  0.424978  0  0.096488  0.196115  0  4.001928  0
C  C260  1  0.35520149  0.94670440  0.05327455  1  0.417197  0  0.096474  0.196075  0  4.001992  0
C  C261  1  0.85518041  0.55329596  0.44672565  1  0.425125  0  0.096485  0.196129  0  4.001925  0
C  C262  1  0.55329601  0.14479757  0.44672576  1  0.417242  0  0.096471  0.196072  0  4.0019  0
C  C263  1  0.14479738  0.85518069  0.44672602  1  0.407946  0  0.096454  0.196045  0  4.001939  0
C  C264  1  0.35517994  0.64479844  0.94672522  1  0.407913  0  0.096485  0.196076  0  4.001992  0
C  C265  1  0.05329555  0.35518090  0.94672527  1  0.425137  0  0.096487  0.196112  0  4.001938  0
C  C266  1  0.64479838  0.05329542  0.94672548  1  0.417193  0  0.096499  0.196129  0  4.001933  0
C  C267  1  0.14481946  0.44670386  0.55327438  1  0.42502  0  0.09648  0.196067  0  4.001909  0
C  C268  1  0.44670446  0.85520205  0.55327407  1  0.417195  0  0.096474  0.19606  0  4.001968  0
C  C269  1  0.85520189  0.14481989  0.55327441  1  0.407964  0  0.096475  0.196083  0  4.001944  0
C  C270  1  0.58406828  0.42619583  0.01922796  1  -0.032289  0  -0.228286  -0.420549  0  3.988552  0
C  C271  1  0.97050805  0.58406781  0.01922799  1  -0.017594  0  -0.228283  -0.420518  0  3.988544  0
C  C272  1  0.42619552  0.97050823  0.01922787  1  -0.069631  0  -0.228297  -0.420565  0  3.988558  0
C  C273  1  0.91593147  0.52949238  0.48077238  1  -0.017744  0  -0.228289  -0.420518  0  3.988577  0
C  C274  1  0.52949226  0.07380325  0.48077304  1  -0.069775  0  -0.228301  -0.42055  0  3.988486  0
C  C275  1  0.07380336  0.91593218  0.48077223  1  -0.03225  0  -0.228292  -0.420514  0  3.988529  0
C  C276  1  0.41593159  0.57380398  0.98077158  1  -0.03227  0  -0.228274  -0.420503  0  3.988502  0
C  C277  1  0.02949241  0.41593181  0.98077184  1  -0.017744  0  -0.228312  -0.420586  0  3.988529  0
C  C278  1  0.57380435  0.02949158  0.98077216  1  -0.069695  0  -0.228273  -0.420495  0  3.988571  0
C  C279  1  0.08406781  0.47050764  0.51922785  1  -0.017597  0  -0.228274  -0.420478  0  3.988578  0
C  C280  1  0.47050820  0.92619637  0.51922728  1  -0.069801  0  -0.22829  -0.420503  0  3.988578  0
C  C281  1  0.92619592  0.08406840  0.51922772  1  -0.032279  0  -0.228289  -0.42055  0  3.988528  0
C  C282  1  0.81999104  0.17283539  0.07893043  1  -0.042082  0  -0.237742  -0.424691  0  3.958398  0
C  C283  1  0.92824306  0.81999123  0.07892997  1  -0.063479  0  -0.237727  -0.424661  0  3.958427  0
C  C284  1  0.17283559  0.92824312  0.07892985  1  -0.070492  0  -0.237721  -0.424651  0  3.958416  0
C  C285  1  0.68000868  0.57175695  0.42107026  1  -0.063477  0  -0.237723  -0.42465  0  3.958401  0
C  C286  1  0.57175670  0.32716378  0.42107058  1  -0.070635  0  -0.237755  -0.424727  0  3.958443  0
C  C287  1  0.32716386  0.68000865  0.42107016  1  -0.042021  0  -0.237749  -0.424718  0  3.958429  0
C  C288  1  0.18000883  0.82716443  0.92106959  1  -0.042065  0  -0.237722  -0.42464  0  3.958415  0
C  C289  1  0.07175681  0.18000859  0.92107006  1  -0.063496  0  -0.237738  -0.424677  0  3.958443  0
C  C290  1  0.82716428  0.07175726  0.92106990  1  -0.070494  0  -0.237732  -0.424648  0  3.958428  0
C  C291  1  0.31999119  0.42824343  0.57892949  1  -0.063494  0  -0.237765  -0.42473  0  3.958484  0
C  C292  1  0.42824317  0.67283547  0.57893021  1  -0.070641  0  -0.237752  -0.424749  0  3.958389  0
C  C293  1  0.67283601  0.31999117  0.57892987  1  -0.042044  0  -0.237741  -0.424674  0  3.958433  0
C  C294  1  0.74736395  0.24522808  0.08100024  1  0.431898  0  0.09531  0.205404  0  4.012992  0
C  C295  1  0.92640823  0.74736377  0.08099954  1  0.487023  0  0.095311  0.205404  0  4.012987  0
C  C296  1  0.24522831  0.92640820  0.08099953  1  0.432499  0  0.095326  0.205426  0  4.013017  0
C  C297  1  0.75263638  0.57359197  0.41900049  1  0.487035  0  0.095317  0.205422  0  4.01298  0
C  C298  1  0.57359212  0.25477096  0.41900071  1  0.432512  0  0.095324  0.205386  0  4.013036  0
C  C299  1  0.25477055  0.75263650  0.41900076  1  0.431882  0  0.095328  0.205404  0  4.012997  0
C  C300  1  0.25263592  0.75477173  0.91899979  1  0.431918  0  0.095319  0.205412  0  4.012968  0
C  C301  1  0.07359224  0.25263584  0.91900029  1  0.487031  0  0.095309  0.205396  0  4.013017  0
C  C302  1  0.75477156  0.07359218  0.91900022  1  0.432596  0  0.095305  0.205407  0  4.013005  0
C  C303  1  0.24736409  0.42640821  0.58099907  1  0.487019  0  0.095317  0.205399  0  4.013036  0
C  C304  1  0.42640775  0.74522886  0.58099931  1  0.4325  0  0.09533  0.205407  0  4.01303  0
C  C305  1  0.74522873  0.24736408  0.58099968  1  0.431899  0  0.095295  0.205359  0  4.013062  0
C  C306  1  0.63035030  0.43733905  0.21929704  1  1.571118  0  0.201221  0.570952  0  4.227515  0
C  C307  1  0.71301408  0.63034997  0.21929722  1  1.572986  0  0.2012  0.570866  0  4.22771  0
C  C308  1  0.43733895  0.71301394  0.21929669  1  1.552493  0  0.201195  0.570874  0  4.227514  0
C  C309  1  0.86964947  0.78698664  0.28070338  1  1.560014  0  0.201175  0.570903  0  4.227726  0
C  C310  1  0.78698624  0.06266060  0.28070450  1  1.552719  0  0.201168  0.570865  0  4.227646  0
C  C311  1  0.06266109  0.86964908  0.28070322  1  1.571116  0  0.201161  0.570852  0  4.227781  0
C  C312  1  0.36964957  0.56266132  0.78070271  1  1.571111  0  0.201195  0.570861  0  4.22753  0
C  C313  1  0.28698639  0.36964965  0.78070262  1  1.560021  0  0.201198  0.570879  0  4.227602  0
C  C314  1  0.56266092  0.28698644  0.78070307  1  1.55249  0  0.201229  0.570977  0  4.227545  0
C  C315  1  0.13035099  0.21301354  0.71929666  1  1.56003  0  0.201186  0.570862  0  4.227747  0
C  C316  1  0.21301423  0.93733958  0.71929554  1  1.552682  0  0.201204  0.570895  0  4.227498  0
C  C317  1  0.93733937  0.13035053  0.71929709  1  1.571484  0  0.20116  0.570841  0  4.227785  0
C  C318  1  0.61136151  0.51751329  0.22081434  1  -0.04235  0  -0.026547  -0.048206  0  3.998083  0
C  C319  1  0.65031190  0.61136120  0.22081413  1  -0.008272  0  -0.026547  -0.04822  0  3.998139  0
C  C320  1  0.51751334  0.65031177  0.22081388  1  -0.011895  0  -0.02656  -0.04822  0  3.99814  0
C  C321  1  0.88863768  0.84968822  0.27918751  1  0.004683  0  -0.026564  -0.048328  0  3.998183  0
C  C322  1  0.84968791  0.98248619  0.27918813  1  -0.011878  0  -0.026568  -0.048298  0  3.998133  0
C  C323  1  0.98248647  0.88863763  0.27918737  1  -0.042397  0  -0.026558  -0.048318  0  3.998142  0
C  C324  1  0.38863777  0.48248785  0.77918533  1  -0.04241  0  -0.026518  -0.048175  0  3.998114  0
C  C325  1  0.34968856  0.38863898  0.77918494  1  0.004719  0  -0.026538  -0.048235  0  3.998113  0
C  C326  1  0.48248653  0.34968860  0.77918587  1  -0.011776  0  -0.026559  -0.048238  0  3.998026  0
C  C327  1  0.11136219  0.15031160  0.72081300  1  0.004687  0  -0.02655  -0.048281  0  3.998177  0
C  C328  1  0.15031256  0.01751343  0.72081219  1  -0.011894  0  -0.026566  -0.048286  0  3.998129  0
C  C329  1  0.01751400  0.11136199  0.72081246  1  -0.04236  0  -0.026586  -0.048327  0  3.998121  0
C  C330  1  0.53627326  0.57495246  0.22075136  1  -0.012989  0  -0.077902  -0.097411  0  3.942594  0
C  C331  1  0.66802309  0.53627333  0.22075205  1  -0.045319  0  -0.077897  -0.097354  0  3.942628  0
C  C332  1  0.57495180  0.66802347  0.22075125  1  -0.072845  0  -0.077906  -0.097388  0  3.942642  0
C  C333  1  0.96372594  0.83197609  0.27924939  1  -0.045275  0  -0.077865  -0.097252  0  3.942547  0
C  C334  1  0.83197611  0.92504790  0.27925025  1  -0.072932  0  -0.077888  -0.097279  0  3.942557  0
C  C335  1  0.92504801  0.96372525  0.27924981  1  -0.012988  0  -0.077884  -0.097281  0  3.94258  0
C  C336  1  0.46372602  0.42504868  0.77924831  1  -0.012934  0  -0.077881  -0.097329  0  3.942517  0
C  C337  1  0.33197678  0.46372704  0.77924770  1  -0.045333  0  -0.077899  -0.097336  0  3.942605  0
C  C338  1  0.42504807  0.33197691  0.77924851  1  -0.072955  0  -0.077914  -0.097388  0  3.942614  0
C  C339  1  0.03627453  0.16802353  0.72075044  1  -0.045302  0  -0.077891  -0.097285  0  3.94256  0
C  C340  1  0.16802377  0.07495192  0.72074978  1  -0.072871  0  -0.077902  -0.097333  0  3.942584  0
C  C341  1  0.07495245  0.03627437  0.72075003  1  -0.012984  0  -0.07789  -0.097319  0  3.942507  0
N  N342  1  0.70442806  0.26929818  0.14467489  1  -0.744698  0  -0.262439  -0.243955  0  3.406773  0
N  N343  1  0.88159914  0.70442785  0.14467485  1  -0.755273  0  -0.262413  -0.243903  0  3.406692  0
N  N344  1  0.26929786  0.88159931  0.14467450  1  -0.733461  0  -0.262435  -0.243946  0  3.406762  0
N  N345  1  0.79557168  0.61840113  0.35532545  1  -0.755277  0  -0.262414  -0.24394  0  3.4067  0
N  N346  1  0.61840120  0.23070170  0.35532552  1  -0.733439  0  -0.262449  -0.243962  0  3.406732  0
N  N347  1  0.23070160  0.79557186  0.35532531  1  -0.74468  0  -0.262421  -0.243917  0  3.406693  0
N  N348  1  0.29557121  0.73070240  0.85532506  1  -0.744737  0  -0.262465  -0.243973  0  3.406729  0
N  N349  1  0.11840073  0.29557197  0.85532567  1  -0.755271  0  -0.262422  -0.243934  0  3.406744  0
N  N350  1  0.73070201  0.11840107  0.85532525  1  -0.733466  0  -0.262433  -0.243941  0  3.406717  0
N  N351  1  0.20442819  0.38159924  0.64467479  1  -0.75527  0  -0.262423  -0.243962  0  3.406702  0
N  N352  1  0.38159927  0.76929791  0.64467432  1  -0.733439  0  -0.262434  -0.243956  0  3.406744  0
N  N353  1  0.76929768  0.20442816  0.64467491  1  -0.744691  0  -0.262408  -0.243902  0  3.406712  0
N  N354  1  0.64259980  0.33504914  0.12708260  1  -0.834657  0  -0.28418  -0.149541  0  3.687895  0
N  N355  1  0.89526902  0.64259958  0.12708195  1  -0.874805  0  -0.28418  -0.149513  0  3.687879  0
N  N356  1  0.33504951  0.89526834  0.12708233  1  -0.863487  0  -0.284161  -0.149478  0  3.687876  0
N  N357  1  0.85739995  0.60473145  0.37291826  1  -0.874809  0  -0.284165  -0.149462  0  3.687824  0
N  N358  1  0.60473131  0.16495024  0.37291850  1  -0.863456  0  -0.284138  -0.149419  0  3.687841  0
N  N359  1  0.16495055  0.85739998  0.37291819  1  -0.834691  0  -0.284167  -0.14949  0  3.687848  0
N  N360  1  0.35740008  0.66495068  0.87291743  1  -0.834638  0  -0.284165  -0.149492  0  3.687821  0
N  N361  1  0.10473085  0.35740024  0.87291808  1  -0.874804  0  -0.284168  -0.149473  0  3.687855  0
N  N362  1  0.66495036  0.10473092  0.87291797  1  -0.863483  0  -0.284194  -0.149546  0  3.687893  0
N  N363  1  0.14259992  0.39526893  0.62708198  1  -0.874793  0  -0.284141  -0.149407  0  3.687803  0
N  N364  1  0.39526916  0.83504937  0.62708182  1  -0.863453  0  -0.284162  -0.149434  0  3.687844  0
N  N365  1  0.83504932  0.14259984  0.62708184  1  -0.834702  0  -0.284161  -0.149465  0  3.687822  0
N  N366  1  0.81138497  0.28723547  0.82300344  1  -0.833548  0  -0.291175  -0.155562  0  3.723101  0
N  N367  1  0.07837613  0.81138461  0.82300369  1  -0.840074  0  -0.291271  -0.15574  0  3.723232  0
N  N368  1  0.28723552  0.07837638  0.82300401  1  -0.838339  0  -0.291238  -0.155706  0  3.723149  0
N  N369  1  0.68861595  0.42162266  0.67699629  1  -0.839983  0  -0.291267  -0.155743  0  3.723171  0
N  N370  1  0.42162326  0.21276463  0.67699617  1  -0.838342  0  -0.291276  -0.155771  0  3.723113  0
N  N371  1  0.21276504  0.68861584  0.67699657  1  -0.833092  0  -0.291225  -0.155683  0  3.723227  0
N  N372  1  0.18861490  0.71276491  0.17699631  1  -0.833525  0  -0.291275  -0.155799  0  3.723221  0
N  N373  1  0.92162374  0.18861521  0.17699585  1  -0.84006  0  -0.291272  -0.155769  0  3.72318  0
N  N374  1  0.71276554  0.92162304  0.17699660  1  -0.838319  0  -0.291248  -0.155756  0  3.722952  0
N  N375  1  0.31138452  0.57837640  0.32300382  1  -0.840066  0  -0.291259  -0.155698  0  3.723237  0
N  N376  1  0.57837720  0.78723499  0.32300366  1  -0.838337  0  -0.291293  -0.155811  0  3.723116  0
N  N377  1  0.78723483  0.31138453  0.32300367  1  -0.833165  0  -0.29129  -0.155782  0  3.723095  0
N  N378  1  0.74392799  0.27659491  0.84044158  1  -0.729948  0  -0.259119  -0.241584  0  3.384041  0
N  N379  1  0.13903562  0.74392888  0.84044171  1  -0.731083  0  -0.259083  -0.241533  0  3.383987  0
N  N380  1  0.27659415  0.13903619  0.84044171  1  -0.727166  0  -0.259106  -0.241561  0  3.384026  0
N  N381  1  0.75607174  0.36096334  0.65955769  1  -0.731124  0  -0.25907  -0.241495  0  3.383834  0
N  N382  1  0.36096317  0.22340666  0.65955827  1  -0.727396  0  -0.259087  -0.241521  0  3.383827  0
N  N383  1  0.22340642  0.75607245  0.65955772  1  -0.729973  0  -0.259085  -0.241507  0  3.384072  0
N  N384  1  0.25607188  0.72340603  0.15955790  1  -0.729963  0  -0.259078  -0.241485  0  3.384045  0
N  N385  1  0.86096425  0.25607094  0.15955832  1  -0.731123  0  -0.259091  -0.241537  0  3.384009  0
N  N386  1  0.72340691  0.86096323  0.15955841  1  -0.727402  0  -0.259099  -0.241534  0  3.38388  0
N  N387  1  0.24392873  0.63903627  0.34044214  1  -0.731092  0  -0.259104  -0.24157  0  3.383998  0
N  N388  1  0.63903670  0.77659316  0.34044176  1  -0.727415  0  -0.259073  -0.241491  0  3.383873  0
N  N389  1  0.77659345  0.24392793  0.34044203  1  -0.729971  0  -0.259081  -0.241508  0  3.38381  0
O  O390  1  0.69972716  0.38683393  0.22048124  1  -1.192974  0  -0.333198  -0.5727  0  2.294831  0
O  O391  1  0.69295776  0.69972758  0.22048082  1  -1.184235  0  -0.333188  -0.572654  0  2.294881  0
O  O392  1  0.38683447  0.69295809  0.22048043  1  -1.186316  0  -0.333189  -0.572662  0  2.294838  0
O  O393  1  0.80027261  0.80704174  0.27951903  1  -1.184231  0  -0.33315  -0.572645  0  2.294932  0
O  O394  1  0.80704138  0.11316645  0.27952042  1  -1.186547  0  -0.333173  -0.572652  0  2.294919  0
O  O395  1  0.11316675  0.80027206  0.27951933  1  -1.193002  0  -0.33315  -0.572627  0  2.294984  0
O  O396  1  0.30027212  0.61316608  0.77951947  1  -1.192996  0  -0.333223  -0.572699  0  2.294823  0
O  O397  1  0.30704211  0.30027280  0.77951845  1  -1.184256  0  -0.333216  -0.5727  0  2.294851  0
O  O398  1  0.61316540  0.30704229  0.77951980  1  -1.186325  0  -0.3332  -0.572725  0  2.294824  0
O  O399  1  0.19972785  0.19295844  0.72048101  1  -1.184283  0  -0.333151  -0.572615  0  2.294957  0
O  O400  1  0.19295849  0.88683393  0.72048030  1  -1.186513  0  -0.333201  -0.572688  0  2.294828  0
O  O401  1  0.88683312  0.19972776  0.72048118  1  -1.192984  0  -0.333141  -0.572611  0  2.294967  0
O  O402  1  0.57710858  0.42511796  0.21680945  1  -1.186023  0  -0.333229  -0.567687  0  2.168431  0
O  O403  1  0.78096414  0.57710982  0.21680888  1  -1.195523  0  -0.333242  -0.567665  0  2.168556  0
O  O404  1  0.42511711  0.78096481  0.21680931  1  -1.186973  0  -0.333235  -0.567664  0  2.168387  0
O  O405  1  0.92289119  0.71903658  0.28319046  1  -1.195505  0  -0.33325  -0.567699  0  2.168517  0
O  O406  1  0.71903617  0.07488187  0.28319127  1  -1.186961  0  -0.333214  -0.567646  0  2.168436  0
O  O407  1  0.07488176  0.92289143  0.28319022  1  -1.186003  0  -0.333249  -0.567688  0  2.168531  0
O  O408  1  0.42289070  0.57488261  0.78319098  1  -1.186017  0  -0.333204  -0.567632  0  2.168396  0
O  O409  1  0.21903573  0.42289056  0.78319038  1  -1.195515  0  -0.333223  -0.567647  0  2.168469  0
O  O410  1  0.57488276  0.21903556  0.78319141  1  -1.18695  0  -0.333237  -0.567696  0  2.168512  0
O  O411  1  0.07710868  0.28096323  0.71681005  1  -1.195502  0  -0.33324  -0.567664  0  2.168528  0
O  O412  1  0.28096489  0.92511755  0.71680885  1  -1.186964  0  -0.333239  -0.567663  0  2.168382  0
O  O413  1  0.92511812  0.07710895  0.71681001  1  -1.186368  0  -0.333232  -0.567663  0  2.168536  0
