# generated using pymatgen
data_Co2H44C41(N4O5)2
_symmetry_space_group_name_H-M   'P 1'
_cell_length_a   16.80263621
_cell_length_b   17.82281629
_cell_length_c   18.07919551
_cell_angle_alpha   109.99436196
_cell_angle_beta   89.99997313
_cell_angle_gamma   89.99990904
_symmetry_Int_Tables_number   1
_chemical_formula_structural   Co2H44C41(N4O5)2
_chemical_formula_sum   'Co8 H176 C164 N32 O40'
_cell_volume   5087.84913460
_cell_formula_units_Z   4
loop_
 _symmetry_equiv_pos_site_id
 _symmetry_equiv_pos_as_xyz
  1  'x, y, z'
loop_
 _atom_site_type_symbol
 _atom_site_label
 _atom_site_symmetry_multiplicity
 _atom_site_fract_x
 _atom_site_fract_y
 _atom_site_fract_z
 _atom_site_occupancy
 _atom_site_pbe_bader_charge
 _atom_site_pbe_bader_spin_density
 _atom_site_pbe_cm5_charge
 _atom_site_pbe_ddec_charge
 _atom_site_pbe_ddec_spin_density
 _atom_site_pbe_ddec_sum_bond_order
 _atom_site_pbe_magmom
Co  Co0  1  0.68372998  0.76912716  0.72557905  1  1.196119  2.55813  0.664877  0.804577  2.776744  2.57328  2.503
Co  Co1  1  0.18373226  0.73087583  0.77442245  1  1.196194  2.55812  0.664875  0.804636  2.776743  2.573233  2.503
Co  Co2  1  0.31627154  0.23087424  0.27442202  1  1.196112  2.558133  0.664871  0.80456  2.776741  2.573258  2.503
Co  Co3  1  0.81626925  0.26912615  0.22557605  1  1.196121  2.558128  0.66492  0.804647  2.776742  2.573139  2.503
Co  Co4  1  0.18912236  0.18736563  0.76723231  1  1.202582  2.554369  0.66444  0.801262  2.774041  2.584158  2.499
Co  Co5  1  0.68912297  0.31263259  0.73276800  1  1.202729  2.554355  0.664442  0.801232  2.774041  2.584288  2.499
Co  Co6  1  0.81087737  0.81263339  0.23276799  1  1.202656  2.554355  0.664414  0.80119  2.774031  2.584341  2.499
Co  Co7  1  0.31087795  0.68736641  0.26723007  1  1.20269  2.554348  0.664433  0.801237  2.774031  2.584245  2.499
H  H8  1  0.71513461  0.79109711  0.48878522  1  0.098789  0.000679  0.104436  0.11878  0.000307  1.011986  0.0
H  H9  1  0.21513885  0.70890169  0.01121366  1  0.098721  0.000679  0.104418  0.118786  0.000307  1.011946  0.0
H  H10  1  0.28486631  0.20890370  0.51121511  1  0.098781  0.000679  0.104428  0.118778  0.000307  1.011979  0.0
H  H11  1  0.78486623  0.29109788  0.98878184  1  0.098817  0.000679  0.104429  0.118776  0.000307  1.011997  0.0
H  H12  1  0.41169682  0.45924682  0.39255394  1  0.083825  0.0  0.101965  0.107539  -9e-05  1.06326  0.0
H  H13  1  0.91169319  0.04075281  0.10744439  1  0.083882  1e-06  0.101981  0.10757  -9e-05  1.063289  0.0
H  H14  1  0.58831005  0.54075219  0.60744524  1  0.083953  1e-06  0.101989  0.107569  -9e-05  1.063348  0.0
H  H15  1  0.08830475  0.95924682  0.89255721  1  0.083891  1e-06  0.101991  0.107586  -9e-05  1.063233  0.0
H  H16  1  0.27238990  0.67390365  0.48521910  1  0.098119  0.000415  0.098389  0.105018  0.0001  1.045863  0.0
H  H17  1  0.77238881  0.82609686  0.01478364  1  0.097741  0.000415  0.098373  0.104952  0.0001  1.045951  0.0
H  H18  1  0.72760923  0.32609237  0.51477910  1  0.097802  0.000415  0.098386  0.105025  0.0001  1.045895  0.0
H  H19  1  0.22760973  0.17390277  0.98521796  1  0.098117  0.000415  0.098395  0.104993  0.0001  1.045945  0.0
H  H20  1  0.58146550  0.99278312  0.63573354  1  0.081781  0.000127  0.103269  0.111996  2.6e-05  1.044896  0.0
H  H21  1  0.08146753  0.50721645  0.86426301  1  0.081724  0.000127  0.103264  0.111934  2.6e-05  1.044965  0.0
H  H22  1  0.41853363  0.00721647  0.36426418  1  0.081743  0.000127  0.103279  0.111977  2.6e-05  1.044896  0.0
H  H23  1  0.91853161  0.49278494  0.13573640  1  0.081768  0.000127  0.103277  0.111974  2.6e-05  1.04493  0.0
H  H24  1  0.49867606  0.39732184  0.45860309  1  0.055466  2.4e-05  0.094253  0.062156  -5e-06  0.995765  0.0
H  H25  1  0.99867415  0.10267883  0.04139610  1  0.055532  2.4e-05  0.094247  0.062134  -5e-06  0.995784  0.0
H  H26  1  0.50132367  0.60267779  0.54139795  1  0.055441  2.4e-05  0.094274  0.062169  -5e-06  0.995812  0.0
H  H27  1  0.00132439  0.89732258  0.95860442  1  0.055455  2.4e-05  0.094239  0.062153  -5e-06  0.995748  0.0
H  H28  1  0.41487320  0.33283083  0.42114499  1  0.05436  0.000324  0.097255  0.0645  0.000173  1.013173  0.0
H  H29  1  0.91486878  0.16716938  0.07885299  1  0.054341  0.000324  0.097284  0.064553  0.000173  1.013058  0.0
H  H30  1  0.58512890  0.66716818  0.57885364  1  0.05439  0.000323  0.09726  0.064523  0.000173  1.013165  0.0
H  H31  1  0.08512916  0.83283202  0.92114753  1  0.054437  0.000323  0.097234  0.064425  0.000173  1.013233  0.0
H  H32  1  0.42182986  0.28976520  0.53936168  1  0.029121  3e-05  0.091546  0.087872  -1.2e-05  0.993064  0.0
H  H33  1  0.92182874  0.21023615  0.96063734  1  0.029071  3e-05  0.091528  0.087812  -1.2e-05  0.993157  0.0
H  H34  1  0.57816928  0.71023502  0.46063901  1  0.029143  3e-05  0.091531  0.087856  -1.2e-05  0.99311  0.0
H  H35  1  0.07816920  0.78976465  0.03936243  1  0.029481  3e-05  0.091532  0.087849  -1.2e-05  0.993101  0.0
H  H36  1  0.50760860  0.34924050  0.57193340  1  0.005397  7.7e-05  0.088456  0.081537  -2.1e-05  1.007079  0.0
H  H37  1  0.00760738  0.15075922  0.92806472  1  0.005525  7.7e-05  0.088442  0.081502  -2.1e-05  1.007095  0.0
H  H38  1  0.49238994  0.65075911  0.42806653  1  0.00537  7.7e-05  0.088442  0.081507  -2.1e-05  1.007106  0.0
H  H39  1  0.99239057  0.84924158  0.07193505  1  0.005481  7.7e-05  0.088415  0.081481  -2.1e-05  1.007128  0.0
H  H40  1  0.30892831  0.52504588  0.62515145  1  0.085503  0.000547  0.107873  0.127316  0.000201  1.008394  0.0
H  H41  1  0.80892441  0.97495151  0.87484759  1  0.085501  0.000547  0.107894  0.127309  0.000201  1.008436  0.0
H  H42  1  0.69107083  0.47495134  0.37484715  1  0.085505  0.000547  0.10789  0.127302  0.000201  1.008474  0.0
H  H43  1  0.19107473  0.02504751  0.12515270  1  0.085471  0.000547  0.107872  0.127284  0.000201  1.008473  0.0
H  H44  1  0.66679503  0.98776341  0.40864311  1  0.098502  0.00058  0.103234  0.114185  0.000244  1.044561  0.0
H  H45  1  0.16679361  0.51223786  0.09135660  1  0.098503  0.00058  0.103223  0.114171  0.000244  1.044639  0.0
H  H46  1  0.33320530  0.01223738  0.59135555  1  0.098494  0.00058  0.10322  0.11417  0.000244  1.044666  0.0
H  H47  1  0.83320909  0.48776472  0.90864321  1  0.098463  0.00058  0.103228  0.114147  0.000244  1.044598  0.0
H  H48  1  0.55306602  0.07644533  0.43250104  1  0.024365  -6e-06  0.096262  0.062556  -1.3e-05  0.995053  0.0
H  H49  1  0.05306689  0.42355496  0.06749823  1  0.02438  -6e-06  0.096283  0.062563  -1.3e-05  0.995052  0.0
H  H50  1  0.44693252  0.92355487  0.56749854  1  0.024394  -6e-06  0.096291  0.062601  -1.3e-05  0.995032  0.0
H  H51  1  0.94693224  0.57644704  0.93250304  1  0.024381  -6e-06  0.096294  0.062563  -1.3e-05  0.995106  0.0
H  H52  1  0.64699707  0.12152846  0.47001739  1  0.033722  -2e-06  0.094235  0.055314  -2.7e-05  0.992688  0.0
H  H53  1  0.14699803  0.37847167  0.02998289  1  0.033712  -2e-06  0.094236  0.055309  -2.7e-05  0.992666  0.0
H  H54  1  0.35300088  0.87847174  0.52998218  1  0.033698  -2e-06  0.094235  0.055325  -2.7e-05  0.992612  0.0
H  H55  1  0.85300110  0.62153034  0.97001894  1  0.033691  -2e-06  0.094224  0.055316  -2.7e-05  0.992677  0.0
H  H56  1  0.57872552  0.22692996  0.57719520  1  0.033079  0.000186  0.090195  0.090081  2.9e-05  1.003672  0.0
H  H57  1  0.07872588  0.27306965  0.92280562  1  0.033094  0.000186  0.090169  0.09006  2.9e-05  1.0037  0.0
H  H58  1  0.42127361  0.77306847  0.42280545  1  0.033088  0.000186  0.090173  0.090056  2.9e-05  1.003715  0.0
H  H59  1  0.92127445  0.72693175  0.07719546  1  0.03306  0.000186  0.090184  0.090058  2.9e-05  1.003741  0.0
H  H60  1  0.48635554  0.17822955  0.54856195  1  0.04633  -3e-06  0.089123  0.085204  -2.4e-05  1.006589  0.0
H  H61  1  0.98635662  0.32177049  0.95143772  1  0.046431  -3e-06  0.089097  0.085194  -2.4e-05  1.006601  0.0
H  H62  1  0.51364419  0.82176947  0.45143835  1  0.046311  -3e-06  0.0891  0.085149  -2.4e-05  1.006613  0.0
H  H63  1  0.01364430  0.67823150  0.04856245  1  0.046066  -3e-06  0.089094  0.085096  -2.4e-05  1.006594  0.0
H  H64  1  0.49671226  0.20474239  0.41896124  1  0.042941  -1.1e-05  0.085224  0.078987  -0.000107  1.023074  0.0
H  H65  1  0.99671119  0.29525709  0.08103922  1  0.043055  -1.1e-05  0.08522  0.078971  -0.000107  1.023084  0.0
H  H66  1  0.50328569  0.79525724  0.58104035  1  0.042897  -1.1e-05  0.08522  0.078966  -0.000107  1.023076  0.0
H  H67  1  0.00328616  0.70474371  0.91896055  1  0.042791  -1.1e-05  0.085215  0.078939  -0.000107  1.023098  0.0
H  H68  1  0.58340693  0.26183343  0.45493375  1  0.011316  2e-06  0.085086  0.08421  -2.4e-05  0.998657  0.0
H  H69  1  0.08340575  0.23816444  0.04506582  1  0.011332  2e-06  0.085119  0.084249  -2.4e-05  0.998593  0.0
H  H70  1  0.41659161  0.73816500  0.54506635  1  0.011271  2e-06  0.085095  0.08419  -2.4e-05  0.998617  0.0
H  H71  1  0.91659160  0.76183637  0.95493506  1  0.011351  2e-06  0.085093  0.084171  -2.4e-05  0.9986  0.0
H  H72  1  0.77893719  0.66545492  0.57263099  1  0.125846  0.00083  0.125197  0.127211  0.000103  0.987457  0.001
H  H73  1  0.27893625  0.83454671  0.92737057  1  0.125794  0.00083  0.125216  0.127206  0.000103  0.987397  0.001
H  H74  1  0.22106373  0.33454589  0.42736989  1  0.125838  0.00083  0.1252  0.127166  0.000103  0.987447  0.001
H  H75  1  0.72106170  0.16545469  0.07262940  1  0.125826  0.00083  0.125237  0.127222  0.000103  0.987416  0.001
H  H76  1  0.75393513  0.63305358  0.79167739  1  0.150422  0.000586  0.141437  0.119847  3.9e-05  0.986985  0.0
H  H77  1  0.25393782  0.86694808  0.70832253  1  0.150571  0.000586  0.14144  0.119824  3.9e-05  0.98697  0.0
H  H78  1  0.24606460  0.36694544  0.20832235  1  0.150425  0.000585  0.141439  0.119826  3.9e-05  0.987007  0.0
H  H79  1  0.74606608  0.13305390  0.29167597  1  0.150369  0.000585  0.141426  0.119795  3.9e-05  0.987028  0.0
H  H80  1  0.97205535  0.34666284  0.63576093  1  0.057385  0.000175  0.115605  0.093969  4.8e-05  0.951405  0.0
H  H81  1  0.47206189  0.15333365  0.86423868  1  0.057524  0.000175  0.115615  0.093952  4.8e-05  0.951393  0.0
H  H82  1  0.02794438  0.65333616  0.36423770  1  0.057409  0.000175  0.115599  0.093926  4.8e-05  0.951466  0.0
H  H83  1  0.52794498  0.84666538  0.13576272  1  0.057645  0.000175  0.115595  0.093939  4.8e-05  0.95151  0.0
H  H84  1  0.88165704  0.32674532  0.67645507  1  0.083833  0.000435  0.11556  0.095206  0.000246  0.990126  0.0
H  H85  1  0.38166000  0.17325435  0.82354839  1  0.08391  0.000435  0.115534  0.095151  0.000247  0.990192  0.0
H  H86  1  0.11834328  0.67325368  0.32354356  1  0.083823  0.000435  0.115582  0.095244  0.000247  0.990111  0.0
H  H87  1  0.61834390  0.82674769  0.17645676  1  0.083841  0.000435  0.115583  0.095197  0.000247  0.990179  0.0
H  H88  1  0.01301525  0.43606242  0.77396701  1  0.032152  6.1e-05  0.097043  0.094763  8e-06  1.000191  0.0
H  H89  1  0.51301510  0.06393491  0.72603087  1  0.032242  6.1e-05  0.097051  0.094783  8e-06  1.000152  0.0
H  H90  1  0.98698209  0.56393540  0.22603289  1  0.032186  6.1e-05  0.097061  0.09477  8e-06  1.000119  0.0
H  H91  1  0.48698344  0.93606529  0.27396759  1  0.032213  6.1e-05  0.097083  0.094795  8e-06  1.000101  0.0
H  H92  1  0.91642171  0.42420889  0.80700926  1  0.08263  9.7e-05  0.094038  0.095837  -1.8e-05  1.008912  0.0
H  H93  1  0.41642073  0.07579069  0.69299084  1  0.082613  9.7e-05  0.094034  0.095855  -1.8e-05  1.008903  0.0
H  H94  1  0.08357683  0.57578893  0.19298953  1  0.082625  9.7e-05  0.094041  0.095871  -1.8e-05  1.008885  0.0
H  H95  1  0.58357721  0.92421192  0.30701118  1  0.082618  9.7e-05  0.094037  0.095876  -1.8e-05  1.008855  0.0
H  H96  1  0.84849009  0.51992625  0.56308618  1  0.123882  0.000905  0.127746  0.128839  0.000346  0.989172  0.0
H  H97  1  0.34848771  0.98007466  0.93691566  1  0.123854  0.000905  0.127761  0.128824  0.000346  0.989173  0.0
H  H98  1  0.15150964  0.48007277  0.43691356  1  0.123877  0.000905  0.127748  0.128836  0.000346  0.989222  0.0
H  H99  1  0.65150904  0.01992676  0.06308597  1  0.123867  0.000905  0.127777  0.128869  0.000346  0.989137  0.0
H  H100  1  0.93207987  0.55200195  0.78052596  1  0.044072  5.6e-05  0.097963  0.097943  2e-06  0.985201  0.0
H  H101  1  0.43207884  0.94799641  0.71947501  1  0.044048  5.6e-05  0.097986  0.09798  2e-06  0.985184  0.0
H  H102  1  0.06791927  0.44799528  0.21947375  1  0.044092  5.6e-05  0.097955  0.097954  2e-06  0.985163  0.0
H  H103  1  0.56792089  0.05200561  0.28052793  1  0.043994  5.6e-05  0.097953  0.097931  2e-06  0.985159  0.0
H  H104  1  0.96073556  0.50034685  0.68285261  1  0.037212  2.5e-05  0.096261  0.093478  1e-06  0.97024  0.0
H  H105  1  0.46073558  0.99965384  0.81714912  1  0.037176  2.5e-05  0.09626  0.093476  1e-06  0.970187  0.0
H  H106  1  0.03926417  0.49965338  0.31715030  1  0.037151  2.5e-05  0.096253  0.093471  1e-06  0.970219  0.0
H  H107  1  0.53926414  0.00034876  0.18285291  1  0.037203  2.5e-05  0.096263  0.093489  1e-06  0.970171  0.0
H  H108  1  0.79659226  0.48516086  0.75304127  1  0.083038  5.3e-05  0.117735  0.110921  -0.000163  0.972524  0.0
H  H109  1  0.29659255  0.01484075  0.74696177  1  0.083072  5.3e-05  0.117713  0.110865  -0.000163  0.97258  0.0
H  H110  1  0.20340747  0.51483875  0.24695867  1  0.083037  5.3e-05  0.117726  0.110929  -0.000163  0.972511  0.0
H  H111  1  0.70340778  0.98516127  0.25304117  1  0.083041  5.3e-05  0.117727  0.110918  -0.000163  0.972523  0.0
H  H112  1  0.82472065  0.43535627  0.65464399  1  0.064138  0.000317  0.112689  0.094036  4.1e-05  0.984484  0.0
H  H113  1  0.32472140  0.06464648  0.84535885  1  0.064082  0.000317  0.11267  0.094011  4.1e-05  0.98447  0.0
H  H114  1  0.17527967  0.56464333  0.34535483  1  0.063986  0.000318  0.112697  0.094067  4.1e-05  0.984476  0.0
H  H115  1  0.67527833  0.93535673  0.15464448  1  0.064166  0.000317  0.112697  0.094058  4.1e-05  0.984463  0.0
H  H116  1  0.10516224  0.29739698  0.68259994  1  0.137575  0.000694  0.141107  0.11436  0.000111  0.990538  0.0
H  H117  1  0.60516300  0.20260437  0.81740144  1  0.13753  0.000694  0.141135  0.114407  0.000111  0.990612  0.0
H  H118  1  0.89483867  0.70260024  0.31739921  1  0.137409  0.000694  0.141116  0.114348  0.000111  0.990668  0.0
H  H119  1  0.39483911  0.79740121  0.18260102  1  0.137415  0.000694  0.141113  0.114352  0.000111  0.990644  0.0
H  H120  1  0.88433347  0.23466170  0.75849087  1  0.113562  0.000742  0.124291  0.127692  0.000123  1.027984  0.0
H  H121  1  0.38433571  0.26533736  0.74151129  1  0.113626  0.000742  0.124309  0.127752  0.000123  1.028024  0.0
H  H122  1  0.11566448  0.76533910  0.24150835  1  0.113623  0.000742  0.124312  0.127758  0.000123  1.027974  0.0
H  H123  1  0.61566461  0.73466168  0.25849122  1  0.113599  0.000742  0.124307  0.12771  0.000123  1.027998  0.0
H  H124  1  0.00678909  0.14515260  0.79272329  1  0.136582  0.000829  0.12272  0.117417  0.000222  1.016818  0.001
H  H125  1  0.50678905  0.35484776  0.70727947  1  0.136593  0.000829  0.122721  0.117435  0.000222  1.016843  0.001
H  H126  1  0.99320707  0.85484642  0.20727701  1  0.136577  0.000829  0.122759  0.117468  0.000222  1.016812  0.001
H  H127  1  0.49320889  0.64515487  0.29272422  1  0.136586  0.000829  0.122756  0.117473  0.000222  1.016846  0.001
H  H128  1  0.49727764  0.82282925  0.73523380  1  0.127764  0.000814  0.11852  0.119137  0.000191  1.028193  0.001
H  H129  1  0.99728263  0.67717320  0.76477125  1  0.127817  0.000814  0.11855  0.11922  0.000191  1.028088  0.001
H  H130  1  0.50272268  0.17717096  0.26476633  1  0.127537  0.000815  0.118531  0.119156  0.000191  1.028122  0.001
H  H131  1  0.00272305  0.32282823  0.23523205  1  0.127805  0.000814  0.118542  0.11917  0.000191  1.028069  0.001
H  H132  1  0.60848655  0.61289021  0.74242162  1  0.160276  0.000659  0.135544  0.105285  6.9e-05  1.033783  0.0
H  H133  1  0.10849216  0.88711289  0.75757608  1  0.160265  0.00066  0.135485  0.105225  6.9e-05  1.033751  0.0
H  H134  1  0.39151198  0.38710821  0.25757736  1  0.160332  0.000659  0.135554  0.105279  6.9e-05  1.033797  0.0
H  H135  1  0.89151174  0.11289384  0.24242122  1  0.160342  0.000659  0.135528  0.105266  6.9e-05  1.033888  0.0
H  H136  1  0.26725701  0.27065950  0.93916293  1  0.139855  0.000832  0.124381  0.124262  0.00011  1.006986  0.001
H  H137  1  0.76725784  0.22933678  0.56083671  1  0.139944  0.000832  0.124355  0.124246  0.00011  1.00708  0.001
H  H138  1  0.73274391  0.72933835  0.06083919  1  0.13994  0.000833  0.124344  0.124249  0.00011  1.007034  0.001
H  H139  1  0.23274010  0.77065381  0.43915307  1  0.139995  0.000833  0.124317  0.124197  0.00011  1.007044  0.001
H  H140  1  0.38045380  0.70994777  0.73469001  1  0.117498  0.000842  0.123216  0.128367  0.000227  1.03191  0.0
H  H141  1  0.88045920  0.79005729  0.76531706  1  0.117592  0.000841  0.123223  0.128384  0.000227  1.031953  0.0
H  H142  1  0.61954533  0.29005544  0.26531277  1  0.117514  0.000842  0.123216  0.128332  0.000227  1.031963  0.0
H  H143  1  0.11954589  0.20994533  0.23468718  1  0.11753  0.000842  0.123166  0.128269  0.000227  1.031997  0.0
H  H144  1  0.50281214  0.52669395  0.73850779  1  0.121638  7.4e-05  0.114793  0.11121  -2.2e-05  1.012235  0.0
H  H145  1  0.00281224  0.97330938  0.76149335  1  0.121707  7.4e-05  0.114787  0.111217  -2.2e-05  1.012238  0.0
H  H146  1  0.49718759  0.47330566  0.26149159  1  0.121615  7.4e-05  0.114815  0.111241  -2.2e-05  1.012289  0.0
H  H147  1  0.99718570  0.02669560  0.23850780  1  0.121606  7.4e-05  0.114806  0.111219  -2.2e-05  1.012291  0.0
H  H148  1  0.42285802  0.53672025  0.67910737  1  0.046545  0.000208  0.106648  0.086854  7.4e-05  1.012266  0.0
H  H149  1  0.92285834  0.96328051  0.82089273  1  0.046501  0.000208  0.106677  0.086901  7.4e-05  1.012359  0.0
H  H150  1  0.57714111  0.46327936  0.32089201  1  0.046128  0.000208  0.106635  0.086867  7.5e-05  1.012272  0.0
H  H151  1  0.07713961  0.03672089  0.17910723  1  0.046069  0.000208  0.106654  0.086894  7.4e-05  1.012231  0.0
H  H152  1  0.32349566  0.42743787  0.98467397  1  0.142407  0.000935  0.131073  0.133454  0.00036  0.985226  0.0
H  H153  1  0.82349380  0.07255832  0.51532727  1  0.142407  0.000935  0.131056  0.133474  0.00036  0.985199  0.0
H  H154  1  0.67650824  0.57255938  0.01532795  1  0.142468  0.000935  0.131038  0.133419  0.00036  0.98529  0.0
H  H155  1  0.17650473  0.92743414  0.48467086  1  0.142528  0.000935  0.131068  0.133486  0.00036  0.985249  0.0
H  H156  1  0.41987624  0.60893261  0.85953336  1  0.017524  2.5e-05  0.095723  0.091674  1e-06  0.966225  0.0
H  H157  1  0.91987796  0.89106756  0.64046710  1  0.017501  2.5e-05  0.095738  0.091709  1e-06  0.966318  0.0
H  H158  1  0.58012229  0.39106759  0.14046622  1  0.017497  2.5e-05  0.095714  0.091658  1e-06  0.966227  0.0
H  H159  1  0.08012177  0.10893385  0.35953342  1  0.017442  2.5e-05  0.095692  0.091656  1e-06  0.966231  0.0
H  H160  1  0.33885505  0.60247211  0.79483364  1  0.060192  -7e-06  0.098146  0.101607  -0.000141  0.987806  0.0
H  H161  1  0.83885732  0.89752701  0.70516651  1  0.060282  -7e-06  0.098154  0.101624  -0.000141  0.987767  0.0
H  H162  1  0.66114349  0.39752571  0.20516515  1  0.06022  -7e-06  0.098158  0.101634  -0.000141  0.987784  0.0
H  H163  1  0.16114360  0.10247379  0.29483326  1  0.060259  -7e-06  0.098162  0.101634  -0.000141  0.987774  0.0
H  H164  1  0.23904415  0.35607666  0.75021681  1  0.164246  0.000664  0.142202  0.11674  9.5e-05  0.991447  0.0
H  H165  1  0.73904265  0.14392266  0.74978384  1  0.164192  0.000664  0.142183  0.116692  9.4e-05  0.991526  0.0
H  H166  1  0.76095737  0.64392238  0.24978570  1  0.16415  0.000664  0.142187  0.116704  9.5e-05  0.99145  0.0
H  H167  1  0.26095886  0.85607931  0.25021300  1  0.164085  0.000664  0.142187  0.116676  9.4e-05  0.991488  0.0
H  H168  1  0.42695622  0.46162118  0.82060514  1  0.065319  3e-06  0.094148  0.088526  -2.4e-05  0.990927  0.0
H  H169  1  0.92695494  0.03837956  0.67939423  1  0.065335  3e-06  0.094141  0.088531  -2.4e-05  0.990882  0.0
H  H170  1  0.57304410  0.53837903  0.17939499  1  0.065344  3e-06  0.094148  0.08853  -2.4e-05  0.990868  0.0
H  H171  1  0.07304241  0.96162244  0.32060705  1  0.065424  3e-06  0.09414  0.088555  -2.4e-05  0.990898  0.0
H  H172  1  0.35563887  0.44985598  0.74566962  1  0.045565  1.9e-05  0.097933  0.094928  -1e-05  0.967625  0.0
H  H173  1  0.85563753  0.05014252  0.75433071  1  0.045562  1.9e-05  0.097941  0.094967  -1e-05  0.96765  0.0
H  H174  1  0.64436086  0.55014245  0.25433159  1  0.045557  1.9e-05  0.09793  0.094914  -1e-05  0.967628  0.0
H  H175  1  0.14435863  0.94985769  0.24566998  1  0.04559  1.9e-05  0.097947  0.094947  -1e-05  0.967643  0.0
H  H176  1  0.32238802  0.53170253  0.92261488  1  0.032054  0.000279  0.117165  0.100285  0.000101  0.958503  0.0
H  H177  1  0.82238606  0.96829484  0.57738526  1  0.032089  0.000279  0.117168  0.100327  0.000101  0.958438  0.0
H  H178  1  0.67761409  0.46829591  0.07738688  1  0.032139  0.000279  0.117174  0.100298  0.000101  0.958496  0.0
H  H179  1  0.17761485  0.03170238  0.42261389  1  0.032029  0.000279  0.117179  0.100287  0.000101  0.958488  0.0
H  H180  1  0.25312511  0.51808659  0.84591351  1  0.088652  9.4e-05  0.112928  0.097418  -2.5e-05  0.995223  0.0
H  H181  1  0.75312428  0.98190972  0.65408742  1  0.088729  9.4e-05  0.112948  0.097443  -2.5e-05  0.995201  0.0
H  H182  1  0.74687581  0.48191007  0.15408877  1  0.088709  9.4e-05  0.112932  0.097383  -2.5e-05  0.995227  0.0
H  H183  1  0.24687485  0.01808690  0.34591153  1  0.088583  9.4e-05  0.112959  0.09747  -2.5e-05  0.995177  0.0
C  C184  1  0.64700711  0.88835665  0.56876320  1  -0.023848  0.003723  -0.019964  -0.018749  0.001939  4.01292  0.003
C  C185  1  0.14701071  0.61164343  0.93123735  1  -0.023909  0.003723  -0.019933  -0.018726  0.001939  4.012898  0.003
C  C186  1  0.35299322  0.11164357  0.43123748  1  -0.023828  0.003723  -0.020014  -0.018828  0.001939  4.012978  0.003
C  C187  1  0.85299200  0.38835914  0.06876135  1  -0.023935  0.003723  -0.019901  -0.018531  0.001939  4.012783  0.003
C  C188  1  0.68729369  0.84876966  0.49835023  1  -0.030147  0.001642  -0.09133  -0.145211  0.000893  3.958963  0.001
C  C189  1  0.18729744  0.65122919  0.00164868  1  -0.030434  0.001642  -0.091364  -0.145284  0.000893  3.95906  0.001
C  C190  1  0.31270663  0.15123115  0.50165065  1  -0.030151  0.001642  -0.091326  -0.145217  0.000893  3.958973  0.001
C  C191  1  0.81270586  0.34876980  0.99834773  1  -0.030118  0.001642  -0.0913  -0.145187  0.000893  3.958872  0.001
C  C192  1  0.37708196  0.49961511  0.44056906  1  -0.021447  0.000272  -0.10234  -0.228538  -0.000294  3.956279  0.0
C  C193  1  0.87707902  0.00038519  0.05943062  1  -0.021426  0.000273  -0.102356  -0.228618  -0.000294  3.956315  0.0
C  C194  1  0.62292014  0.50038391  0.55943123  1  -0.021489  0.000272  -0.10238  -0.228651  -0.000294  3.956315  0.0
C  C195  1  0.12291892  0.99961564  0.94057193  1  -0.021565  0.000273  -0.102385  -0.228716  -0.000294  3.956324  0.0
C  C196  1  0.29796093  0.62061900  0.49190720  1  -0.027632  0.002229  -0.097335  -0.149518  0.001131  3.98785  0.001
C  C197  1  0.79795857  0.87938206  0.00809515  1  -0.027481  0.002229  -0.097319  -0.149477  0.001131  3.988042  0.001
C  C198  1  0.70203820  0.37937941  0.50809123  1  -0.027465  0.002229  -0.097314  -0.149592  0.001131  3.988045  0.001
C  C199  1  0.20204057  0.12061937  0.99190870  1  -0.027665  0.002229  -0.097384  -0.149603  0.001131  3.987991  0.001
C  C200  1  0.69284697  0.88487117  0.44098172  1  -0.00666  0.001928  -0.025545  -0.018017  0.000916  4.024704  0.001
C  C201  1  0.19284897  0.61512946  0.05901721  1  -0.006258  0.001928  -0.0255  -0.017986  0.000916  4.024653  0.001
C  C202  1  0.30715395  0.11513023  0.55901825  1  -0.006646  0.001928  -0.025534  -0.018008  0.000916  4.024652  0.001
C  C203  1  0.80715552  0.38487251  0.94097962  1  -0.006569  0.001928  -0.025591  -0.018122  0.000917  4.024831  0.001
C  C204  1  0.34155415  0.56696409  0.43070135  1  -0.008714  0.005424  -0.023824  -0.020021  0.002774  4.002727  0.004
C  C205  1  0.84155285  0.93303506  0.06929703  1  -0.008561  0.005425  -0.023812  -0.019949  0.002775  4.002792  0.004
C  C206  1  0.65844855  0.43303371  0.56929633  1  -0.008696  0.005425  -0.023792  -0.019861  0.002774  4.002704  0.004
C  C207  1  0.15844449  0.06696575  0.93070440  1  -0.008582  0.005424  -0.023792  -0.019874  0.002774  4.002658  0.004
C  C208  1  0.64424445  0.85601088  0.63538028  1  1.551097  0.00092  0.195526  0.551801  0.000608  4.230156  -0.001
C  C209  1  0.14424684  0.64398860  0.86461898  1  1.551045  0.000924  0.195569  0.551828  0.000608  4.230006  -0.001
C  C210  1  0.35575527  0.14398873  0.36461855  1  1.551129  0.00092  0.195553  0.551815  0.000609  4.230217  -0.001
C  C211  1  0.85575467  0.35601159  0.13537894  1  1.551087  0.00092  0.195488  0.551588  0.000608  4.230363  -0.001
C  C212  1  0.73691273  0.84381597  0.36637994  1  1.50427  0.000435  0.192007  0.549499  -0.000303  4.217513  -0.001
C  C213  1  0.23691283  0.65618399  0.13361930  1  1.5045  0.000433  0.191989  0.549486  -0.000303  4.217453  -0.001
C  C214  1  0.26308700  0.15618483  0.63361927  1  1.504255  0.000435  0.192008  0.549505  -0.000303  4.217514  -0.001
C  C215  1  0.76308987  0.34381858  0.86637828  1  1.504527  0.000434  0.192056  0.549512  -0.000305  4.217323  -0.001
C  C216  1  0.61821035  0.99914386  0.52348789  1  0.493051  0.000621  0.081844  0.259499  0.000242  4.092488  0.001
C  C217  1  0.11821174  0.50085567  0.97651195  1  0.492835  0.000621  0.081874  0.25962  0.000242  4.092344  0.001
C  C218  1  0.38178878  0.00085574  0.47651093  1  0.492814  0.000621  0.081927  0.259694  0.000242  4.09223  0.001
C  C219  1  0.88179037  0.49914572  0.02348747  1  0.493115  0.000621  0.081803  0.259581  0.000242  4.092339  0.001
C  C220  1  0.61195897  0.96241375  0.58046417  1  -0.003747  -6.3e-05  -0.093806  -0.210348  -0.000531  3.95361  0.0
C  C221  1  0.11196151  0.53758279  0.91953302  1  -0.003406  -6.3e-05  -0.093821  -0.210313  -0.000532  3.953507  0.0
C  C222  1  0.38804016  0.03758645  0.41953485  1  -0.003502  -6.3e-05  -0.093825  -0.210348  -0.000531  3.953541  0.0
C  C223  1  0.88804000  0.46241442  0.08046446  1  -0.003723  -6.3e-05  -0.09386  -0.210479  -0.000531  3.953715  0.0
C  C224  1  0.44842683  0.36607453  0.47466116  1  0.387321  0.000162  -0.068996  0.040862  3.7e-05  3.866174  0.0
C  C225  1  0.94842368  0.13392503  0.02533769  1  0.387429  0.000162  -0.069063  0.040835  3.7e-05  3.86595  0.0
C  C226  1  0.55157350  0.63392330  0.52533874  1  0.387535  0.000162  -0.069009  0.040799  3.7e-05  3.866277  0.0
C  C227  1  0.05157308  0.86607697  0.97466359  1  0.387335  0.000162  -0.068945  0.040943  3.7e-05  3.866059  0.0
C  C228  1  0.47556605  0.31223592  0.51885470  1  0.017296  7.8e-05  -0.167708  -0.171069  5e-06  3.964117  0.0
C  C229  1  0.97556437  0.18776472  0.98114351  1  0.016993  7.8e-05  -0.167677  -0.170992  5e-06  3.964019  0.0
C  C230  1  0.52443367  0.68776310  0.48114504  1  0.017119  7.8e-05  -0.167677  -0.171028  5e-06  3.964064  0.0
C  C231  1  0.02443357  0.81223667  0.01885590  1  0.016648  7.8e-05  -0.16766  -0.171005  5e-06  3.964114  0.0
C  C232  1  0.31947368  0.53777250  0.57124203  1  -0.018974  0.00171  -0.098192  -0.21702  0.000924  3.964276  0.001
C  C233  1  0.81947275  0.96222666  0.92875815  1  -0.018963  0.00171  -0.098152  -0.217008  0.000924  3.964332  0.001
C  C234  1  0.68052248  0.46222591  0.42875640  1  -0.018548  0.00171  -0.098222  -0.217086  0.000924  3.964273  0.001
C  C235  1  0.18052579  0.03777357  0.07124420  1  -0.018642  0.00171  -0.098172  -0.217085  0.000924  3.964305  0.001
C  C236  1  0.65910815  0.96038433  0.45347120  1  -0.0939  0.000998  -0.106663  -0.246364  0.000515  3.981303  0.001
C  C237  1  0.15910790  0.53961458  0.04652774  1  -0.093951  0.000998  -0.106621  -0.246329  0.000515  3.98127  0.001
C  C238  1  0.34089277  0.03961469  0.54652854  1  -0.093877  0.000998  -0.10667  -0.246396  0.000515  3.981319  0.001
C  C239  1  0.84089540  0.46038622  0.95347092  1  -0.094028  0.000998  -0.106632  -0.246276  0.000515  3.981269  0.001
C  C240  1  0.28730724  0.60627825  0.56256545  1  -0.017434  0.002736  -0.024997  -0.016377  0.001333  4.034263  0.002
C  C241  1  0.78730404  0.89372157  0.93743551  1  -0.017447  0.002736  -0.025015  -0.016342  0.001333  4.034198  0.002
C  C242  1  0.71269189  0.39371777  0.43743164  1  -0.017417  0.002736  -0.024956  -0.016231  0.001333  4.03398  0.002
C  C243  1  0.21269390  0.10627805  0.06256553  1  -0.017508  0.002737  -0.024954  -0.016218  0.001333  4.034071  0.002
C  C244  1  0.58510261  0.11300394  0.48601927  1  0.436501  2.9e-05  -0.067055  0.03914  -6e-06  3.895219  0.0
C  C245  1  0.08510239  0.38699629  0.01397997  1  0.436389  2.9e-05  -0.067119  0.039122  -6e-06  3.895219  0.0
C  C246  1  0.41489711  0.88699566  0.51397955  1  0.436496  2.9e-05  -0.067136  0.039027  -6e-06  3.895241  0.0
C  C247  1  0.91489675  0.61300570  0.98602020  1  0.436534  2.9e-05  -0.067103  0.039081  -6e-06  3.895304  0.0
C  C248  1  0.54341979  0.19168406  0.52577460  1  -0.015919  5.4e-05  -0.171253  -0.179356  5e-06  3.963066  0.0
C  C249  1  0.04342126  0.30831681  0.97422665  1  -0.016014  5.4e-05  -0.171193  -0.179352  5e-06  3.96309  0.0
C  C250  1  0.45657696  0.80831616  0.47422720  1  -0.015863  5.4e-05  -0.171159  -0.179254  5e-06  3.963072  0.0
C  C251  1  0.95657728  0.69168579  0.02577427  1  -0.015771  5.4e-05  -0.171235  -0.179267  5e-06  3.96313  0.0
C  C252  1  0.52732943  0.24122690  0.47316034  1  -0.025006  1e-06  -0.167153  -0.140621  -5.6e-05  3.933003  0.0
C  C253  1  0.02732941  0.25877345  0.02683952  1  -0.025116  1e-06  -0.167154  -0.140613  -5.6e-05  3.932857  0.0
C  C254  1  0.47266851  0.75877272  0.52684015  1  -0.024947  1e-06  -0.16718  -0.140566  -5.6e-05  3.93291  0.0
C  C255  1  0.97266853  0.74122795  0.97316100  1  -0.024771  1e-06  -0.167116  -0.140449  -5.6e-05  3.932874  0.0
C  C256  1  0.36590276  0.48528470  0.51131534  1  0.44758  0.000599  0.079848  0.250747  0.000222  4.11256  0.0
C  C257  1  0.86590018  0.01471616  0.98868354  1  0.447548  0.000599  0.079888  0.250838  0.000222  4.112367  0.0
C  C258  1  0.63409875  0.51471431  0.48868329  1  0.447122  0.000599  0.079874  0.250829  0.000222  4.112406  0.0
C  C259  1  0.13409777  0.98528465  0.01131679  1  0.44723  0.000599  0.079927  0.250992  0.000222  4.112338  0.0
C  C260  1  0.24418180  0.66571739  0.62976859  1  1.537641  0.001132  0.191292  0.55276  0.000764  4.230627  0.0
C  C261  1  0.74417873  0.83428072  0.87023128  1  1.537614  0.001133  0.191365  0.552946  0.000766  4.230509  0.0
C  C262  1  0.75581555  0.33427860  0.37022629  1  1.537701  0.001131  0.191287  0.552823  0.000765  4.230558  0.0
C  C263  1  0.25581861  0.16571950  0.12976996  1  1.537634  0.001132  0.191363  0.552923  0.000764  4.230473  0.0
C  C264  1  0.34921903  0.58161381  0.35382240  1  1.54936  0.002681  0.200688  0.563078  0.002633  4.226207  0.001
C  C265  1  0.84921177  0.91839134  0.14618238  1  1.548773  0.002682  0.2007  0.562958  0.002634  4.226357  0.001
C  C266  1  0.65079022  0.41838640  0.64617829  1  1.549354  0.00268  0.200639  0.562887  0.002632  4.225686  0.001
C  C267  1  0.15078439  0.08161070  0.85382278  1  1.549306  0.002681  0.200637  0.56283  0.002633  4.226544  0.001
C  C268  1  0.78534810  0.63712562  0.61665952  1  0.404541  0.002924  4.3e-05  -0.030209  0.001859  4.005814  0.002
C  C269  1  0.28534713  0.86287539  0.88334073  1  0.404534  0.002924  8.3e-05  -0.030134  0.001859  4.005688  0.002
C  C270  1  0.21465223  0.36287399  0.38334042  1  0.40456  0.002924  6e-05  -0.030138  0.001859  4.005738  0.002
C  C271  1  0.71465140  0.13712542  0.11665904  1  0.404544  0.002924  2.8e-05  -0.030233  0.001859  4.005761  0.002
C  C272  1  0.76994633  0.62239541  0.73080979  1  0.969468  0.00105  0.143689  0.091347  6.1e-05  3.89975  0.001
C  C273  1  0.26994718  0.87760623  0.76919122  1  0.969343  0.001049  0.143669  0.091345  6.1e-05  3.899813  0.001
C  C274  1  0.23005340  0.37760360  0.26918939  1  0.969451  0.001049  0.143648  0.091318  6.1e-05  3.899683  0.001
C  C275  1  0.73005373  0.12239517  0.23080875  1  0.96957  0.00105  0.143657  0.091371  6.1e-05  3.899682  0.001
C  C276  1  0.94388416  0.34491488  0.69012749  1  0.288624  0.000986  -0.045591  -0.060949  0.000605  3.881673  0.001
C  C277  1  0.44388656  0.15508286  0.80987254  1  0.288962  0.000986  -0.04557  -0.060869  0.000605  3.881668  0.001
C  C278  1  0.05611675  0.65508472  0.30987133  1  0.288542  0.000986  -0.045638  -0.060944  0.000605  3.881676  0.001
C  C279  1  0.55611614  0.84491498  0.19012902  1  0.288284  0.000986  -0.045661  -0.061023  0.000605  3.881858  0.001
C  C280  1  0.95037770  0.42625170  0.75571289  1  -0.055691  0.000467  -0.160617  -0.16816  0.000222  3.924538  0.0
C  C281  1  0.45037730  0.07374542  0.74428583  1  -0.055814  0.000467  -0.160623  -0.168234  0.000222  3.924564  0.0
C  C282  1  0.04962203  0.57374492  0.24428551  1  -0.055638  0.000467  -0.160625  -0.168226  0.000222  3.924372  0.0
C  C283  1  0.54962243  0.92625478  0.25571374  1  -0.055649  0.000467  -0.160605  -0.168196  0.000222  3.924359  0.0
C  C284  1  0.82007545  0.56577894  0.61147566  1  0.311547  0.002162  0.001202  -0.109726  0.001023  3.942788  0.001
C  C285  1  0.32007734  0.93422140  0.88852435  1  0.311545  0.002163  0.001206  -0.109666  0.001023  3.942731  0.001
C  C286  1  0.17992487  0.43422245  0.38852431  1  0.311558  0.002163  0.001254  -0.109644  0.001023  3.942735  0.001
C  C287  1  0.67992418  0.06577821  0.11147558  1  0.311535  0.002163  0.00121  -0.109686  0.001023  3.942729  0.001
C  C288  1  0.92289268  0.49599650  0.73099373  1  0.00418  0.000346  -0.158863  -0.163525  0.000197  3.941972  0.0
C  C289  1  0.42289297  0.00400247  0.76900617  1  0.004312  0.000346  -0.15889  -0.163553  0.000197  3.941989  0.0
C  C290  1  0.07710586  0.50400132  0.26900562  1  0.004187  0.000346  -0.158878  -0.163537  0.000197  3.941868  0.0
C  C291  1  0.57710735  0.99599834  0.23099416  1  0.004251  0.000346  -0.158892  -0.163532  0.000197  3.941857  0.0
C  C292  1  0.83558437  0.48934514  0.70580795  1  0.297694  0.000954  -0.051735  -0.072066  0.000558  3.875838  0.001
C  C293  1  0.33558463  0.01065578  0.79419263  1  0.297617  0.000954  -0.051675  -0.07193  0.000558  3.875818  0.001
C  C294  1  0.16441596  0.51065328  0.29419159  1  0.297915  0.000953  -0.051712  -0.072107  0.000558  3.875736  0.001
C  C295  1  0.66441628  0.98934622  0.20580809  1  0.297701  0.000954  -0.0517  -0.072056  0.000558  3.875766  0.001
C  C296  1  0.06241540  0.26843908  0.70885211  1  0.957541  0.004659  0.144055  0.09177  0.002446  3.909118  0.003
C  C297  1  0.56241850  0.23156116  0.79114893  1  0.95724  0.004661  0.144062  0.091799  0.002447  3.909383  0.003
C  C298  1  0.93758254  0.73155874  0.29114779  1  0.95761  0.00466  0.144094  0.091918  0.002446  3.909264  0.003
C  C299  1  0.43758421  0.76844203  0.20885219  1  0.957601  0.004661  0.144046  0.091798  0.002446  3.909208  0.003
C  C300  1  0.94793361  0.23371458  0.74837132  1  0.336853  0.002291  0.003157  -0.100533  0.001096  3.893726  0.002
C  C301  1  0.44793525  0.26628614  0.75162969  1  0.336614  0.002291  0.003169  -0.100586  0.001096  3.893776  0.002
C  C302  1  0.05206374  0.76628562  0.25162770  1  0.336717  0.00229  0.003211  -0.100466  0.001096  3.893797  0.002
C  C303  1  0.55206448  0.73371589  0.24837436  1  0.336788  0.002291  0.003206  -0.100425  0.001096  3.89367  0.002
C  C304  1  0.00862687  0.19048417  0.76527802  1  0.374358  0.004229  0.002793  -0.026934  0.002582  3.998984  0.004
C  C305  1  0.50862867  0.30951676  0.73472216  1  0.374291  0.00423  0.002759  -0.026964  0.002583  3.999047  0.004
C  C306  1  0.99137167  0.80951483  0.23472061  1  0.374375  0.00423  0.002704  -0.027081  0.002583  3.999146  0.004
C  C307  1  0.49137165  0.69048585  0.26527987  1  0.374309  0.00423  0.002714  -0.027122  0.002583  3.999217  0.004
C  C308  1  0.50240962  0.76297401  0.73728150  1  0.395231  0.002634  -0.001511  -0.031484  0.001232  3.996851  0.002
C  C309  1  0.00241190  0.73702934  0.76272297  1  0.395243  0.002634  -0.001476  -0.031489  0.001232  3.996466  0.002
C  C310  1  0.49759427  0.23702860  0.26272163  1  0.395441  0.002635  -0.001491  -0.031518  0.001233  3.996838  0.002
C  C311  1  0.99759258  0.26296968  0.23727733  1  0.395057  0.002635  -0.001515  -0.031509  0.001233  3.996821  0.002
C  C312  1  0.56400362  0.65662843  0.74131134  1  0.962643  0.00771  0.140946  0.082892  0.004615  3.923701  0.006
C  C313  1  0.06400453  0.84337181  0.75868930  1  0.962476  0.007709  0.140971  0.082953  0.004614  3.923959  0.006
C  C314  1  0.43599433  0.34337000  0.25868931  1  0.962428  0.00771  0.140966  0.082915  0.004615  3.923795  0.006
C  C315  1  0.93599341  0.15663080  0.24131217  1  0.962417  0.007711  0.140951  0.082821  0.004615  3.923813  0.006
C  C316  1  0.27033864  0.31162212  0.90667191  1  0.379386  0.002927  0.000413  -0.031063  0.001798  3.997499  0.003
C  C317  1  0.77033834  0.18837475  0.59332792  1  0.379258  0.002929  0.000412  -0.030968  0.001798  3.99763  0.003
C  C318  1  0.72966347  0.68837573  0.09333021  1  0.379277  0.002927  0.00051  -0.030913  0.001798  3.997533  0.003
C  C319  1  0.22965960  0.81161764  0.40666411  1  0.379036  0.002927  0.000594  -0.03071  0.001798  3.997493  0.003
C  C320  1  0.44484608  0.70795420  0.73669437  1  0.315326  0.005645  0.00018  -0.104967  0.002986  3.897949  0.004
C  C321  1  0.94484850  0.79205191  0.76331025  1  0.315296  0.005645  0.000176  -0.104886  0.002986  3.897795  0.004
C  C322  1  0.55515365  0.29204601  0.26330521  1  0.315117  0.005645  0.000158  -0.104868  0.002986  3.898001  0.004
C  C323  1  0.05515123  0.20795547  0.23669335  1  0.315233  0.005644  0.000269  -0.104846  0.002985  3.898058  0.004
C  C324  1  0.45189272  0.56460407  0.73647801  1  0.307746  0.000876  -0.054819  -0.074147  0.000515  3.877733  0.001
C  C325  1  0.95189429  0.93539783  0.76352356  1  0.30765  0.000876  -0.05488  -0.074208  0.000515  3.877894  0.001
C  C326  1  0.54810642  0.43539673  0.26352231  1  0.308152  0.000876  -0.054871  -0.07423  0.000515  3.877854  0.001
C  C327  1  0.04810603  0.06460299  0.23647844  1  0.308232  0.000876  -0.05486  -0.074221  0.000515  3.877732  0.001
C  C328  1  0.29821574  0.38875423  0.92979190  1  0.29357  0.002477  0.004504  -0.11055  0.001283  3.937862  0.002
C  C329  1  0.79821320  0.11124200  0.57020825  1  0.293745  0.002477  0.004496  -0.110732  0.001283  3.938086  0.002
C  C330  1  0.70178815  0.61124303  0.07021058  1  0.293785  0.002477  0.004487  -0.110712  0.001283  3.938221  0.002
C  C331  1  0.20178653  0.88875222  0.42978714  1  0.293994  0.002477  0.004453  -0.110898  0.001283  3.93831  0.002
C  C332  1  0.39347865  0.57200596  0.80301321  1  -0.015284  0.000252  -0.159357  -0.160364  0.000154  3.937651  0.0
C  C333  1  0.89348086  0.92799307  0.69698744  1  -0.015254  0.000252  -0.159347  -0.160379  0.000154  3.937755  0.0
C  C334  1  0.60651989  0.42799306  0.19698652  1  -0.015259  0.000252  -0.159329  -0.16036  0.000154  3.937712  0.0
C  C335  1  0.10652005  0.07200655  0.30301305  1  -0.01527  0.000251  -0.159325  -0.160364  0.000154  3.937648  0.0
C  C336  1  0.25302527  0.35388095  0.80794621  1  0.951908  0.001818  0.142378  0.0837  0.000751  3.918916  0.002
C  C337  1  0.75302440  0.14611717  0.69205680  1  0.951989  0.001818  0.14235  0.083706  0.000751  3.918775  0.002
C  C338  1  0.74697565  0.64611810  0.19205685  1  0.951999  0.001817  0.142359  0.083683  0.000751  3.918833  0.002
C  C339  1  0.24697533  0.85388181  0.30793961  1  0.952668  0.001817  0.142339  0.083633  0.000751  3.91865  0.002
C  C340  1  0.37376871  0.48903290  0.80494117  1  -0.066966  0.000312  -0.159698  -0.164917  0.000155  3.953362  0.0
C  C341  1  0.87376747  0.01096616  0.69505878  1  -0.067003  0.000312  -0.159744  -0.165035  0.000155  3.953425  0.0
C  C342  1  0.62623221  0.51096612  0.19505912  1  -0.066989  0.000312  -0.159701  -0.164888  0.000155  3.953352  0.0
C  C343  1  0.12623107  0.98903345  0.30494060  1  -0.067061  0.000312  -0.159739  -0.16505  0.000155  3.953376  0.0
C  C344  1  0.30680420  0.49286049  0.86279919  1  0.337155  0.000943  -0.048348  -0.06289  0.000584  3.884745  0.001
C  C345  1  0.80680240  0.00713691  0.63720135  1  0.336934  0.000943  -0.04833  -0.062927  0.000584  3.884629  0.001
C  C346  1  0.69319731  0.50713795  0.13720312  1  0.336944  0.000943  -0.048334  -0.062891  0.000584  3.884646  0.001
C  C347  1  0.19319792  0.99285972  0.36279816  1  0.33725  0.000943  -0.048298  -0.062843  0.000584  3.884584  0.001
N  N348  1  0.75403987  0.67186696  0.69143973  1  -1.236882  0.064311  -0.36411  -0.314407  0.033634  3.662585  0.044
N  N349  1  0.25404078  0.82813471  0.80856130  1  -1.236836  0.064316  -0.364125  -0.31447  0.033636  3.662814  0.044
N  N350  1  0.24596046  0.32813386  0.30856170  1  -1.236895  0.064313  -0.364113  -0.314443  0.033635  3.662628  0.044
N  N351  1  0.74596073  0.17186608  0.19143736  1  -1.236849  0.064314  -0.364106  -0.314405  0.033635  3.662488  0.044
N  N352  1  0.80945627  0.55710164  0.68392074  1  -1.227585  0.005852  -0.24042  0.045151  0.002752  3.786961  0.005
N  N353  1  0.30945520  0.94290053  0.81608154  1  -1.227578  0.005852  -0.240489  0.045053  0.002752  3.786951  0.005
N  N354  1  0.19054405  0.44289797  0.31607975  1  -1.227606  0.005852  -0.240458  0.045128  0.002752  3.786995  0.005
N  N355  1  0.69054393  0.05710147  0.18391974  1  -1.227628  0.005851  -0.24047  0.045083  0.002752  3.786991  0.005
N  N356  1  0.98300664  0.28245980  0.71236422  1  -1.220869  0.006456  -0.241104  0.0445  0.002965  3.778253  0.005
N  N357  1  0.48300954  0.21753967  0.78763747  1  -1.22083  0.006457  -0.241114  0.044535  0.002965  3.778418  0.005
N  N358  1  0.01699249  0.71753981  0.28763571  1  -1.220836  0.006457  -0.24109  0.044457  0.002965  3.778323  0.005
N  N359  1  0.51699316  0.78246115  0.21236452  1  -1.220878  0.006457  -0.241058  0.044626  0.002965  3.778054  0.005
N  N360  1  0.07988055  0.21293555  0.74058955  1  -1.199995  0.063273  -0.365083  -0.311635  0.033077  3.681288  0.039
N  N361  1  0.57988358  0.28706587  0.75941297  1  -1.199921  0.063273  -0.365092  -0.311721  0.033079  3.681415  0.039
N  N362  1  0.92011679  0.78706347  0.25941074  1  -1.199863  0.063275  -0.365127  -0.311723  0.03308  3.681424  0.039
N  N363  1  0.42011734  0.71293734  0.24058925  1  -1.199809  0.063274  -0.3651  -0.311676  0.033079  3.681409  0.039
N  N364  1  0.57660634  0.73002341  0.73969981  1  -1.204818  0.064243  -0.369796  -0.315474  0.03383  3.701262  0.039
N  N365  1  0.07661035  0.76998097  0.76030053  1  -1.204824  0.064245  -0.369778  -0.315508  0.033831  3.701417  0.039
N  N366  1  0.42339339  0.26997500  0.26029806  1  -1.204633  0.06424  -0.369841  -0.315457  0.03383  3.701352  0.039
N  N367  1  0.92339235  0.23002640  0.23970140  1  -1.204729  0.064243  -0.369873  -0.315477  0.03383  3.701304  0.039
N  N368  1  0.24232819  0.29050594  0.83027619  1  -1.210778  0.066038  -0.362411  -0.311618  0.034372  3.671181  0.045
N  N369  1  0.74232841  0.20949277  0.66972370  1  -1.210865  0.066043  -0.362364  -0.311611  0.034374  3.671125  0.045
N  N370  1  0.75767273  0.70949249  0.16972502  1  -1.21095  0.066042  -0.362417  -0.311638  0.034372  3.671207  0.045
N  N371  1  0.25767072  0.79050442  0.33027100  1  -1.211603  0.066045  -0.362497  -0.311738  0.034376  3.671068  0.045
N  N372  1  0.48506602  0.64109176  0.73913036  1  -1.25405  0.004787  -0.242459  0.051806  0.00194  3.775166  0.003
N  N373  1  0.98507249  0.85891188  0.76087176  1  -1.253989  0.004788  -0.242535  0.051605  0.00194  3.77545  0.003
N  N374  1  0.51493014  0.35891025  0.26087091  1  -1.253851  0.004788  -0.242462  0.051741  0.00194  3.775054  0.003
N  N375  1  0.01493081  0.14109131  0.23912880  1  -1.25378  0.004788  -0.242486  0.051814  0.00194  3.774955  0.003
N  N376  1  0.28660387  0.41456506  0.86682725  1  -1.240578  0.005485  -0.240291  0.046079  0.00256  3.791647  0.004
N  N377  1  0.78660134  0.08543178  0.63317312  1  -1.240589  0.005486  -0.240235  0.046244  0.00256  3.79163  0.004
N  N378  1  0.71340003  0.58543279  0.13317542  1  -1.240593  0.005485  -0.240266  0.046254  0.002559  3.791666  0.004
N  N379  1  0.21339839  0.91456603  0.36682512  1  -1.240667  0.005486  -0.240271  0.046351  0.00256  3.791606  0.004
O  O380  1  0.31541713  0.64750685  0.35394253  1  -1.164692  0.101449  -0.338219  -0.570217  0.051714  2.419639  0.078
O  O381  1  0.81541534  0.85249475  0.14605723  1  -1.16467  0.101449  -0.338269  -0.570256  0.051716  2.419795  0.078
O  O382  1  0.68459212  0.35249333  0.64605427  1  -1.164784  0.101434  -0.338173  -0.570103  0.051711  2.419291  0.078
O  O383  1  0.18458260  0.14750548  0.85394512  1  -1.164494  0.101435  -0.338236  -0.570188  0.051714  2.419784  0.078
O  O384  1  0.60287471  0.88992933  0.69521642  1  -1.176228  0.028371  -0.325071  -0.554252  0.013873  2.106584  0.023
O  O385  1  0.10287540  0.61007202  0.80478402  1  -1.176212  0.028373  -0.325081  -0.554256  0.013873  2.106558  0.023
O  O386  1  0.39712502  0.11007148  0.30478391  1  -1.176257  0.028369  -0.325067  -0.554257  0.013873  2.106654  0.023
O  O387  1  0.89712313  0.38992818  0.19521500  1  -1.176153  0.02837  -0.325059  -0.554186  0.013873  2.106829  0.023
O  O388  1  0.68825725  0.79366571  0.62731058  1  -1.138683  0.099553  -0.333956  -0.551817  0.050732  2.307977  0.078
O  O389  1  0.18825893  0.70633487  0.87268791  1  -1.138697  0.099558  -0.333968  -0.551843  0.050735  2.307929  0.078
O  O390  1  0.31174248  0.20633510  0.37268975  1  -1.138683  0.099557  -0.333937  -0.551772  0.050733  2.307951  0.078
O  O391  1  0.81174020  0.29366649  0.12730762  1  -1.138698  0.099558  -0.333923  -0.551741  0.050733  2.307911  0.078
O  O392  1  0.76670930  0.77546429  0.35208989  1  -1.176913  0.044541  -0.323951  -0.565853  0.021862  2.141149  0.037
O  O393  1  0.26670929  0.72453563  0.14791099  1  -1.176972  0.044544  -0.323964  -0.565861  0.021863  2.141111  0.037
O  O394  1  0.23329221  0.22453593  0.64791079  1  -1.17696  0.044543  -0.323933  -0.565826  0.021859  2.141239  0.037
O  O395  1  0.73328806  0.27546816  0.85208921  1  -1.177085  0.044556  -0.324033  -0.565901  0.021867  2.140863  0.037
O  O396  1  0.58441762  0.07263853  0.54278294  1  -1.085015  6.7e-05  -0.184385  -0.205565  -1.6e-05  2.549821  0.0
O  O397  1  0.08441949  0.42736165  0.95721641  1  -1.084923  6.7e-05  -0.184415  -0.205635  -1.6e-05  2.549786  0.0
O  O398  1  0.41558091  0.92736108  0.45721644  1  -1.085027  6.7e-05  -0.18441  -0.205635  -1.6e-05  2.549802  0.0
O  O399  1  0.91558084  0.57264095  0.04278507  1  -1.085071  6.7e-05  -0.184325  -0.20555  -1.6e-05  2.549811  0.0
O  O400  1  0.39681046  0.42316713  0.52940177  1  -1.091894  0.000425  -0.189251  -0.219201  0.000188  2.570265  0.0
O  O401  1  0.89681016  0.07683127  0.97059574  1  -1.091794  0.000425  -0.189282  -0.219264  0.000188  2.570264  0.0
O  O402  1  0.60318689  0.57683069  0.47059702  1  -1.091871  0.000425  -0.18927  -0.219187  0.000188  2.570423  0.0
O  O403  1  0.10318897  0.92316953  0.02940459  1  -1.091745  0.000425  -0.189329  -0.219317  0.000188  2.570291  0.0
O  O404  1  0.38436238  0.53342306  0.29603537  1  -1.194505  0.014082  -0.329728  -0.565464  0.006799  2.131887  0.011
O  O405  1  0.88435858  0.96657721  0.20396280  1  -1.193913  0.014079  -0.329703  -0.565349  0.006798  2.131941  0.011
O  O406  1  0.61563973  0.46657417  0.70396378  1  -1.194348  0.014083  -0.329786  -0.565504  0.006799  2.131692  0.011
O  O407  1  0.11563818  0.03342419  0.79603716  1  -1.194451  0.014081  -0.329714  -0.565354  0.006799  2.13192  0.011
O  O408  1  0.74357476  0.88216851  0.31690510  1  -1.1296  0.10039  -0.334912  -0.555878  0.051409  2.321048  0.077
O  O409  1  0.24357371  0.61783083  0.18309394  1  -1.129806  0.100393  -0.334885  -0.555868  0.051408  2.320988  0.077
O  O410  1  0.25642676  0.11783230  0.68309578  1  -1.129559  0.100395  -0.334926  -0.555924  0.051412  2.320952  0.077
O  O411  1  0.75643137  0.38216935  0.81690286  1  -1.129742  0.100387  -0.334893  -0.555876  0.051407  2.321024  0.077
O  O412  1  0.23763521  0.64624837  0.69274488  1  -1.136473  0.101569  -0.338348  -0.557566  0.051849  2.346373  0.078
O  O413  1  0.73763274  0.85375093  0.80725372  1  -1.13636  0.101582  -0.33841  -0.557649  0.051856  2.34634  0.078
O  O414  1  0.76236035  0.35374762  0.30724944  1  -1.136494  0.101573  -0.338382  -0.557628  0.05185  2.346288  0.078
O  O415  1  0.26236521  0.14625107  0.19274644  1  -1.136386  0.101571  -0.338395  -0.557645  0.05185  2.346379  0.078
O  O416  1  0.21838520  0.72993354  0.62508085  1  -1.174286  0.029415  -0.3363  -0.566322  0.014328  2.084823  0.024
O  O417  1  0.71838105  0.77006879  0.87491986  1  -1.174344  0.02941  -0.336327  -0.566433  0.014326  2.084943  0.024
O  O418  1  0.78161632  0.27006605  0.37491742  1  -1.174314  0.029413  -0.336294  -0.566374  0.014328  2.084856  0.024
O  O419  1  0.28161570  0.22993441  0.12508125  1  -1.174355  0.029414  -0.336311  -0.566396  0.014328  2.084825  0.024
