# generated using pymatgen
data_Er2Cd3H36(C2O3)12
_symmetry_space_group_name_H-M   'P 1'
_cell_length_a   18.45584931
_cell_length_b   18.45581446
_cell_length_c   18.45580636
_cell_angle_alpha   59.99971203
_cell_angle_beta   59.99996228
_cell_angle_gamma   59.99982015
_symmetry_Int_Tables_number   1
_chemical_formula_structural   Er2Cd3H36(C2O3)12
_chemical_formula_sum   'Er8 Cd12 H144 C96 O144'
_cell_volume   4445.12132474
_cell_formula_units_Z   4
loop_
 _symmetry_equiv_pos_site_id
 _symmetry_equiv_pos_as_xyz
  1  'x, y, z'
loop_
 _atom_site_type_symbol
 _atom_site_label
 _atom_site_symmetry_multiplicity
 _atom_site_fract_x
 _atom_site_fract_y
 _atom_site_fract_z
 _atom_site_occupancy
 _atom_site_pbe_bader_charge
 _atom_site_pbe_bader_spin_density
 _atom_site_pbe_cm5_charge
 _atom_site_pbe_ddec_charge
 _atom_site_pbe_ddec_spin_density
 _atom_site_pbe_ddec_sum_bond_order
 _atom_site_pbe_magmom
Er  Er0  1  0.74997776  0.24999579  0.25000368  1  2.161122  0  1.528405  1.953065  0  2.300698  0
Er  Er1  1  0.24999223  0.25000330  0.24999306  1  2.165763  0  1.528321  1.952977  0  2.30066  0
Er  Er2  1  0.74999221  0.75000300  0.24999998  1  2.165709  0  1.52846  1.953011  0  2.300903  0
Er  Er3  1  0.74998633  0.25002136  0.75000052  1  2.165813  0  1.528382  1.953409  0  2.300105  0
Er  Er4  1  0.24998822  0.75001882  0.74998469  1  2.161014  0  1.528427  1.953475  0  2.299968  0
Er  Er5  1  0.74998540  0.75000561  0.75000861  1  2.165806  0  1.528298  1.953021  0  2.300841  0
Er  Er6  1  0.25001555  0.24997210  0.75000737  1  2.165908  0  1.528392  1.953182  0  2.300477  0
Er  Er7  1  0.24998288  0.75000731  0.24999181  1  2.165749  0  1.528429  1.953285  0  2.300362  0
Cd  Cd8  1  0.50000398  0.49999686  0.49999758  1  1.400911  0  0.802087  1.114155  0  2.220838  0
Cd  Cd9  1  0.49999922  0.49999677  0.00000132  1  1.400864  0  0.8021  1.11419  0  2.221113  0
Cd  Cd10  1  0.99999888  0.49999472  0.00000296  1  1.400908  0  0.802073  1.114169  0  2.221162  0
Cd  Cd11  1  0.50000430  0.00000042  0.00000051  1  1.399102  0  0.802065  1.114141  0  2.220981  0
Cd  Cd12  1  0.99999869  0.99999563  0.50000140  1  1.400889  0  0.802137  1.114207  0  2.220939  0
Cd  Cd13  1  0.49999939  0.99999589  0.50000185  1  1.400891  0  0.802177  1.114246  0  2.220851  0
Cd  Cd14  1  0.00000278  0.49999846  0.50000057  1  1.399135  0  0.802167  1.11425  0  2.220814  0
Cd  Cd15  1  0.00000426  0.99999888  0.99999585  1  1.400878  0  0.802125  1.11417  0  2.220861  0
Cd  Cd16  1  0.62500090  0.12500255  0.12499940  1  1.473354  0  0.824205  1.273423  0  1.955116  0
Cd  Cd17  1  0.87500191  0.37500813  0.37499799  1  1.473385  0  0.824103  1.273256  0  1.955203  0
Cd  Cd18  1  0.37499871  0.87500125  0.87500133  1  1.473344  0  0.824339  1.273536  0  1.955109  0
Cd  Cd19  1  0.12499931  0.62500162  0.62500182  1  1.473378  0  0.824261  1.273453  0  1.954996  0
H  H20  1  0.50422594  0.42457145  0.34868122  1  0.081529  0  0.110217  0.102558  0  0.980364  0
H  H21  1  0.27746913  0.49576511  0.07544996  1  0.101395  0  0.110229  0.102642  0  0.980358  0
H  H22  1  0.84868482  0.72253002  0.00422602  1  0.092392  0  0.110207  0.102567  0  0.98033  0
H  H23  1  0.57544369  0.15131994  0.77747346  1  0.066254  0  0.110242  0.102654  0  0.980264  0
H  H24  1  0.92456706  0.00422645  0.72252817  1  0.101525  0  0.110216  0.102581  0  0.980311  0
H  H25  1  0.65131528  0.07544584  0.49576553  1  0.081601  0  0.110228  0.102589  0  0.980336  0
H  H26  1  0.22252353  0.34867900  0.42456403  1  0.066451  0  0.110265  0.102631  0  0.980312  0
H  H27  1  0.99576491  0.77747635  0.15131586  1  0.092574  0  0.110227  0.102592  0  0.980351  0
H  H28  1  0.50423721  0.34868877  0.72252617  1  0.092544  0  0.110226  0.102609  0  0.980329  0
H  H29  1  0.57543432  0.49577090  0.15131719  1  0.081539  0  0.110242  0.102681  0  0.980288  0
H  H30  1  0.22252191  0.42456820  0.00422975  1  0.101524  0  0.110231  0.102609  0  0.980393  0
H  H31  1  0.65131695  0.77747719  0.07544170  1  0.066536  0  0.110259  0.102629  0  0.98038  0
H  H32  1  0.84868397  0.00423572  0.42455360  1  0.081499  0  0.110219  0.10261  0  0.980392  0
H  H33  1  0.27747405  0.15131028  0.49577183  1  0.092307  0  0.110233  0.102654  0  0.980301  0
H  H34  1  0.92456306  0.72252660  0.34868537  1  0.06646  0  0.110214  0.102637  0  0.980305  0
H  H35  1  0.99577632  0.07543907  0.77747725  1  0.101423  0  0.110179  0.102598  0  0.980364  0
H  H36  1  0.50422728  0.72253288  0.42455607  1  0.101479  0  0.110216  0.102582  0  0.980365  0
H  H37  1  0.99576519  0.15131524  0.07544249  1  0.081616  0  0.110231  0.102622  0  0.980356  0
H  H38  1  0.65132287  0.49576724  0.77746892  1  0.092603  0  0.110235  0.102591  0  0.980331  0
H  H39  1  0.57544062  0.77747602  0.49576659  1  0.101578  0  0.110273  0.102697  0  0.980334  0
H  H40  1  0.27747188  0.07544437  0.15131434  1  0.066394  0  0.11023  0.102629  0  0.980343  0
H  H41  1  0.22252345  0.00422598  0.34868382  1  0.092387  0  0.110226  0.102677  0  0.980322  0
H  H42  1  0.92456072  0.34868504  0.00422517  1  0.081705  0  0.110189  0.102567  0  0.98037  0
H  H43  1  0.84868992  0.42456302  0.72251843  1  0.066377  0  0.110244  0.10268  0  0.980278  0
H  H44  1  0.49577272  0.57543465  0.65131550  1  0.081502  0  0.110219  0.102634  0  0.980335  0
H  H45  1  0.72252158  0.50423195  0.92456641  1  0.101464  0  0.110259  0.102667  0  0.980344  0
H  H46  1  0.15132350  0.27746190  0.99577124  1  0.092486  0  0.110217  0.102618  0  0.980345  0
H  H47  1  0.42455475  0.84868485  0.22252811  1  0.066499  0  0.110202  0.102557  0  0.980344  0
H  H48  1  0.07543343  0.99577390  0.27747314  1  0.101475  0  0.110215  0.102572  0  0.980378  0
H  H49  1  0.34868541  0.92455687  0.50423520  1  0.081658  0  0.11024  0.102674  0  0.980332  0
H  H50  1  0.77747116  0.65131447  0.57544597  1  0.06653  0  0.110254  0.102638  0  0.980315  0
H  H51  1  0.00424027  0.22252652  0.84868156  1  0.092646  0  0.110271  0.102675  0  0.980345  0
H  H52  1  0.49576372  0.65131743  0.27747548  1  0.092502  0  0.110228  0.102646  0  0.980351  0
H  H53  1  0.42457060  0.50422520  0.84868328  1  0.081555  0  0.110213  0.102631  0  0.980347  0
H  H54  1  0.77747751  0.57543649  0.99577227  1  0.101401  0  0.110221  0.102629  0  0.980372  0
H  H55  1  0.34869126  0.22251787  0.92455519  1  0.066375  0  0.110227  0.102648  0  0.980406  0
H  H56  1  0.15131969  0.99576779  0.57544338  1  0.081522  0  0.11021  0.1026  0  0.980292  0
H  H57  1  0.72252736  0.84868557  0.50423239  1  0.09247  0  0.110233  0.102597  0  0.980342  0
H  H58  1  0.07543572  0.27747420  0.65131720  1  0.066337  0  0.110222  0.102658  0  0.980315  0
H  H59  1  0.00422991  0.92456702  0.22251855  1  0.101443  0  0.11024  0.102667  0  0.980414  0
H  H60  1  0.49577687  0.27747437  0.57543269  1  0.101418  0  0.110211  0.102587  0  0.980352  0
H  H61  1  0.00423011  0.84868642  0.92455408  1  0.081438  0  0.110245  0.102597  0  0.980348  0
H  H62  1  0.34867957  0.50423505  0.22253247  1  0.09258  0  0.110258  0.102646  0  0.98035  0
H  H63  1  0.42456293  0.22252414  0.50423053  1  0.101587  0  0.110262  0.102699  0  0.980288  0
H  H64  1  0.72252148  0.92456294  0.84868315  1  0.066506  0  0.110235  0.102644  0  0.980357  0
H  H65  1  0.77746979  0.99577362  0.65131819  1  0.092417  0  0.110213  0.102593  0  0.980385  0
H  H66  1  0.07543274  0.65131694  0.99577158  1  0.081552  0  0.110257  0.102713  0  0.980284  0
H  H67  1  0.15131333  0.57543467  0.27748012  1  0.066634  0  0.110212  0.102623  0  0.980342  0
H  H68  1  0.57881750  0.48559044  0.29181233  1  0.084119  0  0.113968  0.1058  0  0.970862  0
H  H69  1  0.35622598  0.42118808  0.01441281  1  0.096269  0  0.113925  0.105801  0  0.970837  0
H  H70  1  0.79181861  0.64377535  0.07881694  1  0.081038  0  0.113955  0.105823  0  0.970807  0
H  H71  1  0.51441621  0.20817941  0.85622776  1  0.108696  0  0.113938  0.105833  0  0.970817  0
H  H72  1  0.98560512  0.07881413  0.64376625  1  0.095834  0  0.113944  0.10577  0  0.970884  0
H  H73  1  0.70817375  0.01440433  0.42118354  1  0.084  0  0.113943  0.105873  0  0.970835  0
H  H74  1  0.14376231  0.29181834  0.48559975  1  0.108562  0  0.11395  0.10585  0  0.970872  0
H  H75  1  0.92119201  0.85624169  0.20816878  1  0.08095  0  0.113908  0.105812  0  0.970873  0
H  H76  1  0.57881918  0.29182925  0.64376763  1  0.080883  0  0.113908  0.105787  0  0.970796  0
H  H77  1  0.51439204  0.42119640  0.20816708  1  0.083829  0  0.113931  0.105824  0  0.970847  0
H  H78  1  0.14376299  0.48559071  0.07882284  1  0.096254  0  0.113977  0.105905  0  0.97085  0
H  H79  1  0.70816963  0.85623997  0.01440642  1  0.108622  0  0.113934  0.105875  0  0.970855  0
H  H80  1  0.79181720  0.07882355  0.48558162  1  0.084284  0  0.113929  0.105809  0  0.970846  0
H  H81  1  0.35622950  0.20817170  0.42118558  1  0.08095  0  0.113929  0.105794  0  0.970769  0
H  H82  1  0.98558673  0.64377740  0.29181733  1  0.108731  0  0.113941  0.105823  0  0.970803  0
H  H83  1  0.92118763  0.01440446  0.85623939  1  0.09612  0  0.113905  0.105787  0  0.97095  0
H  H84  1  0.57881331  0.64377275  0.48559211  1  0.096156  0  0.113947  0.105804  0  0.970849  0
H  H85  1  0.92118595  0.20817571  0.01440092  1  0.084113  0  0.113959  0.105869  0  0.970873  0
H  H86  1  0.70817997  0.42118885  0.85622959  1  0.081325  0  0.113964  0.105848  0  0.97082  0
H  H87  1  0.51440438  0.85623795  0.42118624  1  0.096018  0  0.113924  0.105829  0  0.970927  0
H  H88  1  0.35622983  0.01440535  0.20817503  1  0.108539  0  0.113956  0.105859  0  0.97088  0
H  H89  1  0.14376396  0.07881589  0.29182002  1  0.081027  0  0.113958  0.105884  0  0.970817  0
H  H90  1  0.98558746  0.29182115  0.07882201  1  0.08419  0  0.113927  0.105776  0  0.970812  0
H  H91  1  0.79183118  0.48559060  0.64376399  1  0.108732  0  0.113927  0.105803  0  0.970917  0
H  H92  1  0.42119055  0.51439904  0.70817701  1  0.083963  0  0.113932  0.105837  0  0.970874  0
H  H93  1  0.64375955  0.57881247  0.98560459  1  0.095924  0  0.113948  0.105848  0  0.970902  0
H  H94  1  0.20818882  0.35621568  0.92117944  1  0.081168  0  0.113937  0.105862  0  0.970743  0
H  H95  1  0.48559125  0.79182574  0.14376443  1  0.108729  0  0.113901  0.105812  0  0.970847  0
H  H96  1  0.01440000  0.92119085  0.35622844  1  0.095982  0  0.11396  0.105844  0  0.970877  0
H  H97  1  0.29182651  0.98558494  0.57882244  1  0.08419  0  0.113941  0.105874  0  0.970806  0
H  H98  1  0.85622273  0.70818173  0.51441529  1  0.108658  0  0.11394  0.105798  0  0.970812  0
H  H99  1  0.07881085  0.14375127  0.79183755  1  0.080585  0  0.113912  0.105848  0  0.970833  0
H  H100  1  0.42117282  0.70818102  0.35623159  1  0.080842  0  0.113938  0.105851  0  0.970767  0
H  H101  1  0.48559719  0.57881544  0.79182403  1  0.083974  0  0.113932  0.105821  0  0.9709  0
H  H102  1  0.85622719  0.51440908  0.92118337  1  0.09617  0  0.113943  0.105792  0  0.970878  0
H  H103  1  0.29184124  0.14375125  0.98559364  1  0.10865  0  0.113917  0.105809  0  0.97099  0
H  H104  1  0.20817916  0.92118241  0.51440825  1  0.084125  0  0.113954  0.105874  0  0.970749  0
H  H105  1  0.64376001  0.79183067  0.57881407  1  0.080842  0  0.113929  0.105853  0  0.970872  0
H  H106  1  0.01442329  0.35621622  0.70818914  1  0.108883  0  0.11394  0.105873  0  0.970882  0
H  H107  1  0.07880995  0.98560056  0.14376281  1  0.095961  0  0.113948  0.105871  0  0.970894  0
H  H108  1  0.42118030  0.35621963  0.51441210  1  0.096222  0  0.113981  0.105819  0  0.970861  0
H  H109  1  0.07881042  0.79182702  0.98559484  1  0.084085  0  0.113961  0.105834  0  0.970805  0
H  H110  1  0.29182773  0.57880895  0.14376374  1  0.080925  0  0.113939  0.105865  0  0.97086  0
H  H111  1  0.48560976  0.14375220  0.57880366  1  0.095865  0  0.113905  0.105794  0  0.970901  0
H  H112  1  0.64375969  0.98559920  0.79183040  1  0.108514  0  0.113902  0.105822  0  0.970901  0
H  H113  1  0.85622502  0.92118487  0.70818044  1  0.081019  0  0.113943  0.105787  0  0.970839  0
H  H114  1  0.01440474  0.70817849  0.92118232  1  0.084139  0  0.113981  0.105919  0  0.970848  0
H  H115  1  0.20818234  0.51441302  0.35622765  1  0.108786  0  0.113988  0.105897  0  0.970854  0
H  H116  1  0.71600036  0.25335568  0.05498174  1  0.644216  0  0.299509  0.402631  0  0.918907  0
H  H117  1  0.02433163  0.28399973  0.24664149  1  0.62263  0  0.299517  0.402722  0  0.918891  0
H  H118  1  0.55498018  0.97566039  0.21601072  1  0.645444  0  0.299519  0.402728  0  0.918855  0
H  H119  1  0.74665003  0.44502174  0.52433631  1  0.658136  0  0.299525  0.402775  0  0.918803  0
H  H120  1  0.75335153  0.21600678  0.97566189  1  0.622674  0  0.299552  0.402712  0  0.918879  0
H  H121  1  0.94501117  0.24665585  0.28399264  1  0.64404  0  0.299496  0.402681  0  0.918845  0
H  H122  1  0.47566059  0.05497752  0.25335437  1  0.658003  0  0.299498  0.402701  0  0.91889  0
H  H123  1  0.78399714  0.52434205  0.44501733  1  0.645395  0  0.299417  0.402559  0  0.919067  0
H  H124  1  0.71600624  0.05498497  0.97565867  1  0.64551  0  0.299508  0.402749  0  0.918817  0
H  H125  1  0.74664670  0.28399670  0.44502440  1  0.644319  0  0.299564  0.402782  0  0.918714  0
H  H126  1  0.47566510  0.25334962  0.21600750  1  0.622755  0  0.299573  0.402803  0  0.918754  0
H  H127  1  0.94502676  0.52433790  0.24663916  1  0.657927  0  0.299476  0.402619  0  0.919007  0
H  H128  1  0.55498704  0.21600133  0.25335160  1  0.644016  0  0.299529  0.402745  0  0.918745  0
H  H129  1  0.02434264  0.44501631  0.28399223  1  0.645491  0  0.299496  0.402644  0  0.918949  0
H  H130  1  0.75335014  0.97566624  0.05498193  1  0.658051  0  0.299565  0.402814  0  0.918746  0
H  H131  1  0.78400191  0.24664556  0.52433547  1  0.622621  0  0.299518  0.402719  0  0.91888  0
H  H132  1  0.71600615  0.97565950  0.25335065  1  0.62265  0  0.299532  0.40276  0  0.918815  0
H  H133  1  0.78399140  0.44503366  0.24664124  1  0.644286  0  0.299499  0.402692  0  0.91885  0
H  H134  1  0.94502920  0.28399707  0.52433293  1  0.645382  0  0.299496  0.402726  0  0.918871  0
H  H135  1  0.74664342  0.52434503  0.28399562  1  0.622519  0  0.299473  0.402615  0  0.919003  0
H  H136  1  0.02434223  0.24664688  0.44501368  1  0.658029  0  0.299494  0.402659  0  0.918933  0
H  H137  1  0.47566340  0.21600609  0.05498028  1  0.645589  0  0.299546  0.402768  0  0.918795  0
H  H138  1  0.75334830  0.05498378  0.21600317  1  0.644111  0  0.299556  0.402796  0  0.918697  0
H  H139  1  0.55498080  0.25335592  0.97566504  1  0.658045  0  0.299526  0.402735  0  0.918842  0
H  H140  1  0.28399648  0.74664534  0.94502654  1  0.644461  0  0.299538  0.402808  0  0.918667  0
H  H141  1  0.97566269  0.71600636  0.75335493  1  0.622667  0  0.299535  0.402674  0  0.918929  0
H  H142  1  0.44501683  0.02434298  0.78399038  1  0.645451  0  0.299483  0.402709  0  0.918884  0
H  H143  1  0.25334876  0.55498557  0.47566107  1  0.658118  0  0.299537  0.402766  0  0.9188  0
H  H144  1  0.24664963  0.78399857  0.02434039  1  0.622567  0  0.299513  0.402698  0  0.91889  0
H  H145  1  0.05497907  0.75335809  0.71600002  1  0.644316  0  0.29951  0.402643  0  0.918886  0
H  H146  1  0.52433805  0.94501772  0.74665192  1  0.658147  0  0.299533  0.402741  0  0.918848  0
H  H147  1  0.21600120  0.47566699  0.55497412  1  0.645486  0  0.299524  0.402755  0  0.91882  0
H  H148  1  0.28398840  0.94501927  0.02434261  1  0.645411  0  0.299514  0.402696  0  0.918885  0
H  H149  1  0.25335386  0.71600480  0.55498034  1  0.644174  0  0.299505  0.402708  0  0.918809  0
H  H150  1  0.52434070  0.74665062  0.78399923  1  0.622568  0  0.299531  0.40275  0  0.91882  0
H  H151  1  0.05497691  0.47566454  0.75335821  1  0.657965  0  0.299509  0.402702  0  0.918874  0
H  H152  1  0.44502650  0.78399690  0.74664674  1  0.644345  0  0.299584  0.402863  0  0.918599  0
H  H153  1  0.97566166  0.55498026  0.71600441  1  0.645501  0  0.299508  0.402731  0  0.918844  0
H  H154  1  0.24665255  0.02433956  0.94501571  1  0.658156  0  0.299507  0.402688  0  0.91893  0
H  H155  1  0.21599707  0.75335869  0.47566611  1  0.622617  0  0.299496  0.402691  0  0.918908  0
H  H156  1  0.28399694  0.02434561  0.74665060  1  0.622442  0  0.299486  0.402681  0  0.918924  0
H  H157  1  0.21600479  0.55497972  0.75335599  1  0.644146  0  0.29949  0.402694  0  0.918823  0
H  H158  1  0.05497813  0.71600036  0.47566379  1  0.645492  0  0.299499  0.402729  0  0.918835  0
H  H159  1  0.25335950  0.47566425  0.71600294  1  0.622618  0  0.299503  0.402703  0  0.91889  0
H  H160  1  0.97566427  0.75335514  0.55497928  1  0.65799  0  0.299535  0.402726  0  0.91885  0
H  H161  1  0.52433575  0.78399725  0.94502468  1  0.645442  0  0.29952  0.402732  0  0.918842  0
H  H162  1  0.24664471  0.94502859  0.78399759  1  0.644426  0  0.299577  0.402831  0  0.918649  0
H  H163  1  0.44501243  0.74665450  0.02434143  1  0.658161  0  0.299495  0.402682  0  0.918912  0
C  C164  1  0.62012602  0.35932936  0.38876565  1  1.621939  0  0.22196  0.633991  0  4.161015  0
C  C165  1  0.36822107  0.37986505  0.14068268  1  1.624645  0  0.22197  0.633885  0  4.160905  0
C  C166  1  0.88877597  0.63177611  0.12013081  1  1.624456  0  0.221964  0.634073  0  4.160599  0
C  C167  1  0.64068582  0.11122793  0.86822585  1  1.623897  0  0.222108  0.634209  0  4.160345  0
C  C168  1  0.85933494  0.12012600  0.63177146  1  1.62497  0  0.221898  0.633967  0  4.160739  0
C  C169  1  0.61122364  0.14067117  0.37986811  1  1.62215  0  0.221933  0.633912  0  4.160889  0
C  C170  1  0.13177163  0.38876856  0.35932323  1  1.623991  0  0.222019  0.633962  0  4.160427  0
C  C171  1  0.87986459  0.86823870  0.11122516  1  1.624419  0  0.221914  0.633913  0  4.160858  0
C  C172  1  0.62013988  0.38877185  0.63177364  1  1.624033  0  0.222084  0.634067  0  4.160427  0
C  C173  1  0.64066967  0.37987495  0.11121542  1  1.622412  0  0.221991  0.634082  0  4.161175  0
C  C174  1  0.13177193  0.35931855  0.12013164  1  1.624902  0  0.221998  0.633974  0  4.1607  0
C  C175  1  0.61122799  0.86822844  0.14067529  1  1.624028  0  0.221925  0.633845  0  4.160955  0
C  C176  1  0.88877214  0.12013584  0.35931761  1  1.622097  0  0.222141  0.634257  0  4.160448  0
C  C177  1  0.36822284  0.11122353  0.37987105  1  1.623981  0  0.221986  0.633973  0  4.160781  0
C  C178  1  0.85932223  0.63177899  0.38877342  1  1.624175  0  0.22195  0.634033  0  4.160843  0
C  C179  1  0.87987734  0.14067755  0.86822906  1  1.625339  0  0.222173  0.634397  0  4.160472  0
C  C180  1  0.62012691  0.63177555  0.35932049  1  1.625062  0  0.222068  0.634055  0  4.160707  0
C  C181  1  0.87986560  0.11123315  0.14066922  1  1.622141  0  0.221862  0.633824  0  4.160849  0
C  C182  1  0.61123548  0.37986890  0.86822274  1  1.623761  0  0.222019  0.633929  0  4.160621  0
C  C183  1  0.64067268  0.86823133  0.37987628  1  1.625149  0  0.222019  0.63406  0  4.160877  0
C  C184  1  0.36822460  0.14067270  0.11123303  1  1.623657  0  0.221979  0.633928  0  4.160823  0
C  C185  1  0.13176807  0.12012773  0.38877680  1  1.62458  0  0.222073  0.634152  0  4.160881  0
C  C186  1  0.85931311  0.38877965  0.12012933  1  1.622297  0  0.221979  0.634041  0  4.160768  0
C  C187  1  0.88878577  0.35931756  0.63177149  1  1.624314  0  0.222141  0.634388  0  4.160593  0
C  C188  1  0.37987113  0.64067089  0.61123113  1  1.622207  0  0.221961  0.633971  0  4.160737  0
C  C189  1  0.63176223  0.62013002  0.85933181  1  1.624963  0  0.221955  0.63396  0  4.160864  0
C  C190  1  0.11123109  0.36821455  0.87986895  1  1.624786  0  0.22196  0.633967  0  4.160717  0
C  C191  1  0.35931826  0.88877818  0.13177076  1  1.624198  0  0.222  0.634069  0  4.160539  0
C  C192  1  0.14067138  0.87987260  0.36822908  1  1.625101  0  0.221981  0.634004  0  4.160872  0
C  C193  1  0.38877323  0.85931580  0.62013692  1  1.622141  0  0.222056  0.634036  0  4.160689  0
C  C194  1  0.86822114  0.61122731  0.64068232  1  1.623885  0  0.222026  0.634082  0  4.160738  0
C  C195  1  0.12013763  0.13176338  0.88877601  1  1.624255  0  0.221983  0.633973  0  4.160702  0
C  C196  1  0.37986077  0.61123083  0.36822517  1  1.624014  0  0.222115  0.634191  0  4.160357  0
C  C197  1  0.35932259  0.62012908  0.88877518  1  1.622289  0  0.222038  0.634188  0  4.16086  0
C  C198  1  0.86822449  0.64067447  0.87987243  1  1.624959  0  0.222024  0.634127  0  4.160682  0
C  C199  1  0.38878537  0.13175985  0.85932456  1  1.623514  0  0.222051  0.634206  0  4.160853  0
C  C200  1  0.11122896  0.87986294  0.64068135  1  1.622195  0  0.222054  0.633964  0  4.160675  0
C  C201  1  0.63176316  0.88877967  0.62013195  1  1.624246  0  0.222022  0.63406  0  4.160762  0
C  C202  1  0.14068790  0.36821474  0.61122753  1  1.624267  0  0.221886  0.633914  0  4.160902  0
C  C203  1  0.12012303  0.85933134  0.13177178  1  1.624863  0  0.221919  0.633942  0  4.161027  0
C  C204  1  0.37987706  0.36821744  0.64067607  1  1.625056  0  0.221949  0.634062  0  4.160612  0
C  C205  1  0.12013593  0.88876607  0.85931891  1  1.622316  0  0.222028  0.633912  0  4.160564  0
C  C206  1  0.38877496  0.62013489  0.13176650  1  1.624313  0  0.222022  0.633988  0  4.160626  0
C  C207  1  0.35933354  0.13175742  0.62012492  1  1.624557  0  0.221954  0.633986  0  4.161317  0
C  C208  1  0.63176739  0.85932672  0.88878235  1  1.62426  0  0.222106  0.634236  0  4.16081  0
C  C209  1  0.86821991  0.87987311  0.61122790  1  1.624276  0  0.222113  0.634077  0  4.160737  0
C  C210  1  0.14067807  0.61122764  0.87986705  1  1.621998  0  0.221998  0.634114  0  4.160898  0
C  C211  1  0.11122965  0.64067820  0.36822280  1  1.624281  0  0.22203  0.6342  0  4.160593  0
C  C212  1  0.57491902  0.41862859  0.31837686  1  0.39732  0  -0.062034  -0.118301  0  3.880821  0
C  C213  1  0.31192930  0.42507332  0.08138123  1  0.373519  0  -0.062052  -0.118491  0  3.881038  0
C  C214  1  0.81837996  0.68807546  0.07492415  1  0.39709  0  -0.06206  -0.118438  0  3.880653  0
C  C215  1  0.58138206  0.18161704  0.81193217  1  0.391051  0  -0.062057  -0.118507  0  3.88081  0
C  C216  1  0.91863653  0.07492145  0.68806932  1  0.373416  0  -0.06206  -0.118309  0  3.880711  0
C  C217  1  0.68161969  0.08137117  0.42507323  1  0.397657  0  -0.062115  -0.118489  0  3.880793  0
C  C218  1  0.18806717  0.31837299  0.41863026  1  0.391026  0  -0.062159  -0.118548  0  3.880935  0
C  C219  1  0.92507293  0.81193933  0.18161954  1  0.396489  0  -0.062161  -0.118556  0  3.88083  0
C  C220  1  0.57493119  0.31838259  0.68807032  1  0.397141  0  -0.061967  -0.118322  0  3.88079  0
C  C221  1  0.58136619  0.42507509  0.18161600  1  0.397838  0  -0.06217  -0.118697  0  3.88071  0
C  C222  1  0.18806805  0.41862654  0.07492633  1  0.373229  0  -0.062149  -0.118593  0  3.880941  0
C  C223  1  0.68161737  0.81193793  0.08137204  1  0.390861  0  -0.062155  -0.118595  0  3.881071  0
C  C224  1  0.81838308  0.07492876  0.41861730  1  0.397493  0  -0.062094  -0.118542  0  3.880953  0
C  C225  1  0.31192927  0.18161319  0.42507965  1  0.39713  0  -0.062137  -0.118473  0  3.88066  0
C  C226  1  0.91862231  0.68807663  0.31838060  1  0.390797  0  -0.062081  -0.118546  0  3.880844  0
C  C227  1  0.92508283  0.08136959  0.81193462  1  0.373435  0  -0.062224  -0.118678  0  3.880943  0
C  C228  1  0.57492116  0.68807497  0.41862373  1  0.373392  0  -0.062072  -0.118448  0  3.880708  0
C  C229  1  0.92507362  0.18162065  0.08136817  1  0.397388  0  -0.06218  -0.118611  0  3.88109  0
C  C230  1  0.68162930  0.42507534  0.81192641  1  0.396392  0  -0.062052  -0.11837  0  3.88082  0
C  C231  1  0.58136982  0.81193964  0.42507602  1  0.37344  0  -0.062223  -0.118747  0  3.881095  0
C  C232  1  0.31193018  0.08137068  0.18161993  1  0.3912  0  -0.062129  -0.118576  0  3.881048  0
C  C233  1  0.18806304  0.07492193  0.31838291  1  0.396293  0  -0.062231  -0.118822  0  3.880993  0
C  C234  1  0.91862099  0.31838195  0.07492324  1  0.397034  0  -0.062041  -0.118328  0  3.88063  0
C  C235  1  0.81839297  0.41862378  0.68806112  1  0.390402  0  -0.062186  -0.118642  0  3.880789  0
C  C236  1  0.42507874  0.58136686  0.68162346  1  0.397544  0  -0.06215  -0.118603  0  3.880984  0
C  C237  1  0.68806153  0.57492494  0.91863580  1  0.373493  0  -0.06223  -0.118694  0  3.880993  0
C  C238  1  0.18162517  0.31191652  0.92507625  1  0.396896  0  -0.062004  -0.118404  0  3.880644  0
C  C239  1  0.41862306  0.81838143  0.18806771  1  0.390383  0  -0.06206  -0.11844  0  3.880845  0
C  C240  1  0.08136870  0.92507931  0.31193082  1  0.373493  0  -0.062109  -0.118461  0  3.880754  0
C  C241  1  0.31838632  0.91862169  0.57492805  1  0.397189  0  -0.062109  -0.118585  0  3.880911  0
C  C242  1  0.81192548  0.68161844  0.58138051  1  0.390728  0  -0.062072  -0.11843  0  3.880861  0
C  C243  1  0.07493297  0.18805667  0.81838137  1  0.39697  0  -0.062185  -0.118622  0  3.880966  0
C  C244  1  0.42506972  0.68162142  0.31193023  1  0.397181  0  -0.062096  -0.118589  0  3.880943  0
C  C245  1  0.41863021  0.57492225  0.81838178  1  0.397411  0  -0.062202  -0.118654  0  3.881121  0
C  C246  1  0.81192924  0.58137494  0.92507770  1  0.373578  0  -0.06208  -0.11848  0  3.880861  0
C  C247  1  0.31839026  0.18805439  0.91862884  1  0.391009  0  -0.062175  -0.118603  0  3.881139  0
C  C248  1  0.18162258  0.92507134  0.58137710  1  0.397673  0  -0.06206  -0.118462  0  3.880645  0
C  C249  1  0.68806350  0.81838268  0.57492590  1  0.39678  0  -0.062167  -0.118575  0  3.880795  0
C  C250  1  0.08138507  0.31191977  0.68161843  1  0.390948  0  -0.062143  -0.118614  0  3.881083  0
C  C251  1  0.07492104  0.91863414  0.18806258  1  0.373838  0  -0.062231  -0.118751  0  3.881279  0
C  C252  1  0.42508444  0.31192073  0.58137313  1  0.37369  0  -0.062067  -0.118393  0  3.880881  0
C  C253  1  0.07492283  0.81837890  0.91862604  1  0.397622  0  -0.062096  -0.1184  0  3.8809  0
C  C254  1  0.31838114  0.57492738  0.18806324  1  0.396597  0  -0.062158  -0.118647  0  3.880813  0
C  C255  1  0.41863789  0.18805492  0.57492320  1  0.373305  0  -0.06221  -0.118724  0  3.880982  0
C  C256  1  0.68806093  0.91863113  0.81838399  1  0.390751  0  -0.062183  -0.118695  0  3.881003  0
C  C257  1  0.81192514  0.92507802  0.68162050  1  0.396694  0  -0.062063  -0.118439  0  3.880862  0
C  C258  1  0.08137133  0.68161673  0.92507597  1  0.397438  0  -0.062251  -0.118856  0  3.881149  0
C  C259  1  0.18161589  0.58137519  0.31193055  1  0.390529  0  -0.062143  -0.118665  0  3.881007  0
O  O260  1  0.58719440  0.37597005  0.45939020  1  -1.185578  0  -0.325804  -0.580614  0  2.315104  0
O  O261  1  0.42255792  0.41280502  0.12403561  1  -1.181387  0  -0.325789  -0.580558  0  2.314811  0
O  O262  1  0.95939560  0.57743556  0.08719116  1  -1.189436  0  -0.325822  -0.58074  0  2.314885  0
O  O263  1  0.62403106  0.04060169  0.92256540  1  -1.189149  0  -0.3259  -0.580763  0  2.314781  0
O  O264  1  0.87597081  0.08718944  0.57744100  1  -1.181767  0  -0.325872  -0.580769  0  2.314899  0
O  O265  1  0.54059696  0.12403165  0.41280411  1  -1.185999  0  -0.325878  -0.580769  0  2.315119  0
O  O266  1  0.07743848  0.45940003  0.37597107  1  -1.188869  0  -0.325887  -0.58076  0  2.314682  0
O  O267  1  0.91281131  0.92256228  0.04059475  1  -1.189708  0  -0.32591  -0.580813  0  2.315137  0
O  O268  1  0.58720135  0.45940217  0.57743321  1  -1.189184  0  -0.325939  -0.580817  0  2.314739  0
O  O269  1  0.62402455  0.41281779  0.04059404  1  -1.186303  0  -0.325921  -0.580819  0  2.315484  0
O  O270  1  0.07743901  0.37596721  0.08718942  1  -1.181649  0  -0.325817  -0.580646  0  2.315111  0
O  O271  1  0.54059676  0.92256077  0.12404064  1  -1.189072  0  -0.325775  -0.580514  0  2.315117  0
O  O272  1  0.95939456  0.08720050  0.37596541  1  -1.185651  0  -0.325925  -0.580814  0  2.314929  0
O  O273  1  0.42255964  0.04059232  0.41281208  1  -1.189327  0  -0.325925  -0.580788  0  2.314758  0
O  O274  1  0.87596793  0.57744395  0.45939966  1  -1.189211  0  -0.325843  -0.580736  0  2.31493  0
O  O275  1  0.91281366  0.12403579  0.92256233  1  -1.181998  0  -0.326073  -0.58101  0  2.314976  0
O  O276  1  0.58718924  0.57744167  0.37596560  1  -1.181763  0  -0.325805  -0.580638  0  2.315029  0
O  O277  1  0.91280115  0.04060004  0.12403452  1  -1.185831  0  -0.325862  -0.580688  0  2.314759  0
O  O278  1  0.54060411  0.41280486  0.92255619  1  -1.189363  0  -0.32581  -0.580579  0  2.314864  0
O  O279  1  0.62403809  0.92255550  0.41281519  1  -1.181887  0  -0.325941  -0.580772  0  2.315081  0
O  O280  1  0.42256049  0.12403599  0.04059892  1  -1.188967  0  -0.325849  -0.580667  0  2.314643  0
O  O281  1  0.07743654  0.08718209  0.45940743  1  -1.189547  0  -0.325982  -0.580902  0  2.314913  0
O  O282  1  0.87597000  0.45940579  0.08718646  1  -1.185877  0  -0.325862  -0.580727  0  2.315049  0
O  O283  1  0.95941017  0.37597004  0.57743671  1  -1.189183  0  -0.326031  -0.581026  0  2.314956  0
O  O284  1  0.41280545  0.62402966  0.54060110  1  -1.185807  0  -0.325881  -0.580731  0  2.31476  0
O  O285  1  0.57743630  0.58718797  0.87597203  1  -1.181704  0  -0.325906  -0.580815  0  2.315193  0
O  O286  1  0.04060405  0.42254768  0.91281151  1  -1.190152  0  -0.325768  -0.580618  0  2.314876  0
O  O287  1  0.37596726  0.95940624  0.07743581  1  -1.188963  0  -0.325946  -0.580858  0  2.314887  0
O  O288  1  0.12402101  0.91281415  0.42256043  1  -1.18163  0  -0.325795  -0.58065  0  2.315146  0
O  O289  1  0.45940273  0.87596356  0.58719517  1  -1.185758  0  -0.325855  -0.58065  0  2.314813  0
O  O290  1  0.92256305  0.54060244  0.62403370  1  -1.189107  0  -0.325881  -0.580752  0  2.314773  0
O  O291  1  0.08719299  0.07743753  0.95940727  1  -1.189502  0  -0.325864  -0.580698  0  2.315055  0
O  O292  1  0.41280025  0.54060037  0.42256413  1  -1.189299  0  -0.325948  -0.58087  0  2.314634  0
O  O293  1  0.37597244  0.58718340  0.95940595  1  -1.18596  0  -0.325942  -0.5809  0  2.314874  0
O  O294  1  0.92256279  0.62403011  0.91280166  1  -1.181757  0  -0.325908  -0.580793  0  2.314808  0
O  O295  1  0.45941677  0.07743202  0.87596248  1  -1.188479  0  -0.326009  -0.580965  0  2.315129  0
O  O296  1  0.04060015  0.91280598  0.62403421  1  -1.185661  0  -0.325819  -0.580636  0  2.314847  0
O  O297  1  0.57743632  0.95940891  0.58719023  1  -1.189689  0  -0.325943  -0.580851  0  2.315145  0
O  O298  1  0.12403088  0.42255796  0.54060442  1  -1.189058  0  -0.325791  -0.580526  0  2.314802  0
O  O299  1  0.08718625  0.87596723  0.07744286  1  -1.181762  0  -0.325845  -0.580663  0  2.315035  0
O  O300  1  0.41281133  0.42255659  0.62402909  1  -1.18195  0  -0.325894  -0.580818  0  2.314688  0
O  O301  1  0.08719198  0.95940378  0.87596205  1  -1.185755  0  -0.325878  -0.580674  0  2.314522  0
O  O302  1  0.45940340  0.58718842  0.07743854  1  -1.189602  0  -0.325889  -0.580778  0  2.31502  0
O  O303  1  0.37597206  0.07743933  0.58717600  1  -1.181521  0  -0.325951  -0.580853  0  2.315422  0
O  O304  1  0.57744144  0.87596579  0.95940947  1  -1.189161  0  -0.325998  -0.580952  0  2.315151  0
O  O305  1  0.92255387  0.91281143  0.54059951  1  -1.189362  0  -0.325836  -0.580614  0  2.314939  0
O  O306  1  0.12402512  0.54059568  0.91281180  1  -1.185764  0  -0.325945  -0.580875  0  2.314658  0
O  O307  1  0.04059965  0.62403313  0.42256506  1  -1.18911  0  -0.325914  -0.580855  0  2.314588  0
O  O308  1  0.68996176  0.29384062  0.37297869  1  -1.1834  0  -0.383005  -0.638354  0  2.299525  0
O  O309  1  0.35678561  0.31003129  0.20616671  1  -1.195191  0  -0.38298  -0.638282  0  2.299452  0
O  O310  1  0.87298035  0.64323029  0.18996180  1  -1.185789  0  -0.383072  -0.638408  0  2.299523  0
O  O311  1  0.70617216  0.12701620  0.85678201  1  -1.18317  0  -0.382997  -0.638418  0  2.299238  0
O  O312  1  0.79385119  0.18996350  0.64321559  1  -1.194892  0  -0.382961  -0.638394  0  2.299314  0
O  O313  1  0.62702154  0.20615791  0.31003065  1  -1.183612  0  -0.383013  -0.638243  0  2.299909  0
O  O314  1  0.14320955  0.37297618  0.29384219  1  -1.183469  0  -0.383022  -0.638262  0  2.299545  0
O  O315  1  0.81002349  0.85679753  0.12702726  1  -1.185558  0  -0.382908  -0.638218  0  2.299407  0
O  O316  1  0.68997551  0.37298343  0.64320926  1  -1.186032  0  -0.382993  -0.638272  0  2.29962  0
O  O317  1  0.70615905  0.31003759  0.12701661  1  -1.183372  0  -0.382915  -0.638212  0  2.299732  0
O  O318  1  0.14321752  0.29383186  0.18996600  1  -1.195092  0  -0.382988  -0.638221  0  2.299779  0
O  O319  1  0.62701633  0.85679586  0.20615899  1  -1.183315  0  -0.382903  -0.638151  0  2.299602  0
O  O320  1  0.87297604  0.18997390  0.29383168  1  -1.183818  0  -0.383097  -0.638488  0  2.298978  0
O  O321  1  0.35678783  0.12701163  0.31003638  1  -1.185535  0  -0.382918  -0.638264  0  2.299526  0
O  O322  1  0.79383628  0.64322064  0.37298094  1  -1.183161  0  -0.383044  -0.638404  0  2.299503  0
O  O323  1  0.81004077  0.20616120  0.85678282  1  -1.195012  0  -0.382966  -0.638444  0  2.299389  0
O  O324  1  0.68996437  0.64322406  0.29383760  1  -1.19516  0  -0.383105  -0.638342  0  2.299671  0
O  O325  1  0.81002658  0.12702554  0.20615055  1  -1.183699  0  -0.382931  -0.638205  0  2.299763  0
O  O326  1  0.62703124  0.31003073  0.85678430  1  -1.185255  0  -0.383042  -0.638298  0  2.29981  0
O  O327  1  0.70615522  0.85679085  0.31003431  1  -1.194937  0  -0.382939  -0.638256  0  2.299474  0
O  O328  1  0.35678677  0.20615500  0.12702335  1  -1.183101  0  -0.382991  -0.638247  0  2.299776  0
O  O329  1  0.14321586  0.18995959  0.37298063  1  -1.185554  0  -0.382924  -0.638208  0  2.299652  0
O  O330  1  0.79382522  0.37298641  0.18995798  1  -1.183615  0  -0.38294  -0.63838  0  2.299412  0
O  O331  1  0.87299319  0.29383197  0.64321755  1  -1.183124  0  -0.382972  -0.638416  0  2.2994  0
O  O332  1  0.31003760  0.70615643  0.62702042  1  -1.183565  0  -0.382957  -0.63829  0  2.299773  0
O  O333  1  0.64321131  0.68996765  0.79384620  1  -1.195006  0  -0.382942  -0.638166  0  2.299597  0
O  O334  1  0.12703012  0.35676703  0.81003455  1  -1.1855  0  -0.383082  -0.638424  0  2.299223  0
O  O335  1  0.29383331  0.87298586  0.14321327  1  -1.183268  0  -0.38296  -0.638314  0  2.299389  0
O  O336  1  0.20615823  0.81003819  0.35677678  1  -1.195003  0  -0.383013  -0.638359  0  2.299363  0
O  O337  1  0.37298491  0.79383213  0.68997037  1  -1.183777  0  -0.383009  -0.638361  0  2.299521  0
O  O338  1  0.85677593  0.62702109  0.70616792  1  -1.183015  0  -0.383076  -0.638455  0  2.299482  0
O  O339  1  0.18997870  0.14320019  0.87297829  1  -1.185759  0  -0.382948  -0.638223  0  2.299728  0
O  O340  1  0.31002902  0.62701879  0.35678282  1  -1.185848  0  -0.383078  -0.638458  0  2.299247  0
O  O341  1  0.29383825  0.68995957  0.87298246  1  -1.183536  0  -0.382973  -0.638452  0  2.299421  0
O  O342  1  0.85677761  0.70616530  0.81003855  1  -1.194964  0  -0.383057  -0.638453  0  2.299344  0
O  O343  1  0.37299204  0.14319936  0.79384089  1  -1.18316  0  -0.382918  -0.63826  0  2.29985  0
O  O344  1  0.12702627  0.81002609  0.70616286  1  -1.183864  0  -0.383101  -0.638348  0  2.300002  0
O  O345  1  0.64320832  0.87298112  0.68997023  1  -1.185488  0  -0.382906  -0.638178  0  2.299655  0
O  O346  1  0.20617707  0.35676982  0.62701341  1  -1.183502  0  -0.382867  -0.638319  0  2.299297  0
O  O347  1  0.18996416  0.79384900  0.14320687  1  -1.194989  0  -0.382946  -0.638224  0  2.299876  0
O  O348  1  0.31004367  0.35677300  0.70616209  1  -1.194998  0  -0.383004  -0.638399  0  2.299336  0
O  O349  1  0.18997026  0.87297549  0.79384178  1  -1.183783  0  -0.382989  -0.638212  0  2.299814  0
O  O350  1  0.37297444  0.68997264  0.14321080  1  -1.185576  0  -0.383009  -0.638283  0  2.299338  0
O  O351  1  0.29385330  0.14320128  0.68996785  1  -1.19479  0  -0.382851  -0.638107  0  2.299972  0
O  O352  1  0.64320681  0.79384385  0.87298503  1  -1.183065  0  -0.382936  -0.638218  0  2.299678  0
O  O353  1  0.85677484  0.81003747  0.62702447  1  -1.185641  0  -0.38307  -0.638412  0  2.299489  0
O  O354  1  0.20616298  0.62701248  0.81004115  1  -1.183518  0  -0.382929  -0.638344  0  2.299668  0
O  O355  1  0.12701521  0.70616653  0.35677836  1  -1.183469  0  -0.383017  -0.638377  0  2.299882  0
O  O356  1  0.61928468  0.38069505  0.25000616  1  -1.08595  0  -0.276179  -0.258886  0  2.771521  0
O  O357  1  0.24999836  0.38070189  0.11929885  1  -1.09574  0  -0.276189  -0.258919  0  2.771895  0
O  O358  1  0.74999877  0.75001318  0.11929285  1  -1.093801  0  -0.276199  -0.258971  0  2.771802  0
O  O359  1  0.61930437  0.24999847  0.74999919  1  -1.093568  0  -0.276298  -0.259171  0  2.772073  0
O  O360  1  0.88071137  0.11929445  0.75000302  1  -1.095661  0  -0.276072  -0.25905  0  2.771411  0
O  O361  1  0.75000366  0.11929130  0.38069500  1  -1.085859  0  -0.276181  -0.25896  0  2.771812  0
O  O362  1  0.24999744  0.24999080  0.38070867  1  -1.093721  0  -0.276127  -0.259022  0  2.771678  0
O  O363  1  0.88069441  0.75001361  0.25000529  1  -1.093429  0  -0.276147  -0.258895  0  2.771622  0
O  O364  1  0.61928997  0.75001040  0.38070226  1  -1.095871  0  -0.276128  -0.258855  0  2.771608  0
O  O365  1  0.88069595  0.25000217  0.11929093  1  -1.085685  0  -0.276128  -0.258977  0  2.771551  0
O  O366  1  0.75001150  0.38070176  0.74999784  1  -1.093411  0  -0.27617  -0.25903  0  2.771907  0
O  O367  1  0.24999859  0.11929373  0.25000068  1  -1.093337  0  -0.276093  -0.258824  0  2.771666  0
O  O368  1  0.38070564  0.61929188  0.75000214  1  -1.08571  0  -0.276058  -0.258978  0  2.77164  0
O  O369  1  0.74998922  0.61930180  0.88071269  1  -1.095943  0  -0.276092  -0.25886  0  2.771519  0
O  O370  1  0.25000654  0.24997681  0.88071133  1  -1.093984  0  -0.276177  -0.259065  0  2.771902  0
O  O371  1  0.38070166  0.74999983  0.24999730  1  -1.09347  0  -0.276181  -0.259099  0  2.771887  0
O  O372  1  0.11929219  0.88070897  0.24999480  1  -1.096018  0  -0.276067  -0.258852  0  2.771714  0
O  O373  1  0.25000576  0.88070063  0.61929719  1  -1.085731  0  -0.276273  -0.259093  0  2.772117  0
O  O374  1  0.74998834  0.74999700  0.61930530  1  -1.093361  0  -0.276174  -0.259007  0  2.771701  0
O  O375  1  0.11932000  0.24997464  0.74998756  1  -1.093652  0  -0.276108  -0.258988  0  2.771838  0
O  O376  1  0.38072407  0.24997857  0.61930484  1  -1.095853  0  -0.276128  -0.258876  0  2.771733  0
O  O377  1  0.11929660  0.74999675  0.88070383  1  -1.085812  0  -0.27612  -0.25892  0  2.771727  0
O  O378  1  0.24998960  0.61930569  0.24999045  1  -1.093345  0  -0.276179  -0.258892  0  2.771606  0
O  O379  1  0.74998885  0.88070873  0.75000361  1  -1.09369  0  -0.27614  -0.25891  0  2.771684  0
O  O380  1  0.71327800  0.21328457  0.03671862  1  -1.244535  0  -0.587415  -0.790716  0  2.057191  0
O  O381  1  0.96328208  0.28671082  0.28673063  1  -1.244277  0  -0.587445  -0.790944  0  2.057031  0
O  O382  1  0.53672265  0.03671613  0.21328772  1  -1.281431  0  -0.587485  -0.790997  0  2.057121  0
O  O383  1  0.78673883  0.46327701  0.46328597  1  -1.281527  0  -0.587305  -0.790777  0  2.057366  0
O  O384  1  0.71328904  0.03672838  0.03671287  1  -1.281536  0  -0.587534  -0.791124  0  2.057037  0
O  O385  1  0.78671213  0.28673077  0.46328414  1  -1.244508  0  -0.587506  -0.791019  0  2.05698  0
O  O386  1  0.53672843  0.21328697  0.21327262  1  -1.244411  0  -0.587468  -0.791007  0  2.057033  0
O  O387  1  0.96327991  0.46328671  0.28672439  1  -1.281477  0  -0.587293  -0.790651  0  2.057457  0
O  O388  1  0.71328305  0.03671647  0.21327584  1  -1.244389  0  -0.587541  -0.791097  0  2.056975  0
O  O389  1  0.78671642  0.46328870  0.28671713  1  -1.244444  0  -0.587384  -0.790816  0  2.057167  0
O  O390  1  0.96327989  0.28670814  0.46328322  1  -1.281412  0  -0.587398  -0.790862  0  2.05713  0
O  O391  1  0.53672373  0.21327410  0.03671725  1  -1.281619  0  -0.58749  -0.791017  0  2.057116  0
O  O392  1  0.28671145  0.78673075  0.96327809  1  -1.24466  0  -0.587492  -0.791038  0  2.056997  0
O  O393  1  0.03671907  0.71328043  0.71328243  1  -1.244605  0  -0.587377  -0.790662  0  2.05724  0
O  O394  1  0.46327429  0.96328717  0.78670954  1  -1.281613  0  -0.587505  -0.791033  0  2.057174  0
O  O395  1  0.21327494  0.53672361  0.53671837  1  -1.28155  0  -0.587501  -0.791072  0  2.057082  0
O  O396  1  0.28672482  0.96328208  0.96327955  1  -1.281606  0  -0.587398  -0.790834  0  2.057334  0
O  O397  1  0.21327021  0.71329043  0.53672509  1  -1.244408  0  -0.587419  -0.790914  0  2.05714  0
O  O398  1  0.46328821  0.78673170  0.78671215  1  -1.244512  0  -0.587527  -0.791119  0  2.056905  0
O  O399  1  0.03671435  0.53672474  0.71329062  1  -1.281456  0  -0.587453  -0.79098  0  2.057188  0
O  O400  1  0.28671389  0.96329007  0.78672680  1  -1.24447  0  -0.587514  -0.791074  0  2.057015  0
O  O401  1  0.21329130  0.53672430  0.71327161  1  -1.244382  0  -0.587389  -0.79088  0  2.057091  0
O  O402  1  0.03672551  0.71328954  0.53671452  1  -1.281468  0  -0.587466  -0.790978  0  2.057172  0
O  O403  1  0.46328558  0.78670906  0.96327519  1  -1.28159  0  -0.58748  -0.790973  0  2.057193  0
