# generated using pymatgen
data_Zn4H36C66O13
_symmetry_space_group_name_H-M   'P 1'
_cell_length_a   20.57729735
_cell_length_b   20.57725401
_cell_length_c   29.42707044
_cell_angle_alpha   69.53381847
_cell_angle_beta   69.53369747
_cell_angle_gamma   59.99964718
_symmetry_Int_Tables_number   1
_chemical_formula_structural   Zn4H36C66O13
_chemical_formula_sum   'Zn16 H144 C264 O52'
_cell_volume   9872.14802882
_cell_formula_units_Z   4
loop_
 _symmetry_equiv_pos_site_id
 _symmetry_equiv_pos_as_xyz
  1  'x, y, z'
loop_
 _atom_site_type_symbol
 _atom_site_label
 _atom_site_symmetry_multiplicity
 _atom_site_fract_x
 _atom_site_fract_y
 _atom_site_fract_z
 _atom_site_occupancy
 _atom_site_pbe_bader_charge
 _atom_site_pbe_bader_spin_density
 _atom_site_pbe_cm5_charge
 _atom_site_pbe_ddec_charge
 _atom_site_pbe_ddec_spin_density
 _atom_site_pbe_ddec_sum_bond_order
 _atom_site_pbe_magmom
Zn  Zn0  1  0.62736020  0.49702577  0.20346792  1  1.31232  0  0.669736  0.95797  0  2.362379  0
Zn  Zn1  1  0.67209777  0.62734075  0.20347068  1  1.311993  0  0.66999  0.958693  0  2.361744  0
Zn  Zn2  1  0.49698231  0.67210021  0.20349327  1  1.312542  0  0.668951  0.957886  0  2.360306  0
Zn  Zn3  1  0.87266220  0.82789942  0.29652935  1  1.312082  0  0.669982  0.958685  0  2.36164  0
Zn  Zn4  1  0.82790149  0.00301500  0.29650725  1  1.312494  0  0.668946  0.957905  0  2.360407  0
Zn  Zn5  1  0.00297689  0.87263655  0.29653214  1  1.312344  0  0.669758  0.957973  0  2.362321  0
Zn  Zn6  1  0.37263879  0.50297479  0.79653229  1  1.31233  0  0.669737  0.95796  0  2.362356  0
Zn  Zn7  1  0.32790179  0.37266008  0.79652932  1  1.312002  0  0.67002  0.958751  0  2.361673  0
Zn  Zn8  1  0.50301782  0.32790037  0.79650666  1  1.312588  0  0.668987  0.95795  0  2.360253  0
Zn  Zn9  1  0.12733794  0.17210064  0.70347070  1  1.312088  0  0.670019  0.958767  0  2.361576  0
Zn  Zn10  1  0.17209807  0.99698375  0.70349393  1  1.312404  0  0.668961  0.957904  0  2.360438  0
Zn  Zn11  1  0.99702382  0.12736274  0.70346761  1  1.312342  0  0.669767  0.958005  0  2.362315  0
Zn  Zn12  1  0.56743640  0.56748398  0.29773058  1  1.294822  0  0.669553  0.952138  0  2.462906  0
Zn  Zn13  1  0.93251966  0.93256051  0.20226905  1  1.294814  0  0.669582  0.952211  0  2.462843  0
Zn  Zn14  1  0.43256373  0.43251660  0.70226968  1  1.294833  0  0.669549  0.952141  0  2.462923  0
Zn  Zn15  1  0.06748048  0.06744007  0.79773054  1  1.294811  0  0.669595  0.952248  0  2.462811  0
H  H16  1  0.83024779  0.37477589  0.11494385  1  0.110888  0  0.102036  0.102967  0  1.026996  0
H  H17  1  0.68011378  0.83021241  0.11487383  1  0.087546  0  0.102444  0.105463  0  1.025442  0
H  H18  1  0.37486979  0.67997624  0.11491296  1  0.107407  0  0.102721  0.103861  0  1.027415  0
H  H19  1  0.66979028  0.81988330  0.38512511  1  0.087512  0  0.102455  0.10551  0  1.025445  0
H  H20  1  0.82002580  0.12512752  0.38508726  1  0.107431  0  0.102733  0.106143  0  1.025123  0
H  H21  1  0.12522417  0.66975068  0.38505680  1  0.110935  0  0.102032  0.102995  0  1.027046  0
H  H22  1  0.16975062  0.62522387  0.88505669  1  0.110925  0  0.102038  0.102999  0  1.027029  0
H  H23  1  0.31988520  0.16978815  0.88512638  1  0.087513  0  0.102474  0.105513  0  1.025452  0
H  H24  1  0.62513034  0.32002538  0.88508637  1  0.107443  0  0.102754  0.103935  0  1.02735  0
H  H25  1  0.33020928  0.18011649  0.61487480  1  0.087514  0  0.102456  0.105511  0  1.025434  0
H  H26  1  0.17997434  0.87487254  0.61491211  1  0.107394  0  0.102748  0.104126  0  1.027511  0
H  H27  1  0.87477596  0.33024834  0.61494351  1  0.110912  0  0.102034  0.102968  0  1.027009  0
H  H28  1  0.95349661  0.31614042  0.05776609  1  0.060888  0  0.102348  0.104132  0  1.00211  0
H  H29  1  0.67260201  0.95351359  0.05774302  1  0.06038  0  0.101355  0.102961  0  1.001907  0
H  H30  1  0.31613058  0.67254102  0.05779906  1  0.061478  0  0.101756  0.103606  0  1.002798  0
H  H31  1  0.54648925  0.82739503  0.44225704  1  0.060345  0  0.101374  0.102967  0  1.001886  0
H  H32  1  0.82746032  0.18386877  0.44220054  1  0.061435  0  0.101745  0.103591  0  1.002719  0
H  H33  1  0.18385897  0.54650274  0.44223467  1  0.060941  0  0.102346  0.104127  0  1.002128  0
H  H34  1  0.04650180  0.68385986  0.94223432  1  0.060943  0  0.102346  0.104124  0  1.002084  0
H  H35  1  0.32739698  0.04648696  0.94225685  1  0.060362  0  0.101335  0.102952  0  1.001913  0
H  H36  1  0.68387013  0.32746139  0.94219993  1  0.061434  0  0.101761  0.103601  0  1.00276  0
H  H37  1  0.45351031  0.17260425  0.55774402  1  0.060359  0  0.10135  0.102937  0  1.001921  0
H  H38  1  0.17253924  0.81613154  0.55779891  1  0.061509  0  0.101763  0.103634  0  1.002766  0
H  H39  1  0.81614001  0.45349781  0.55776554  1  0.060932  0  0.102332  0.104843  0  1.001178  0
H  H40  1  0.01770510  0.48716142  0.05624044  1  0.033134  0  0.101237  0.10291  0  1.00764  0
H  H41  1  0.43891243  0.01767048  0.05623756  1  0.072814  0  0.101248  0.102098  0  1.009362  0
H  H42  1  0.48709851  0.43880760  0.05627156  1  0.057178  0  0.100875  0.102376  0  1.0097  0
H  H43  1  0.48233082  0.06108592  0.44376116  1  0.072883  0  0.101221  0.10209  0  1.009313  0
H  H44  1  0.06119491  0.01289924  0.44372804  1  0.057139  0  0.100884  0.10237  0  1.009671  0
H  H45  1  0.01284090  0.48229248  0.44376042  1  0.033164  0  0.101265  0.102933  0  1.007683  0
H  H46  1  0.98229389  0.51283862  0.94376023  1  0.0331  0  0.10125  0.102926  0  1.007674  0
H  H47  1  0.56108655  0.98233008  0.94376333  1  0.072819  0  0.101241  0.102087  0  1.009355  0
H  H48  1  0.51289933  0.56119397  0.94372970  1  0.05725  0  0.100882  0.102361  0  1.009644  0
H  H49  1  0.51766817  0.93891464  0.55623871  1  0.072897  0  0.10121  0.102061  0  1.009332  0
H  H50  1  0.93880523  0.98710031  0.55627214  1  0.057144  0  0.100869  0.102356  0  1.00967  0
H  H51  1  0.98716038  0.51770657  0.55623960  1  0.033105  0  0.101261  0.10294  0  1.007669  0
H  H52  1  0.89481070  0.54416143  0.11456177  1  0.099953  0  0.104687  0.108583  0  1.012315  0
H  H53  1  0.44650057  0.89479483  0.11456358  1  0.124675  0  0.10442  0.108885  0  1.012678  0
H  H54  1  0.54417439  0.44635049  0.11456209  1  0.086484  0  0.104343  0.108217  0  1.01256  0
H  H55  1  0.60520698  0.05349827  0.38543510  1  0.124692  0  0.104428  0.108905  0  1.012667  0
H  H56  1  0.05365301  0.95582336  0.38543620  1  0.086463  0  0.104424  0.108395  0  1.012494  0
H  H57  1  0.95583977  0.60518560  0.38543895  1  0.099979  0  0.104714  0.108636  0  1.012319  0
H  H58  1  0.10518886  0.45583732  0.88543840  1  0.099915  0  0.104694  0.108597  0  1.012292  0
H  H59  1  0.55349899  0.10520496  0.88543668  1  0.124718  0  0.104413  0.108888  0  1.01269  0
H  H60  1  0.45582460  0.55365214  0.88543762  1  0.086444  0  0.104352  0.108223  0  1.012553  0
H  H61  1  0.39479258  0.94650256  0.61456422  1  0.124632  0  0.104384  0.108829  0  1.012652  0
H  H62  1  0.94634770  0.04417541  0.61456436  1  0.086484  0  0.104394  0.108347  0  1.012511  0
H  H63  1  0.04416094  0.39481318  0.61456059  1  0.099971  0  0.104697  0.108626  0  1.012303  0
H  H64  1  0.13540687  0.39086949  0.04178198  1  0.064223  0  0.102849  0.106492  0  1.007961  0
H  H65  1  0.43191937  0.13540975  0.04174770  1  0.067173  0  0.102481  0.106354  0  1.008677  0
H  H66  1  0.39086915  0.43182163  0.04177041  1  0.052674  0  0.103471  0.107093  0  1.008386  0
H  H67  1  0.36459354  0.06807755  0.45825202  1  0.067281  0  0.102501  0.106383  0  1.008652  0
H  H68  1  0.06818020  0.10912980  0.45822847  1  0.052573  0  0.103464  0.107148  0  1.008331  0
H  H69  1  0.10913194  0.36459165  0.45821900  1  0.064249  0  0.102862  0.106528  0  1.007936  0
H  H70  1  0.86459270  0.60913082  0.95821815  1  0.064221  0  0.102867  0.106531  0  1.007943  0
H  H71  1  0.56808134  0.86459058  0.95825214  1  0.067166  0  0.10249  0.106373  0  1.008675  0
H  H72  1  0.60913041  0.56817868  0.95822904  1  0.052658  0  0.103473  0.107133  0  1.00833  0
H  H73  1  0.63540660  0.93192147  0.54174863  1  0.067252  0  0.102478  0.106333  0  1.008653  0
H  H74  1  0.93181936  0.89087051  0.54177132  1  0.0526  0  0.103475  0.107129  0  1.008352  0
H  H75  1  0.89086877  0.63540868  0.54178152  1  0.064215  0  0.102854  0.106486  0  1.007884  0
H  H76  1  0.25321166  0.28274017  0.91667627  1  0.106148  0  0.099508  0.106011  0  1.052298  0
H  H77  1  0.54739083  0.25323401  0.91671007  1  0.066145  0  0.099557  0.105241  0  1.053288  0
H  H78  1  0.28276332  0.54738072  0.91666038  1  0.079906  0  0.09962  0.106399  0  1.053181  0
H  H79  1  0.24676773  0.95260721  0.58328945  1  0.065964  0  0.099565  0.105274  0  1.053297  0
H  H80  1  0.95262146  0.21723434  0.58333904  1  0.079625  0  0.099629  0.106374  0  1.053212  0
H  H81  1  0.21726094  0.24678692  0.58332494  1  0.106173  0  0.099503  0.106049  0  1.052231  0
H  H82  1  0.74678847  0.71725937  0.08332424  1  0.106228  0  0.099499  0.106  0  1.052318  0
H  H83  1  0.45260874  0.74676578  0.08328985  1  0.066133  0  0.099554  0.105242  0  1.053271  0
H  H84  1  0.71723624  0.45262011  0.08333894  1  0.079931  0  0.09962  0.106352  0  1.053239  0
H  H85  1  0.75323126  0.04739283  0.41671088  1  0.065987  0  0.099576  0.105243  0  1.053467  0
H  H86  1  0.04737810  0.78276701  0.41666015  1  0.079617  0  0.099599  0.10629  0  1.053264  0
H  H87  1  0.78274035  0.75321212  0.41667575  1  0.106187  0  0.099511  0.106029  0  1.052276  0
H  H88  1  0.01425033  0.33403857  0.97958525  1  0.056143  0  0.100197  0.099329  0  1.02454  0
H  H89  1  0.67216102  0.01425817  0.97961075  1  0.060217  0  0.099615  0.098852  0  1.024729  0
H  H90  1  0.33385800  0.67208109  0.97973948  1  0.03731  0  0.100145  0.098737  0  1.024726  0
H  H91  1  0.48574410  0.82783654  0.52038909  1  0.060137  0  0.099614  0.098827  0  1.024813  0
H  H92  1  0.82792069  0.16614129  0.52025971  1  0.037359  0  0.100143  0.098783  0  1.02469  0
H  H93  1  0.16596226  0.48574814  0.52041531  1  0.056188  0  0.100188  0.099312  0  1.024522  0
H  H94  1  0.98574923  0.66596122  0.02041467  1  0.056143  0  0.100247  0.099409  0  1.024576  0
H  H95  1  0.32783969  0.98574112  0.02038901  1  0.060217  0  0.099598  0.098801  0  1.024783  0
H  H96  1  0.66614156  0.32791921  0.02026031  1  0.037307  0  0.100155  0.098753  0  1.024706  0
H  H97  1  0.51425489  0.17216298  0.47961171  1  0.060138  0  0.099609  0.098818  0  1.02478  0
H  H98  1  0.17207887  0.83385850  0.47973986  1  0.037373  0  0.100154  0.098789  0  1.024691  0
H  H99  1  0.83403902  0.51425143  0.47958492  1  0.056182  0  0.100218  0.099316  0  1.024614  0
H  H100  1  0.05940449  0.21691209  0.96174816  1  0.056375  0  0.101147  0.101433  0  1.003317  0
H  H101  1  0.76198260  0.05948762  0.96176298  1  0.059347  0  0.101007  0.101067  0  1.004349  0
H  H102  1  0.21680151  0.76195875  0.96186534  1  0.042659  0  0.101709  0.101878  0  1.003231  0
H  H103  1  0.44051381  0.73801514  0.53823765  1  0.059342  0  0.100984  0.101047  0  1.004374  0
H  H104  1  0.73804256  0.28319835  0.53813436  1  0.042686  0  0.101669  0.101801  0  1.003291  0
H  H105  1  0.28308881  0.44059460  0.53825174  1  0.056369  0  0.101136  0.101431  0  1.003354  0
H  H106  1  0.94059565  0.78308746  0.03825168  1  0.056379  0  0.101151  0.101432  0  1.00332  0
H  H107  1  0.23801754  0.94051399  0.03823668  1  0.059245  0  0.101008  0.101104  0  1.004317  0
H  H108  1  0.78319862  0.23804131  0.03813538  1  0.042602  0  0.101696  0.101849  0  1.003261  0
H  H109  1  0.55948518  0.26198593  0.46176277  1  0.059357  0  0.101016  0.101141  0  1.004297  0
H  H110  1  0.26195757  0.71680223  0.46186556  1  0.042692  0  0.10168  0.101796  0  1.00327  0
H  H111  1  0.71691133  0.55940546  0.46174830  1  0.056384  0  0.101146  0.101445  0  1.003311  0
H  H112  1  0.05319850  0.16276328  0.90088152  1  0.089695  0  0.107045  0.112994  0  0.99707  0
H  H113  1  0.88322184  0.05320427  0.90087369  1  0.100461  0  0.106614  0.112813  0  0.997487  0
H  H114  1  0.16277235  0.88318416  0.90094937  1  0.130998  0  0.106766  0.112149  0  0.997445  0
H  H115  1  0.44679589  0.61677643  0.59912632  1  0.100403  0  0.106591  0.112781  0  0.997466  0
H  H116  1  0.61681704  0.33722635  0.59905183  1  0.130963  0  0.106767  0.11207  0  0.997504  0
H  H117  1  0.33723848  0.44680068  0.59911810  1  0.089671  0  0.10701  0.112944  0  0.997113  0
H  H118  1  0.94680164  0.83723678  0.09911818  1  0.089683  0  0.107032  0.112965  0  0.997087  0
H  H119  1  0.11677830  0.94679580  0.09912601  1  0.100448  0  0.106602  0.112784  0  0.997508  0
H  H120  1  0.83722779  0.11681642  0.09905089  1  0.130903  0  0.106772  0.112146  0  0.99745  0
H  H121  1  0.55320367  0.38322440  0.40087368  1  0.10039  0  0.106579  0.112743  0  0.997515  0
H  H122  1  0.38318253  0.66277396  0.40094796  1  0.131042  0  0.106777  0.112093  0  0.997487  0
H  H123  1  0.66276108  0.55320067  0.40088178  1  0.089709  0  0.107018  0.11296  0  0.997159  0
H  H124  1  0.19611862  0.26169139  0.78561175  1  0.087756  0  0.103986  0.105117  0  1.025853  0
H  H125  1  0.75666435  0.19611234  0.78560534  1  0.071151  0  0.104643  0.105886  0  1.026156  0
H  H126  1  0.26159688  0.75658512  0.78572563  1  0.07549  0  0.104472  0.105998  0  1.02607  0
H  H127  1  0.30388752  0.74333390  0.71439433  1  0.071248  0  0.104645  0.105867  0  1.026174  0
H  H128  1  0.74342044  0.23839927  0.71427457  1  0.075422  0  0.104468  0.105996  0  1.026074  0
H  H129  1  0.23830973  0.30388171  0.71438838  1  0.088024  0  0.103989  0.105101  0  1.025905  0
H  H130  1  0.80388324  0.73830793  0.21438806  1  0.087985  0  0.103974  0.105054  0  1.025883  0
H  H131  1  0.24333578  0.80388876  0.21439377  1  0.071189  0  0.104654  0.105922  0  1.026114  0
H  H132  1  0.73840268  0.24341571  0.21427505  1  0.075474  0  0.10445  0.105972  0  1.026057  0
H  H133  1  0.69611204  0.25666589  0.28560627  1  0.071169  0  0.104646  0.105893  0  1.026162  0
H  H134  1  0.25657912  0.76160104  0.28572488  1  0.075358  0  0.104448  0.10598  0  1.026091  0
H  H135  1  0.76169213  0.69611813  0.28561164  1  0.087725  0  0.103992  0.105088  0  1.025906  0
H  H136  1  0.20357166  0.31515206  0.84613386  1  0.073329  0  0.104763  0.113103  0  1.017057  0
H  H137  1  0.63521721  0.20355587  0.84611721  1  0.075572  0  0.103457  0.11243  0  1.017857  0
H  H138  1  0.31505039  0.63518239  0.84624142  1  0.039694  0  0.104043  0.112097  0  1.01732  0
H  H139  1  0.29644572  0.86478072  0.65388360  1  0.075566  0  0.103492  0.112469  0  1.017798  0
H  H140  1  0.86482168  0.18494741  0.65375688  1  0.039661  0  0.104008  0.112086  0  1.017264  0
H  H141  1  0.18484951  0.29642798  0.65386672  1  0.073392  0  0.104782  0.113111  0  1.017043  0
H  H142  1  0.79642847  0.68484748  0.15386666  1  0.073316  0  0.104771  0.113136  0  1.016994  0
H  H143  1  0.36478235  0.79644496  0.15388211  1  0.075591  0  0.103474  0.112419  0  1.017893  0
H  H144  1  0.68494859  0.36481816  0.15375913  1  0.039671  0  0.104034  0.112085  0  1.017326  0
H  H145  1  0.70355327  0.13522036  0.34611682  1  0.075599  0  0.103444  0.112404  0  1.017887  0
H  H146  1  0.13517845  0.81505213  0.34624329  1  0.039691  0  0.104015  0.112096  0  1.01726  0
H  H147  1  0.81515292  0.70357161  0.34613288  1  0.073328  0  0.104756  0.113126  0  1.016998  0
H  H148  1  0.34317213  0.21845138  0.97820125  1  0.085522  0  0.099805  0.10473  0  1.019678  0
H  H149  1  0.46013372  0.34321215  0.97815654  1  0.076132  0  0.099347  0.105091  0  1.02006  0
H  H150  1  0.21844738  0.46017021  0.97815707  1  0.076777  0  0.099337  0.10524  0  1.01957  0
H  H151  1  0.15678967  0.03986632  0.52184197  1  0.076162  0  0.099349  0.105123  0  1.020086  0
H  H152  1  0.03983216  0.28155209  0.52184246  1  0.076804  0  0.099336  0.105271  0  1.019599  0
H  H153  1  0.28154956  0.15682670  0.52180047  1  0.085792  0  0.099785  0.104686  0  1.01967  0
H  H154  1  0.65682800  0.78154816  0.02179960  1  0.085852  0  0.099815  0.104742  0  1.019666  0
H  H155  1  0.53986699  0.65678766  0.02184309  1  0.076164  0  0.099352  0.105103  0  1.020082  0
H  H156  1  0.78155276  0.53982934  0.02184310  1  0.076757  0  0.099327  0.105241  0  1.019554  0
H  H157  1  0.84321047  0.96013374  0.47815740  1  0.076163  0  0.099375  0.105128  0  1.02009  0
H  H158  1  0.96016797  0.71844745  0.47815806  1  0.0768  0  0.099323  0.105262  0  1.019585  0
H  H159  1  0.71845000  0.84317361  0.47819932  1  0.085784  0  0.099766  0.104668  0  1.019689  0
C  C160  1  0.77792791  0.50125543  0.15025344  1  1.541284  0  0.226547  0.606607  0  4.157927  0
C  C161  1  0.57060188  0.77788936  0.15021823  1  1.53292  0  0.227387  0.606977  0  4.15625  0
C  C162  1  0.50125303  0.57048778  0.15026309  1  1.541286  0  0.225609  0.606413  0  4.159477  0
C  C163  1  0.72211156  0.92939670  0.34978084  1  1.533267  0  0.227399  0.607134  0  4.156018  0
C  C164  1  0.92951297  0.99874492  0.34973705  1  1.541264  0  0.225587  0.606403  0  4.159501  0
C  C165  1  0.99874642  0.72206829  0.34974790  1  1.541296  0  0.226542  0.606613  0  4.157932  0
C  C166  1  0.22207107  0.49874461  0.84974724  1  1.541002  0  0.226542  0.606634  0  4.157931  0
C  C167  1  0.42939768  0.22211094  0.84978190  1  1.532922  0  0.227391  0.60701  0  4.156216  0
C  C168  1  0.49874825  0.42951231  0.84973667  1  1.541325  0  0.225604  0.606424  0  4.159456  0
C  C169  1  0.27788685  0.07060410  0.65021911  1  1.532894  0  0.22739  0.607097  0  4.156003  0
C  C170  1  0.07048774  0.00125437  0.65026270  1  1.541257  0  0.225596  0.60637  0  4.15956  0
C  C171  1  0.00125429  0.27793101  0.65025253  1  1.541339  0  0.226491  0.606543  0  4.158042  0
C  C172  1  0.85391292  0.46422839  0.11775438  1  0.005276  0  -0.024413  -0.05638  0  3.986075  0
C  C173  1  0.56415674  0.85387849  0.11772334  1  0.052179  0  -0.024457  -0.055763  0  3.98515  0
C  C174  1  0.46423889  0.56399978  0.11776449  1  -0.015364  0  -0.022343  -0.052114  0  3.983154  0
C  C175  1  0.64612257  0.93584155  0.38227583  1  0.05222  0  -0.024463  -0.055806  0  3.985237  0
C  C176  1  0.93600133  0.03575931  0.38223555  1  -0.015438  0  -0.02231  -0.052158  0  3.983757  0
C  C177  1  0.03577022  0.64608399  0.38224775  1  0.005117  0  -0.02443  -0.056384  0  3.985952  0
C  C178  1  0.14608606  0.53576906  0.88224727  1  0.005349  0  -0.024403  -0.056394  0  3.985985  0
C  C179  1  0.43584225  0.14612206  0.88227720  1  0.053264  0  -0.024476  -0.055774  0  3.985181  0
C  C180  1  0.53576125  0.43600132  0.88223530  1  -0.015394  0  -0.02234  -0.052101  0  3.983175  0
C  C181  1  0.35387641  0.06415849  0.61772450  1  0.052221  0  -0.024438  -0.055726  0  3.98514  0
C  C182  1  0.06399996  0.96424026  0.61776400  1  -0.01547  0  -0.022312  -0.05199  0  3.983172  0
C  C183  1  0.96422876  0.35391501  0.61775318  1  0.005273  0  -0.024441  -0.056443  0  3.985992  0
C  C184  1  0.87128087  0.39958200  0.10160461  1  -0.070283  0  -0.082579  -0.081264  0  3.984347  0
C  C185  1  0.62759432  0.87124074  0.10155233  1  -0.037886  0  -0.08222  -0.083245  0  3.982682  0
C  C186  1  0.39962028  0.62745526  0.10160604  1  -0.074238  0  -0.084359  -0.08532  0  3.987617  0
C  C187  1  0.62876227  0.87240381  0.39844602  1  -0.038158  0  -0.082253  -0.08343  0  3.98286  0
C  C188  1  0.87254581  0.10037662  0.39839512  1  -0.074281  0  -0.084361  -0.087222  0  3.987507  0
C  C189  1  0.10041807  0.62871819  0.39839553  1  -0.070274  0  -0.082582  -0.081433  0  3.984407  0
C  C190  1  0.12871869  0.60041728  0.89839577  1  -0.070318  0  -0.08262  -0.081468  0  3.984368  0
C  C191  1  0.37240524  0.12875957  0.89844745  1  -0.03792  0  -0.082196  -0.083245  0  3.982841  0
C  C192  1  0.60037756  0.37254528  0.89839547  1  -0.074286  0  -0.084353  -0.085329  0  3.987619  0
C  C193  1  0.37123787  0.12759626  0.60155368  1  -0.038152  0  -0.082243  -0.083407  0  3.98278  0
C  C194  1  0.12745490  0.89962371  0.60160370  1  -0.074484  0  -0.084397  -0.085773  0  3.987998  0
C  C195  1  0.89958149  0.37128160  0.60160438  1  -0.070374  0  -0.082558  -0.081345  0  3.984492  0
C  C196  1  0.94052254  0.36705471  0.06928806  1  -0.06591  0  -0.093125  -0.138264  0  3.975304  0
C  C197  1  0.62315919  0.94051401  0.06925261  1  -0.06447  0  -0.091541  -0.134949  0  3.976372  0
C  C198  1  0.36703129  0.62306059  0.06932340  1  -0.054884  0  -0.090428  -0.134284  0  3.977515  0
C  C199  1  0.55948961  0.87683714  0.43074747  1  -0.064474  0  -0.091503  -0.1348  0  3.976248  0
C  C200  1  0.87694116  0.13296898  0.43067612  1  -0.05495  0  -0.090479  -0.134455  0  3.978026  0
C  C201  1  0.13294338  0.55947841  0.43071371  1  -0.065642  0  -0.093128  -0.138165  0  3.975408  0
C  C202  1  0.05947817  0.63294458  0.93071238  1  -0.065815  0  -0.093133  -0.138156  0  3.975261  0
C  C203  1  0.37683980  0.05948654  0.93074760  1  -0.064462  0  -0.091553  -0.134979  0  3.976431  0
C  C204  1  0.63296885  0.37694051  0.93067606  1  -0.054904  0  -0.09051  -0.134426  0  3.977498  0
C  C205  1  0.44051110  0.12316216  0.56925262  1  -0.064492  0  -0.091538  -0.134855  0  3.976407  0
C  C206  1  0.12305955  0.86703239  0.56932244  1  -0.054665  0  -0.090438  -0.134359  0  3.977455  0
C  C207  1  0.86705561  0.44052266  0.56928671  1  -0.065751  0  -0.093142  -0.13878  0  3.97524  0
C  C208  1  0.99453481  0.39801823  0.05197344  1  -0.001189  0  0.000935  0.081638  0  3.97989  0
C  C209  1  0.55548736  0.99453507  0.05196562  1  -0.034727  0  -0.001073  0.078666  0  3.985054  0
C  C210  1  0.39793899  0.55537750  0.05205383  1  0.026404  0  -0.001723  0.077997  0  3.986227  0
C  C211  1  0.50546802  0.94450992  0.44803311  1  -0.034685  0  -0.001108  0.078648  0  3.985058  0
C  C212  1  0.94462503  0.10206001  0.44794640  1  0.026462  0  -0.001668  0.078099  0  3.985915  0
C  C213  1  0.10198182  0.50546572  0.44802725  1  -0.001194  0  0.000934  0.081618  0  3.979866  0
C  C214  1  0.00546532  0.60198183  0.94802660  1  -0.001334  0  0.000917  0.081598  0  3.97984  0
C  C215  1  0.44451163  0.00546653  0.94803433  1  -0.034685  0  -0.001063  0.078672  0  3.985099  0
C  C216  1  0.60206057  0.44462332  0.94794617  1  0.026491  0  -0.001646  0.078162  0  3.986152  0
C  C217  1  0.49453327  0.05548964  0.55196780  1  -0.034688  0  -0.001104  0.078606  0  3.985231  0
C  C218  1  0.05537568  0.89794136  0.55205251  1  0.026357  0  -0.001724  0.078104  0  3.985995  0
C  C219  1  0.89801774  0.49453459  0.55197322  1  -0.001186  0  0.0009  0.081539  0  3.980098  0
C  C220  1  0.97741123  0.46143022  0.06954802  1  -0.006596  0  -0.089053  -0.132251  0  3.966574  0
C  C221  1  0.49164136  0.97737968  0.06953056  1  -0.048099  0  -0.088516  -0.129622  0  3.968961  0
C  C222  1  0.46139126  0.49150965  0.06958755  1  -0.06413  0  -0.086996  -0.129498  0  3.967701  0
C  C223  1  0.52262100  0.00835658  0.43046900  1  -0.048067  0  -0.088433  -0.129628  0  3.968877  0
C  C224  1  0.00849274  0.03860924  0.43041080  1  -0.064124  0  -0.08701  -0.129429  0  3.967468  0
C  C225  1  0.03856985  0.52258693  0.43045231  1  -0.006719  0  -0.089094  -0.132308  0  3.966605  0
C  C226  1  0.02258833  0.53856854  0.93045249  1  -0.006667  0  -0.089051  -0.132289  0  3.966629  0
C  C227  1  0.50835935  0.02261962  0.93046750  1  -0.048105  0  -0.088515  -0.129607  0  3.969014  0
C  C228  1  0.53860830  0.50849222  0.93041253  1  -0.064064  0  -0.08699  -0.129458  0  3.967603  0
C  C229  1  0.47737914  0.99164400  0.56953127  1  -0.048082  0  -0.088448  -0.129598  0  3.968915  0
C  C230  1  0.99150797  0.96139161  0.56958824  1  -0.063904  0  -0.086979  -0.129448  0  3.967498  0
C  C231  1  0.96143086  0.47741236  0.56954779  1  -0.006637  0  -0.089065  -0.132298  0  3.96659  0
C  C232  1  0.90820686  0.49408401  0.10201145  1  -0.050287  0  -0.078428  -0.0719  0  3.965012  0
C  C233  1  0.49573512  0.90818067  0.10200497  1  -0.078394  0  -0.07834  -0.074203  0  3.966477  0
C  C234  1  0.49407847  0.49557359  0.10203677  1  -0.006011  0  -0.080572  -0.075235  0  3.965255  0
C  C235  1  0.59182188  0.00426283  0.39799508  1  -0.078362  0  -0.078358  -0.074157  0  3.966369  0
C  C236  1  0.00442900  0.00591880  0.39796298  1  -0.005757  0  -0.080665  -0.075464  0  3.965066  0
C  C237  1  0.00591587  0.59179088  0.39798946  1  -0.050314  0  -0.07842  -0.071871  0  3.965028  0
C  C238  1  0.09179155  0.50591472  0.89799002  1  -0.050292  0  -0.078426  -0.071833  0  3.965041  0
C  C239  1  0.50426502  0.09181887  0.89799453  1  -0.079516  0  -0.078338  -0.074211  0  3.966508  0
C  C240  1  0.50592052  0.50442748  0.89796365  1  -0.006193  0  -0.080611  -0.075318  0  3.965271  0
C  C241  1  0.40817883  0.99573751  0.60200544  1  -0.078261  0  -0.07832  -0.074108  0  3.966343  0
C  C242  1  0.99557228  0.99408128  0.60203678  1  -0.006001  0  -0.080632  -0.075396  0  3.965141  0
C  C243  1  0.99408369  0.40820788  0.60201105  1  -0.050285  0  -0.078413  -0.071869  0  3.965084  0
C  C244  1  0.06630413  0.36548191  0.01556951  1  -0.054076  0  -0.008958  0.072153  0  4.036992  0
C  C245  1  0.55263970  0.06633317  0.01557288  1  -0.014377  0  -0.009436  0.071378  0  4.038956  0
C  C246  1  0.36541329  0.55253719  0.01564845  1  -0.070988  0  -0.009667  0.073763  0  4.038018  0
C  C247  1  0.43366863  0.94735759  0.48442624  1  -0.014209  0  -0.009481  0.07132  0  4.03901  0
C  C248  1  0.94746534  0.13458560  0.48435150  1  -0.071039  0  -0.009613  0.073857  0  4.038239  0
C  C249  1  0.13451796  0.43369573  0.48443089  1  -0.054228  0  -0.009004  0.072134  0  4.037059  0
C  C250  1  0.93369600  0.63451711  0.98443045  1  -0.054087  0  -0.008995  0.072139  0  4.036988  0
C  C251  1  0.44736043  0.93366741  0.98442670  1  -0.014387  0  -0.009433  0.071326  0  4.03908  0
C  C252  1  0.63458627  0.44746260  0.98435147  1  -0.071003  0  -0.009657  0.073789  0  4.038042  0
C  C253  1  0.56633265  0.05264146  0.51557445  1  -0.014202  0  -0.009465  0.071324  0  4.039078  0
C  C254  1  0.05253422  0.86541626  0.51564757  1  -0.07106  0  -0.009675  0.073766  0  4.038039  0
C  C255  1  0.86548275  0.56630460  0.51556896  1  -0.054201  0  -0.008942  0.072169  0  4.036993  0
C  C256  1  0.13410964  0.36756933  0.01420376  1  -0.006961  0  -0.085668  -0.175577  0  3.924134  0
C  C257  1  0.48410170  0.13413186  0.01418325  1  -0.03495  0  -0.085501  -0.17644  0  3.926037  0
C  C258  1  0.36754799  0.48402119  0.01421782  1  -0.020902  0  -0.085512  -0.176208  0  3.926235  0
C  C259  1  0.36587076  0.01589516  0.48581591  1  -0.035211  0  -0.085444  -0.176363  0  3.926065  0
C  C260  1  0.01598175  0.13245101  0.48578118  1  -0.020694  0  -0.085543  -0.176372  0  3.926291  0
C  C261  1  0.13243232  0.36588902  0.48579711  1  -0.007429  0  -0.085666  -0.175653  0  3.924144  0
C  C262  1  0.86588992  0.63243046  0.98579649  1  -0.007315  0  -0.085675  -0.17561  0  3.924106  0
C  C263  1  0.51589786  0.86586897  0.98581675  1  -0.034972  0  -0.08549  -0.176413  0  3.926064  0
C  C264  1  0.63245272  0.51597862  0.98578147  1  -0.020901  0  -0.085515  -0.176294  0  3.926249  0
C  C265  1  0.63413052  0.98410389  0.51418512  1  -0.03523  0  -0.085439  -0.176286  0  3.926111  0
C  C266  1  0.98401839  0.86755061  0.51421747  1  -0.020675  0  -0.085551  -0.176378  0  3.926335  0
C  C267  1  0.86756896  0.63411107  0.51420333  1  -0.006993  0  -0.085675  -0.175579  0  3.924037  0
C  C268  1  0.20146987  0.33747118  0.97901820  1  -0.035868  0  -0.004425  0.085436  0  4.013902  0
C  C269  1  0.48203107  0.20150082  0.97900123  1  -0.039007  0  -0.005103  0.08672  0  4.013595  0
C  C270  1  0.33745912  0.48199156  0.97900566  1  0.000125  0  -0.005941  0.083024  0  4.017785  0
C  C271  1  0.29850099  0.01796820  0.52099833  1  -0.038916  0  -0.005152  0.08665  0  4.013708  0
C  C272  1  0.01800989  0.16254048  0.52099397  1  -0.000104  0  -0.005971  0.083028  0  4.017809  0
C  C273  1  0.16253068  0.29852886  0.52098323  1  -0.03549  0  -0.004412  0.085494  0  4.01379  0
C  C274  1  0.79853026  0.66252784  0.02098278  1  -0.035517  0  -0.004375  0.085473  0  4.013917  0
C  C275  1  0.51796907  0.79849924  0.02099848  1  -0.038953  0  -0.005139  0.086679  0  4.013607  0
C  C276  1  0.66254101  0.51800799  0.02099383  1  0.000108  0  -0.005941  0.083062  0  4.017874  0
C  C277  1  0.70149915  0.98203186  0.47900172  1  -0.038912  0  -0.005124  0.086684  0  4.013688  0
C  C278  1  0.98199024  0.83746010  0.47900561  1  -0.000255  0  -0.005948  0.083099  0  4.017743  0
C  C279  1  0.83747061  0.70147123  0.47901789  1  -0.036036  0  -0.004415  0.085394  0  4.013884  0
C  C280  1  0.20099189  0.30519964  0.94443216  1  -0.070614  0  -0.085719  -0.175802  0  3.91301  0
C  C281  1  0.54939720  0.20100425  0.94445265  1  0.012699  0  -0.086272  -0.175271  0  3.915918  0
C  C282  1  0.30519538  0.54935987  0.94444242  1  -0.021797  0  -0.087497  -0.176964  0  3.918405  0
C  C283  1  0.29899781  0.95060086  0.55554673  1  0.012971  0  -0.086227  -0.175264  0  3.915778  0
C  C284  1  0.95064164  0.19480331  0.55555655  1  -0.021486  0  -0.087477  -0.176907  0  3.91836  0
C  C285  1  0.19480121  0.29900733  0.55556903  1  -0.070603  0  -0.085734  -0.175892  0  3.913009  0
C  C286  1  0.79900824  0.69479991  0.05556836  1  -0.070675  0  -0.085741  -0.175806  0  3.913108  0
C  C287  1  0.45060178  0.79899579  0.05554700  1  0.012735  0  -0.086285  -0.175287  0  3.91575  0
C  C288  1  0.69480418  0.45064043  0.05555703  1  -0.021807  0  -0.08749  -0.176918  0  3.918447  0
C  C289  1  0.70100175  0.04939945  0.44445340  1  0.012959  0  -0.086231  -0.175323  0  3.915772  0
C  C290  1  0.04935792  0.80519752  0.44444277  1  -0.021456  0  -0.087448  -0.176867  0  3.918368  0
C  C291  1  0.80520007  0.70099275  0.44443141  1  -0.070664  0  -0.085747  -0.175829  0  3.913137  0
C  C292  1  0.13391013  0.30275179  0.94484768  1  0.040978  0  -0.008412  0.072773  0  4.035716  0
C  C293  1  0.61854001  0.13393574  0.94487046  1  -0.058943  0  -0.009072  0.071512  0  4.037429  0
C  C294  1  0.30264263  0.61848568  0.94494198  1  -0.04155  0  -0.008979  0.071926  0  4.03421  0
C  C295  1  0.36606646  0.88145781  0.55512916  1  -0.058863  0  -0.009083  0.071509  0  4.037306  0
C  C296  1  0.88151619  0.19735483  0.55505728  1  -0.041467  0  -0.008982  0.071984  0  4.034138  0
C  C297  1  0.19724916  0.36608922  0.55515283  1  0.040989  0  -0.00834  0.072831  0  4.03562  0
C  C298  1  0.86609001  0.69724723  0.05515262  1  0.041016  0  -0.008409  0.072732  0  4.035663  0
C  C299  1  0.38145955  0.86606509  0.05512920  1  -0.058859  0  -0.009018  0.071591  0  4.037271  0
C  C300  1  0.69735694  0.38151463  0.05505781  1  -0.04153  0  -0.008965  0.071929  0  4.034197  0
C  C301  1  0.63393368  0.11854225  0.44487123  1  -0.058862  0  -0.009081  0.071573  0  4.037194  0
C  C302  1  0.11848337  0.80264548  0.44494251  1  -0.041539  0  -0.008992  0.072004  0  4.034179  0
C  C303  1  0.80275270  0.63391113  0.44484707  1  0.041025  0  -0.00836  0.072797  0  4.035755  0
C  C304  1  0.06731763  0.33290435  0.98055251  1  -0.056833  0  -0.090837  -0.186546  0  3.944784  0
C  C305  1  0.61925914  0.06733535  0.98057079  1  -0.050006  0  -0.089495  -0.185849  0  3.944746  0
C  C306  1  0.33274646  0.61917597  0.98068640  1  0.002836  0  -0.089381  -0.185865  0  3.940975  0
C  C307  1  0.43266753  0.88073870  0.51942825  1  -0.050097  0  -0.089567  -0.185875  0  3.944876  0
C  C308  1  0.88082651  0.16725215  0.51931172  1  0.002711  0  -0.089423  -0.186004  0  3.941147  0
C  C309  1  0.16709695  0.43268131  0.51944709  1  -0.056848  0  -0.090851  -0.186506  0  3.944712  0
C  C310  1  0.93268251  0.66709467  0.01944712  1  -0.056659  0  -0.090891  -0.186621  0  3.944781  0
C  C311  1  0.38074100  0.93266575  0.01942833  1  -0.05008  0  -0.089525  -0.185793  0  3.944795  0
C  C312  1  0.66725425  0.38082385  0.01931323  1  0.002822  0  -0.089453  -0.185968  0  3.940963  0
C  C313  1  0.56733260  0.11926136  0.48057247  1  -0.05008  0  -0.089548  -0.18586  0  3.944798  0
C  C314  1  0.11917362  0.83274895  0.48068638  1  0.002764  0  -0.089377  -0.185931  0  3.940922  0
C  C315  1  0.83290491  0.56731852  0.48055225  1  -0.056672  0  -0.090882  -0.18659  0  3.944793  0
C  C316  1  0.13186228  0.27002983  0.90828675  1  -0.047686  0  -0.002648  0.078701  0  3.99183  0
C  C317  1  0.68988032  0.13191802  0.90829463  1  0.005288  0  -0.000498  0.081938  0  3.989517  0
C  C318  1  0.26991345  0.68985336  0.90839596  1  -0.024206  0  -0.000226  0.080718  0  3.9895  0
C  C319  1  0.36808284  0.81011767  0.59170588  1  0.005294  0  -0.00051  0.081836  0  3.989525  0
C  C320  1  0.81014998  0.23008328  0.59160389  1  -0.023997  0  -0.000236  0.080716  0  3.989555  0
C  C321  1  0.22997134  0.36813744  0.59171427  1  -0.048107  0  -0.00264  0.078713  0  3.991832  0
C  C322  1  0.86813785  0.72996919  0.09171457  1  -0.047787  0  -0.002642  0.078714  0  3.99192  0
C  C323  1  0.31011867  0.86808461  0.09170507  1  0.005244  0  -0.000565  0.081733  0  3.989585  0
C  C324  1  0.73008496  0.31014744  0.09160433  1  -0.024271  0  -0.000274  0.080732  0  3.989446  0
C  C325  1  0.63191614  0.18988288  0.40829433  1  0.004937  0  -0.000545  0.081707  0  3.989585  0
C  C326  1  0.18985073  0.76991602  0.40839620  1  -0.023992  0  -0.000254  0.080674  0  3.989566  0
C  C327  1  0.77003110  0.63186215  0.40828567  1  -0.047824  0  -0.002656  0.078717  0  3.991914  0
C  C328  1  0.08916295  0.22715242  0.92305576  1  -0.050825  0  -0.093396  -0.139769  0  3.999238  0
C  C329  1  0.76070014  0.08920965  0.92306129  1  -0.094587  0  -0.094313  -0.140649  0  4.000615  0
C  C330  1  0.22708236  0.76066100  0.92316578  1  -0.046428  0  -0.094347  -0.14108  0  3.998495  0
C  C331  1  0.41078981  0.73929967  0.57693867  1  -0.094577  0  -0.094303  -0.140585  0  4.000668  0
C  C332  1  0.73934166  0.27291482  0.57683457  1  -0.046381  0  -0.094347  -0.141085  0  3.998549  0
C  C333  1  0.27284823  0.41083728  0.57694390  1  -0.050231  0  -0.09344  -0.139863  0  3.99934  0
C  C334  1  0.91083776  0.77284636  0.07694446  1  -0.050889  0  -0.09338  -0.139736  0  3.999277  0
C  C335  1  0.23930058  0.91079121  0.07693842  1  -0.094534  0  -0.094329  -0.140651  0  4.000609  0
C  C336  1  0.77291720  0.23933983  0.07683490  1  -0.046353  0  -0.094273  -0.140997  0  3.998487  0
C  C337  1  0.58920918  0.26070037  0.42306166  1  -0.094266  0  -0.094303  -0.140691  0  4.000655  0
C  C338  1  0.26065848  0.72708524  0.42316513  1  -0.046369  0  -0.094331  -0.141031  0  3.998457  0
C  C339  1  0.72715190  0.58916382  0.42305555  1  -0.050885  0  -0.093384  -0.139792  0  3.999241  0
C  C340  1  0.08564895  0.19656194  0.88928908  1  -0.004571  0  -0.084983  -0.086267  0  3.997266  0
C  C341  1  0.82856999  0.08565779  0.88928155  1  -0.012571  0  -0.083487  -0.085963  0  3.996997  0
C  C342  1  0.19655893  0.82852253  0.88937197  1  -0.059013  0  -0.08482  -0.084967  0  3.995135  0
C  C343  1  0.41434187  0.67142871  0.61071822  1  -0.012569  0  -0.083499  -0.085973  0  3.996859  0
C  C344  1  0.67148095  0.30343883  0.61062848  1  -0.05909  0  -0.084773  -0.084806  0  3.995159  0
C  C345  1  0.30343995  0.41435048  0.61071079  1  -0.00477  0  -0.084916  -0.086183  0  3.997231  0
C  C346  1  0.91435233  0.80343711  0.11071093  1  -0.004549  0  -0.08496  -0.08625  0  3.997224  0
C  C347  1  0.17142899  0.91434432  0.11071827  1  -0.012543  0  -0.083469  -0.085902  0  3.996864  0
C  C348  1  0.80344120  0.17147805  0.11062863  1  -0.05898  0  -0.084821  -0.084953  0  3.995162  0
C  C349  1  0.58565654  0.32857209  0.38928138  1  -0.012538  0  -0.083474  -0.085878  0  3.996866  0
C  C350  1  0.32851976  0.69656047  0.38937094  1  -0.059157  0  -0.084777  -0.08486  0  3.995148  0
C  C351  1  0.69656134  0.58565012  0.38928919  1  -0.004582  0  -0.084942  -0.086233  0  3.997276  0
C  C352  1  0.12385438  0.20897151  0.83938300  1  -0.030146  0  -0.02433  -0.05381  0  3.990796  0
C  C353  1  0.82785977  0.12385124  0.83937895  1  -0.019641  0  -0.023526  -0.050845  0  3.989543  0
C  C354  1  0.20897330  0.82782043  0.83946805  1  -0.006518  0  -0.022322  -0.050146  0  3.987968  0
C  C355  1  0.37614733  0.67213866  0.66062051  1  -0.019673  0  -0.023572  -0.050934  0  3.989619  0
C  C356  1  0.67218022  0.29102704  0.66053279  1  -0.006427  0  -0.022325  -0.05022  0  3.987888  0
C  C357  1  0.29103080  0.37614399  0.66061700  1  -0.03002  0  -0.024366  -0.0538  0  3.990773  0
C  C358  1  0.87614633  0.79102779  0.16061743  1  -0.030195  0  -0.024329  -0.053774  0  3.990758  0
C  C359  1  0.17214151  0.87614936  0.16062102  1  -0.019641  0  -0.02358  -0.050998  0  3.989592  0
C  C360  1  0.79102741  0.17217887  0.16053273  1  -0.006453  0  -0.022318  -0.050178  0  3.987976  0
C  C361  1  0.62385165  0.32786189  0.33937868  1  -0.019703  0  -0.023527  -0.050857  0  3.989514  0
C  C362  1  0.32781877  0.70897352  0.33946674  1  -0.006672  0  -0.022274  -0.050098  0  3.98785  0
C  C363  1  0.70896991  0.62385531  0.33938276  1  -0.030139  0  -0.024326  -0.053743  0  3.990644  0
C  C364  1  0.16652682  0.25165008  0.82426170  1  -0.031005  0  -0.075314  -0.072236  0  3.959974  0
C  C365  1  0.75764285  0.16654142  0.82425603  1  0.023973  0  -0.077233  -0.075761  0  3.964018  0
C  C366  1  0.25156142  0.75759054  0.82436632  1  -0.013769  0  -0.078135  -0.077573  0  3.965083  0
C  C367  1  0.33345922  0.74235401  0.67574410  1  0.023915  0  -0.077192  -0.075615  0  3.963911  0
C  C368  1  0.74241266  0.24843600  0.67563416  1  -0.013616  0  -0.078202  -0.077719  0  3.965078  0
C  C369  1  0.24835148  0.33347305  0.67573846  1  -0.031152  0  -0.075314  -0.072265  0  3.960027  0
C  C370  1  0.83347504  0.74834924  0.17573845  1  -0.030949  0  -0.07533  -0.072198  0  3.960027  0
C  C371  1  0.24235786  0.83345788  0.17574271  1  0.02409  0  -0.077165  -0.075713  0  3.964029  0
C  C372  1  0.74843814  0.24241029  0.17563402  1  -0.013675  0  -0.078142  -0.077573  0  3.965077  0
C  C373  1  0.66654091  0.25764553  0.32425573  1  0.024054  0  -0.077236  -0.075772  0  3.96393  0
C  C374  1  0.25758690  0.75156379  0.32436575  1  -0.013384  0  -0.078219  -0.077775  0  3.965143  0
C  C375  1  0.75165038  0.66652627  0.32426169  1  -0.030982  0  -0.075314  -0.072224  0  3.959989  0
C  C376  1  0.17104113  0.28122887  0.85842059  1  -0.017824  0  -0.088032  -0.131441  0  3.951038  0
C  C377  1  0.68938672  0.17104724  0.85841360  1  -0.076753  0  -0.086327  -0.130811  0  3.951976  0
C  C378  1  0.28112108  0.68935278  0.85853000  1  0.004105  0  -0.086804  -0.128829  0  3.950263  0
C  C379  1  0.32895167  0.81061208  0.64158723  1  -0.076691  0  -0.086291  -0.13076  0  3.951809  0
C  C380  1  0.81064986  0.21887661  0.64146910  1  0.003833  0  -0.086726  -0.12868  0  3.950258  0
C  C381  1  0.21877180  0.32895902  0.64157906  1  -0.017845  0  -0.088043  -0.131407  0  3.951074  0
C  C382  1  0.82895786  0.71877117  0.14158042  1  -0.017846  0  -0.088023  -0.131459  0  3.951084  0
C  C383  1  0.31061399  0.82895309  0.14158590  1  -0.076738  0  -0.086304  -0.130674  0  3.951981  0
C  C384  1  0.71887848  0.31064753  0.14147013  1  0.004127  0  -0.086796  -0.12884  0  3.950224  0
C  C385  1  0.67104732  0.18938848  0.35841332  1  -0.076756  0  -0.086243  -0.130629  0  3.952012  0
C  C386  1  0.18935027  0.78112293  0.35853073  1  0.003803  0  -0.086729  -0.12868  0  3.950267  0
C  C387  1  0.78122891  0.67104132  0.35841976  1  -0.017847  0  -0.088052  -0.131511  0  3.951107  0
C  C388  1  0.27282116  0.33911377  0.97850390  1  -0.001492  0  -0.009388  0.079735  0  4.025363  0
C  C389  1  0.40953015  0.27283596  0.97849501  1  0.004568  0  -0.009113  0.080739  0  4.022844  0
C  C390  1  0.33909248  0.40952614  0.97849592  1  -0.025427  0  -0.006944  0.084565  0  4.02123  0
C  C391  1  0.22716683  0.09046970  0.52150396  1  0.004309  0  -0.009132  0.080704  0  4.022868  0
C  C392  1  0.09047566  0.16090677  0.52150330  1  -0.025332  0  -0.00692  0.084555  0  4.021339  0
C  C393  1  0.16088718  0.22717850  0.52149678  1  -0.001373  0  -0.009379  0.07972  0  4.025292  0
C  C394  1  0.72717955  0.66088500  0.02149666  1  -0.001263  0  -0.009442  0.079645  0  4.025325  0
C  C395  1  0.59047056  0.72716437  0.02150449  1  0.004575  0  -0.009074  0.080741  0  4.022954  0
C  C396  1  0.66090766  0.59047340  0.02150391  1  -0.025425  0  -0.006974  0.084447  0  4.021362  0
C  C397  1  0.77283330  0.90952984  0.47849655  1  0.004474  0  -0.00911  0.080717  0  4.022903  0
C  C398  1  0.90952390  0.83909302  0.47849696  1  -0.025199  0  -0.006902  0.084567  0  4.021281  0
C  C399  1  0.83911238  0.77282181  0.47850403  1  -0.001339  0  -0.009395  0.079785  0  4.025289  0
C  C400  1  0.34191470  0.27200445  0.97842141  1  -0.091423  0  -0.090549  -0.180833  0  3.928434  0
C  C401  1  0.40761829  0.34193665  0.97840031  1  -0.043997  0  -0.090373  -0.182855  0  3.928958  0
C  C402  1  0.27198788  0.40763708  0.97840908  1  -0.061601  0  -0.091077  -0.183321  0  3.92834  0
C  C403  1  0.15806649  0.09238154  0.52159729  1  -0.044003  0  -0.090391  -0.182854  0  3.92894  0
C  C404  1  0.09236319  0.22801186  0.52159011  1  -0.061565  0  -0.091062  -0.183352  0  3.928456  0
C  C405  1  0.22799705  0.15808492  0.52157868  1  -0.091652  0  -0.090552  -0.18077  0  3.928383  0
C  C406  1  0.65808659  0.72799408  0.02157874  1  -0.091981  0  -0.090515  -0.18075  0  3.928473  0
C  C407  1  0.59238242  0.65806369  0.02159851  1  -0.043996  0  -0.090374  -0.182822  0  3.929004  0
C  C408  1  0.72801283  0.59236221  0.02159067  1  -0.0616  0  -0.09106  -0.183274  0  3.928277  0
C  C409  1  0.84193307  0.90761877  0.47840216  1  -0.044183  0  -0.09041  -0.182848  0  3.928973  0
C  C410  1  0.90763637  0.77198793  0.47841082  1  -0.061568  0  -0.091076  -0.18339  0  3.928444  0
C  C411  1  0.77200251  0.84191487  0.47842191  1  -0.091526  0  -0.09052  -0.180774  0  3.928407  0
C  C412  1  0.11711885  0.17628923  0.80427608  1  1.541031  0  0.227888  0.607258  0  4.166714  0
C  C413  1  0.90236242  0.11707851  0.80423686  1  1.537847  0  0.226387  0.605549  0  4.16708  0
C  C414  1  0.17640402  0.90233594  0.80431425  1  1.545687  0  0.226114  0.605472  0  4.166045  0
C  C415  1  0.38292496  0.59763491  0.69576195  1  1.538214  0  0.226311  0.605373  0  4.167257  0
C  C416  1  0.59766719  0.32359260  0.69568767  1  1.545886  0  0.226175  0.605711  0  4.166295  0
C  C417  1  0.32371261  0.38288075  0.69572337  1  1.541026  0  0.227893  0.607336  0  4.16667  0
C  C418  1  0.88288186  0.82371058  0.19572389  1  1.541038  0  0.227878  0.607228  0  4.166768  0
C  C419  1  0.09763772  0.88292311  0.19576281  1  1.538325  0  0.226387  0.605657  0  4.16703  0
C  C420  1  0.82359669  0.09766388  0.19568606  1  1.545704  0  0.226175  0.60561  0  4.166059  0
C  C421  1  0.61707517  0.40236567  0.30423764  1  1.538264  0  0.226316  0.605382  0  4.167251  0
C  C422  1  0.40233237  0.67640719  0.30431292  1  1.545546  0  0.226189  0.605711  0  4.16606  0
C  C423  1  0.67628753  0.61711983  0.30427587  1  1.541025  0  0.227941  0.607393  0  4.166647  0
O  O424  1  0.72917499  0.47483489  0.15877702  1  -1.1827  0  -0.314917  -0.55554  0  2.376466  0
O  O425  1  0.63722935  0.72917783  0.15879947  1  -1.186834  0  -0.315949  -0.556905  0  2.376821  0
O  O426  1  0.47480535  0.63712442  0.15881340  1  -1.178805  0  -0.31406  -0.555771  0  2.376574  0
O  O427  1  0.77082383  0.86276824  0.34120023  1  -1.186809  0  -0.315954  -0.556933  0  2.37661  0
O  O428  1  0.86287488  0.02519031  0.34118979  1  -1.178789  0  -0.314037  -0.555981  0  2.376991  0
O  O429  1  0.02516611  0.77082205  0.34122428  1  -1.182781  0  -0.314923  -0.55554  0  2.376511  0
O  O430  1  0.27082400  0.52516515  0.84122332  1  -1.182403  0  -0.314903  -0.555536  0  2.376466  0
O  O431  1  0.36277079  0.27082223  0.84120058  1  -1.186821  0  -0.315955  -0.55694  0  2.376819  0
O  O432  1  0.52519536  0.36287592  0.84118746  1  -1.17877  0  -0.314063  -0.555794  0  2.376573  0
O  O433  1  0.22917515  0.13723128  0.65879989  1  -1.186781  0  -0.315949  -0.556939  0  2.376627  0
O  O434  1  0.13712525  0.97480820  0.65881098  1  -1.178799  0  -0.31404  -0.555765  0  2.376633  0
O  O435  1  0.97483460  0.22917725  0.65877547  1  -1.182781  0  -0.314904  -0.555503  0  2.376495  0
O  O436  1  0.13976636  0.19845958  0.75760101  1  -1.169048  0  -0.316423  -0.546561  0  2.304013  0
O  O437  1  0.90415146  0.13966491  0.75757341  1  -1.16196  0  -0.315628  -0.545604  0  2.304789  0
O  O438  1  0.19856485  0.90411974  0.75765138  1  -1.172136  0  -0.315168  -0.545423  0  2.304524  0
O  O439  1  0.36034006  0.59584591  0.74242639  1  -1.162271  0  -0.315621  -0.545582  0  2.304791  0
O  O440  1  0.59588504  0.30143268  0.74234922  1  -1.172277  0  -0.315124  -0.545436  0  2.304731  0
O  O441  1  0.30154147  0.36023408  0.74239877  1  -1.169006  0  -0.316425  -0.5466  0  2.303971  0
O  O442  1  0.86023435  0.80154023  0.24239930  1  -1.169048  0  -0.316431  -0.546553  0  2.304026  0
O  O443  1  0.09584868  0.86033774  0.24242634  1  -1.162363  0  -0.315603  -0.54561  0  2.304746  0
O  O444  1  0.80143529  0.09587980  0.24234880  1  -1.172218  0  -0.315178  -0.545472  0  2.30449  0
O  O445  1  0.63966008  0.40415467  0.25757353  1  -1.162281  0  -0.315643  -0.545613  0  2.30484  0
O  O446  1  0.40411509  0.69856738  0.25765049  1  -1.17191  0  -0.315186  -0.545523  0  2.304509  0
O  O447  1  0.69845867  0.63976702  0.25760068  1  -1.169053  0  -0.316446  -0.546615  0  2.304001  0
O  O448  1  0.59155526  0.59157962  0.22522113  1  -1.213501  0  -0.573826  -1.021143  0  2.542656  0
O  O449  1  0.90842263  0.90844198  0.27477876  1  -1.213406  0  -0.573855  -1.021162  0  2.542666  0
O  O450  1  0.40844487  0.40842044  0.77477892  1  -1.213535  0  -0.573821  -1.021129  0  2.542605  0
O  O451  1  0.09157750  0.09155704  0.72522120  1  -1.213416  0  -0.573864  -1.021213  0  2.542716  0
O  O452  1  0.76684459  0.55665127  0.16675402  1  -1.168659  0  -0.31534  -0.550334  0  2.343558  0
O  O453  1  0.50982646  0.76674806  0.16664255  1  -1.172975  0  -0.315112  -0.54958  0  2.341387  0
O  O454  1  0.55668839  0.50969806  0.16673479  1  -1.176005  0  -0.314975  -0.550306  0  2.343281  0
O  O455  1  0.73325388  0.99017062  0.33335633  1  -1.173273  0  -0.315097  -0.549671  0  2.341417  0
O  O456  1  0.99030344  0.94331165  0.33326353  1  -1.176031  0  -0.314974  -0.550278  0  2.343314  0
O  O457  1  0.94335194  0.73315110  0.33324582  1  -1.168641  0  -0.315289  -0.550284  0  2.343374  0
O  O458  1  0.23315440  0.44334929  0.83324619  1  -1.168653  0  -0.315321  -0.550321  0  2.343538  0
O  O459  1  0.49017367  0.23325252  0.83335737  1  -1.172976  0  -0.315116  -0.549613  0  2.341363  0
O  O460  1  0.44331175  0.49030148  0.83326504  1  -1.175994  0  -0.314982  -0.550315  0  2.343276  0
O  O461  1  0.26674626  0.00982788  0.66664375  1  -1.172933  0  -0.315123  -0.549702  0  2.341387  0
O  O462  1  0.00969727  0.05668764  0.66673656  1  -1.176002  0  -0.314995  -0.550303  0  2.343361  0
O  O463  1  0.05664877  0.26684819  0.66675394  1  -1.168662  0  -0.315269  -0.550279  0  2.343485  0
O  O464  1  0.08793895  0.12806895  0.82434646  1  -1.180715  0  -0.31982  -0.553011  0  2.374977  0
O  O465  1  0.95971477  0.08798834  0.82426693  1  -1.178812  0  -0.319292  -0.552105  0  2.374386  0
O  O466  1  0.12821698  0.95973257  0.82433081  1  -1.193051  0  -0.319482  -0.552778  0  2.373333  0
O  O467  1  0.41201363  0.54028307  0.67573237  1  -1.178899  0  -0.319188  -0.551904  0  2.374367  0
O  O468  1  0.54027056  0.37177768  0.67567068  1  -1.193143  0  -0.319543  -0.552923  0  2.373445  0
O  O469  1  0.37193230  0.41206060  0.67565313  1  -1.180758  0  -0.319806  -0.553032  0  2.375015  0
O  O470  1  0.91206118  0.87193060  0.17565337  1  -1.180721  0  -0.319782  -0.552972  0  2.37507  0
O  O471  1  0.04028594  0.91201148  0.17573304  1  -1.179016  0  -0.319315  -0.552149  0  2.374353  0
O  O472  1  0.87178316  0.04026801  0.17566911  1  -1.193088  0  -0.319532  -0.552855  0  2.373403  0
O  O473  1  0.58798651  0.45971699  0.32426767  1  -1.1789  0  -0.319179  -0.551898  0  2.374378  0
O  O474  1  0.45972900  0.62822263  0.32432911  1  -1.19314  0  -0.319533  -0.552886  0  2.37346  0
O  O475  1  0.62806726  0.58794074  0.32434675  1  -1.180711  0  -0.319827  -0.553051  0  2.374995  0
