# generated using pymatgen
data_Co2H18C18S3N8O9
_symmetry_space_group_name_H-M   'P 1'
_cell_length_a   16.64335503
_cell_length_b   16.74601269
_cell_length_c   20.25713340
_cell_angle_alpha   89.99969919
_cell_angle_beta   90.00000765
_cell_angle_gamma   89.99982399
_symmetry_Int_Tables_number   1
_chemical_formula_structural   Co2H18C18S3N8O9
_chemical_formula_sum   'Co16 H144 C144 S24 N64 O72'
_cell_volume   5645.86229624
_cell_formula_units_Z   8
loop_
 _symmetry_equiv_pos_site_id
 _symmetry_equiv_pos_as_xyz
  1  'x, y, z'
loop_
 _atom_site_type_symbol
 _atom_site_label
 _atom_site_symmetry_multiplicity
 _atom_site_fract_x
 _atom_site_fract_y
 _atom_site_fract_z
 _atom_site_occupancy
 _atom_site_pbe_bader_charge
 _atom_site_pbe_bader_spin_density
 _atom_site_pbe_cm5_charge
 _atom_site_pbe_ddec_charge
 _atom_site_pbe_ddec_spin_density
 _atom_site_pbe_ddec_sum_bond_order
 _atom_site_pbe_magmom
Co  Co0  1  0.30141091  0.85294607  0.50115348  1  1.260818  2.60384  0.666942  0.900003  2.826162  2.389694  2.567
Co  Co1  1  0.69858651  0.64705445  0.00115477  1  1.260751  2.603831  0.666923  0.899946  2.826165  2.389737  2.567
Co  Co2  1  0.80141699  0.14704912  0.99884490  1  1.26068  2.603843  0.666962  0.900084  2.826172  2.389584  2.567
Co  Co3  1  0.19858686  0.35294780  0.49884525  1  1.260861  2.603844  0.666957  0.900122  2.826181  2.389486  2.567
Co  Co4  1  0.39181257  0.95505523  0.24433706  1  1.258235  2.598369  0.669441  0.897589  2.819422  2.38739  2.563
Co  Co5  1  0.60818789  0.54493718  0.74433862  1  1.257986  2.598382  0.669455  0.897583  2.819406  2.387572  2.563
Co  Co6  1  0.89180632  0.04493688  0.25566248  1  1.258075  2.598379  0.669487  0.897675  2.8194  2.387386  2.563
Co  Co7  1  0.10818848  0.45506099  0.75566023  1  1.257989  2.598363  0.669519  0.897646  2.819392  2.387528  2.563
Co  Co8  1  0.26027438  0.87080792  0.99493011  1  1.195598  2.555455  0.695735  0.872855  2.741981  2.520214  2.49
Co  Co9  1  0.73972372  0.62918887  0.49493692  1  1.195772  2.555441  0.695782  0.872918  2.741944  2.520284  2.49
Co  Co10  1  0.76027744  0.12919098  0.50506481  1  1.195718  2.555432  0.695792  0.872884  2.741938  2.520468  2.49
Co  Co11  1  0.23972813  0.37081446  0.00506656  1  1.195755  2.555433  0.695739  0.872786  2.741961  2.520424  2.49
Co  Co12  1  0.37141948  0.96389991  0.75868672  1  1.204358  2.56811  0.689985  0.870537  2.756151  2.4677  2.506
Co  Co13  1  0.62858579  0.53610076  0.25868207  1  1.204197  2.568126  0.689991  0.87057  2.756188  2.46754  2.506
Co  Co14  1  0.87141565  0.03610640  0.74131365  1  1.204218  2.568116  0.69002  0.870646  2.756161  2.467557  2.506
Co  Co15  1  0.12858335  0.46390171  0.24131547  1  1.20426  2.568123  0.689971  0.870544  2.756179  2.467543  2.506
H  H16  1  0.04871495  0.01860085  0.53957976  1  0.527808  0.000413  0.308081  0.288282  0.000243  0.991869  0.0
H  H17  1  0.95128162  0.48140198  0.03957568  1  0.527677  0.000413  0.308074  0.28829  0.000243  0.991961  0.0
H  H18  1  0.54871845  0.98139511  0.96042056  1  0.527731  0.000413  0.30809  0.288253  0.000243  0.991886  0.0
H  H19  1  0.45128445  0.51860250  0.46042535  1  0.527833  0.000413  0.308085  0.288293  0.000243  0.991806  0.0
H  H20  1  0.16464630  0.91231235  0.21869778  1  0.552838  0.000364  0.311714  0.304719  9e-05  0.977203  0.0
H  H21  1  0.83534454  0.58768440  0.71869720  1  0.552659  0.000364  0.31165  0.304655  9e-05  0.977175  0.0
H  H22  1  0.66464593  0.08768942  0.28129927  1  0.552774  0.000364  0.311713  0.304708  9e-05  0.977141  0.0
H  H23  1  0.33534407  0.41231964  0.78130464  1  0.552644  0.000364  0.31172  0.304714  9e-05  0.977212  0.0
H  H24  1  0.21486205  0.19447255  0.27826848  1  0.549601  0.000406  0.305893  0.287986  0.000303  1.015063  0.0
H  H25  1  0.78514297  0.30551981  0.77827337  1  0.549401  0.000406  0.305923  0.287982  0.000303  1.015158  0.0
H  H26  1  0.71486125  0.80551951  0.22173203  1  0.549623  0.000406  0.305931  0.288047  0.000303  1.015042  0.0
H  H27  1  0.28514221  0.69447841  0.72171958  1  0.549225  0.000407  0.305905  0.287921  0.000303  1.015237  0.0
H  H28  1  0.35666899  0.10005187  0.95916266  1  0.558486  0.000346  0.31175  0.306906  0.000204  0.987002  0.0
H  H29  1  0.64334446  0.39995725  0.45916581  1  0.558303  0.000346  0.31175  0.306887  0.000204  0.98702  0.0
H  H30  1  0.85665706  0.89995270  0.54083967  1  0.558509  0.000346  0.311806  0.306973  0.000204  0.986982  0.0
H  H31  1  0.14333796  0.60004160  0.04082729  1  0.558552  0.000346  0.311793  0.306946  0.000204  0.986854  0.0
H  H32  1  0.21103230  0.21304608  0.79523892  1  0.56084  0.000458  0.312485  0.294075  0.000267  0.985282  0.0
H  H33  1  0.78897452  0.28695393  0.29524159  1  0.560582  0.000458  0.31254  0.294143  0.000267  0.985254  0.0
H  H34  1  0.71102795  0.78696013  0.70476093  1  0.560679  0.000458  0.312545  0.294121  0.000267  0.985326  0.0
H  H35  1  0.28897370  0.71304507  0.20476486  1  0.561057  0.000458  0.312526  0.294109  0.000267  0.985287  0.0
H  H36  1  0.32238384  0.07618508  0.47852857  1  0.580193  0.000298  0.309245  0.311679  7.7e-05  0.984207  0.0
H  H37  1  0.67761400  0.42381078  0.97853046  1  0.580063  0.000298  0.30923  0.311694  7.7e-05  0.984206  0.0
H  H38  1  0.82238624  0.92381202  0.02147295  1  0.580025  0.000298  0.309233  0.311644  7.7e-05  0.984232  0.0
H  H39  1  0.17761358  0.57618956  0.52147432  1  0.580078  0.000298  0.309271  0.311681  7.7e-05  0.984151  0.0
H  H40  1  0.64029628  0.10829991  0.78775292  1  0.559562  0.000383  0.315381  0.308604  0.000183  0.96769  0.0
H  H41  1  0.35970394  0.39170731  0.28775015  1  0.559655  0.000383  0.315398  0.308633  0.000183  0.967776  0.0
H  H42  1  0.14029130  0.89169934  0.71224396  1  0.5596  0.000383  0.315421  0.308566  0.000183  0.967824  0.0
H  H43  1  0.85970555  0.60829446  0.21224248  1  0.559399  0.000383  0.315391  0.308601  0.000183  0.967689  0.0
H  H44  1  0.52258610  0.95577326  0.47890086  1  0.568892  0.000387  0.311118  0.293622  0.00025  1.00109  0.0
H  H45  1  0.47741440  0.54422781  0.97889648  1  0.568755  0.000388  0.311092  0.293495  0.00025  1.001177  0.0
H  H46  1  0.02258552  0.04422177  0.02109914  1  0.56883  0.000388  0.311127  0.293552  0.00025  1.001162  0.0
H  H47  1  0.97741104  0.45577341  0.52109846  1  0.568902  0.000387  0.311102  0.293569  0.00025  1.001181  0.0
H  H48  1  0.17495789  0.95197435  0.58278475  1  0.176104  0.000472  0.135452  0.101898  -4.2e-05  1.013513  0.0
H  H49  1  0.82503894  0.54802804  0.08278451  1  0.176502  0.000473  0.135474  0.10196  -4.2e-05  1.013468  0.0
H  H50  1  0.67496006  0.04802122  0.91721559  1  0.176484  0.000472  0.135433  0.101874  -4.2e-05  1.013583  0.0
H  H51  1  0.32504377  0.45197682  0.41721799  1  0.176155  0.000473  0.135406  0.101829  -4.2e-05  1.013583  0.0
H  H52  1  0.03339381  0.97756107  0.17143181  1  0.169597  0.00065  0.135097  0.102301  -1.4e-05  1.018771  0.0
H  H53  1  0.96659823  0.52243598  0.67143055  1  0.169536  0.00065  0.135108  0.102205  -1.4e-05  1.018741  0.0
H  H54  1  0.53339485  0.02244110  0.32856523  1  0.169677  0.000651  0.135132  0.102295  -1.4e-05  1.018761  0.0
H  H55  1  0.46660176  0.47755929  0.82857082  1  0.169503  0.00065  0.135112  0.102229  -1.4e-05  1.018794  0.0
H  H56  1  0.27066170  0.06322975  0.31894580  1  0.200547  0.000417  0.140107  0.108989  -3.1e-05  0.995516  0.0
H  H57  1  0.72934152  0.43676414  0.81895159  1  0.200596  0.000417  0.140119  0.10892  -3.1e-05  0.995538  0.0
H  H58  1  0.77066289  0.93676095  0.18105670  1  0.200727  0.000417  0.140171  0.109043  -3.1e-05  0.995586  0.0
H  H59  1  0.22933936  0.56323365  0.68103987  1  0.200397  0.000417  0.140139  0.108864  -3.2e-05  0.995593  0.0
H  H60  1  0.31193381  0.23784368  0.91788702  1  0.192384  0.000651  0.141564  0.104631  6e-06  0.998637  0.0
H  H61  1  0.68808085  0.26216570  0.41788387  1  0.192487  0.000651  0.141566  0.104723  6e-06  0.99856  0.0
H  H62  1  0.81192411  0.76216103  0.58212321  1  0.192332  0.000651  0.141503  0.104547  6e-06  0.998491  0.0
H  H63  1  0.18807332  0.73783360  0.08210480  1  0.192755  0.000651  0.141521  0.104682  6e-06  0.998538  0.0
H  H64  1  0.26832324  0.08706182  0.84294486  1  0.17693  0.000677  0.138983  0.103388  8.4e-05  0.994062  0.001
H  H65  1  0.73167939  0.41293968  0.34294698  1  0.176955  0.000676  0.138953  0.103386  8.4e-05  0.994046  0.001
H  H66  1  0.76832149  0.91294541  0.65705796  1  0.17684  0.000676  0.138987  0.103421  8.4e-05  0.99402  0.001
H  H67  1  0.23166994  0.58706367  0.15705897  1  0.177006  0.000676  0.138946  0.103346  8.4e-05  0.994123  0.001
H  H68  1  0.26248886  0.20411788  0.42553856  1  0.177488  0.00063  0.136873  0.100899  -8e-05  1.00694  0.001
H  H69  1  0.73751017  0.29587652  0.92553805  1  0.177474  0.00063  0.136918  0.100909  -8e-05  1.006917  0.001
H  H70  1  0.76248927  0.79588000  0.07446246  1  0.177461  0.000629  0.136835  0.100843  -8e-05  1.007002  0.001
H  H71  1  0.23749795  0.70413021  0.57446723  1  0.177296  0.00063  0.136904  0.100889  -8e-05  1.006816  0.001
H  H72  1  0.50753707  0.05526822  0.84207019  1  0.181925  0.000723  0.135712  0.098811  0.000169  1.021737  0.001
H  H73  1  0.49246435  0.44473567  0.34206819  1  0.182001  0.000723  0.135703  0.098814  0.000169  1.021647  0.001
H  H74  1  0.00753013  0.94473025  0.65793013  1  0.181916  0.000722  0.135695  0.098765  0.000169  1.021743  0.001
H  H75  1  0.99246131  0.55525673  0.15792495  1  0.181824  0.000723  0.135674  0.098791  0.000169  1.021686  0.001
H  H76  1  0.64806406  0.01277262  0.43183801  1  0.17604  0.000778  0.143081  0.111902  5.2e-05  0.982332  0.0
H  H77  1  0.35193858  0.48723130  0.93183268  1  0.175911  0.000778  0.143077  0.111925  5.2e-05  0.982271  0.0
H  H78  1  0.14806598  0.98722800  0.06816200  1  0.176073  0.000778  0.143087  0.111914  5.2e-05  0.982342  0.0
H  H79  1  0.85193505  0.51277269  0.56815978  1  0.175924  0.000778  0.143095  0.11192  5.2e-05  0.982347  0.0
H  H80  1  0.23061442  0.88712018  0.34527350  1  0.108099  0.000589  0.116098  0.1549  0.0002  1.016829  0.0
H  H81  1  0.76937645  0.61288055  0.84527231  1  0.107963  0.000589  0.116178  0.155027  0.0002  1.016679  0.0
H  H82  1  0.73061875  0.11287959  0.15472455  1  0.108067  0.000589  0.116105  0.154849  0.0002  1.016766  0.0
H  H83  1  0.26937242  0.38713325  0.65472903  1  0.107981  0.000589  0.1161  0.15496  0.0002  1.016601  0.0
H  H84  1  0.97313010  0.03418924  0.40896308  1  0.107228  0.000406  0.112032  0.148053  3.2e-05  1.031037  0.0
H  H85  1  0.02687134  0.46580408  0.90896324  1  0.107248  0.000406  0.112024  0.148009  3.2e-05  1.030946  0.0
H  H86  1  0.47313208  0.96580084  0.09103648  1  0.107586  0.000406  0.112006  0.147961  3.2e-05  1.031069  0.0
H  H87  1  0.52686955  0.53419792  0.59104202  1  0.107237  0.000406  0.112029  0.147962  3.2e-05  1.031047  0.0
H  H88  1  0.35860436  0.01982480  0.08553627  1  0.149085  0.000435  0.112956  0.14376  6e-06  1.032359  0.0
H  H89  1  0.64139703  0.48017595  0.58554186  1  0.149132  0.000436  0.112955  0.143761  7e-06  1.032288  0.0
H  H90  1  0.85859163  0.98017757  0.41446723  1  0.149386  0.000435  0.112971  0.143752  7e-06  1.032366  0.0
H  H91  1  0.14139384  0.51982331  0.91445008  1  0.149533  0.000435  0.112906  0.143733  6e-06  1.032366  0.0
H  H92  1  0.21874754  0.27990104  0.15122416  1  0.140912  0.001234  0.109562  0.139052  0.000579  1.03007  0.0
H  H93  1  0.78125866  0.22009451  0.65122547  1  0.140769  0.001235  0.109565  0.139107  0.000579  1.02983  0.0
H  H94  1  0.71873921  0.72009698  0.34878425  1  0.111587  0.001269  0.109537  0.13895  0.00058  1.029986  0.0
H  H95  1  0.28125285  0.77990432  0.84876649  1  0.140804  0.001235  0.10958  0.139131  0.000579  1.02982  0.0
H  H96  1  0.33079031  0.01246561  0.60794830  1  0.099662  0.000781  0.113399  0.141673  0.000416  1.02198  0.0
H  H97  1  0.66921048  0.48753559  0.10794614  1  0.099718  0.000782  0.11338  0.141632  0.000416  1.021779  0.0
H  H98  1  0.83078957  0.98753486  0.89205453  1  0.099793  0.000781  0.113411  0.141697  0.000416  1.021941  0.0
H  H99  1  0.16922173  0.51246377  0.39205832  1  0.099843  0.000781  0.113386  0.141706  0.000416  1.021693  0.0
H  H100  1  0.18738612  0.27562443  0.65960014  1  0.208233  0.000748  0.115706  0.163794  0.000217  1.021287  0.0
H  H101  1  0.81262428  0.22437405  0.15960309  1  0.20872  0.000748  0.115703  0.163729  0.000217  1.02134  0.0
H  H102  1  0.68737958  0.72437887  0.84040020  1  0.208272  0.000748  0.115715  0.163749  0.000217  1.02132  0.0
H  H103  1  0.31262570  0.77561770  0.34040533  1  0.20849  0.000747  0.115657  0.163635  0.000217  1.021467  0.0
H  H104  1  0.70922228  0.10527800  0.66245139  1  0.110562  0.001741  0.110372  0.138695  0.000966  1.040292  0.0
H  H105  1  0.29077551  0.39473241  0.16244860  1  0.110254  0.00174  0.110368  0.138619  0.000967  1.040168  0.0
H  H106  1  0.20922393  0.89472225  0.83754550  1  0.11057  0.001741  0.110333  0.138574  0.000967  1.040249  0.0
H  H107  1  0.79077895  0.60528330  0.33754649  1  0.11052  0.001741  0.11036  0.138676  0.000966  1.040301  0.0
H  H108  1  0.45421109  0.94460192  0.61427541  1  0.17683  0.000465  0.115178  0.155132  3.9e-05  1.024992  0.0
H  H109  1  0.54579475  0.55539848  0.11427018  1  0.176805  0.000465  0.115187  0.155115  3.9e-05  1.024787  0.0
H  H110  1  0.95420543  0.05539758  0.88572447  1  0.176783  0.000465  0.115193  0.155115  3.9e-05  1.024897  0.0
H  H111  1  0.04578759  0.44460245  0.38572341  1  0.176922  0.000465  0.115203  0.155132  3.9e-05  1.024917  0.0
H  H112  1  0.57799820  0.83267468  0.46051649  1  0.087128  -2.7e-05  0.102377  0.163169  -9.2e-05  1.019634  0.0
H  H113  1  0.42199990  0.66732591  0.96050960  1  0.087047  -2.6e-05  0.102369  0.163136  -9.2e-05  1.019622  0.0
H  H114  1  0.07800024  0.16731899  0.03948400  1  0.086984  -2.7e-05  0.102405  0.163196  -9.2e-05  1.019567  0.0
H  H115  1  0.92200173  0.33267488  0.53948386  1  0.087112  -2.7e-05  0.102368  0.163163  -9.2e-05  1.019654  0.0
H  H116  1  0.59628313  0.72923027  0.47899762  1  0.113239  0.001531  0.103362  0.165555  0.000592  1.028659  0.0
H  H117  1  0.40371496  0.77077020  0.97899077  1  0.11314  0.001533  0.103322  0.165489  0.000592  1.028673  0.001
H  H118  1  0.09628966  0.27076454  0.02100733  1  0.113222  0.001532  0.103349  0.165561  0.000592  1.028656  0.001
H  H119  1  0.90371531  0.22923183  0.52100516  1  0.113201  0.001532  0.10334  0.165549  0.000592  1.028646  0.0
H  H120  1  0.58507075  0.79913029  0.54569891  1  0.084409  2.9e-05  0.10564  0.175974  -2.7e-05  0.982236  0.0
H  H121  1  0.41492367  0.70086815  0.04569450  1  0.084406  2.9e-05  0.105652  0.176007  -2.7e-05  0.982215  0.0
H  H122  1  0.08507216  0.20086734  0.95430389  1  0.08438  2.9e-05  0.105642  0.176011  -2.7e-05  0.982269  0.0
H  H123  1  0.91492688  0.29912986  0.45430258  1  0.084397  2.9e-05  0.105643  0.175976  -2.7e-05  0.982242  0.0
H  H124  1  0.48944125  0.63160705  0.52249954  1  0.088003  0.000351  0.102059  0.160808  3.1e-05  1.028322  0.0
H  H125  1  0.51055798  0.86839214  0.02249738  1  0.087988  0.000351  0.102048  0.16083  3.1e-05  1.028346  0.0
H  H126  1  0.98944364  0.36839174  0.97750331  1  0.087961  0.000351  0.102053  0.160854  3.1e-05  1.028344  0.0
H  H127  1  0.01055840  0.13160412  0.47750212  1  0.087956  0.000351  0.102076  0.160859  3.1e-05  1.028325  0.0
H  H128  1  0.40019176  0.66826474  0.56332754  1  0.096327  -6.1e-05  0.103887  0.167535  -0.000132  1.000814  0.0
H  H129  1  0.59980447  0.83173180  0.06332851  1  0.096449  -6.1e-05  0.103902  0.167597  -0.000132  1.00074  0.0
H  H130  1  0.90019546  0.33173492  0.93667776  1  0.096454  -6.1e-05  0.1039  0.167582  -0.000132  1.000805  0.0
H  H131  1  0.09980477  0.16826299  0.43667149  1  0.09642  -6.1e-05  0.103916  0.167597  -0.000132  1.000699  0.0
H  H132  1  0.49804519  0.69560294  0.59350747  1  0.107598  0.000121  0.10366  0.169443  8e-06  1.001138  0.0
H  H133  1  0.50194864  0.80439460  0.09350263  1  0.107594  0.000121  0.103674  0.169529  8e-06  1.001089  0.0
H  H134  1  0.99804777  0.30439702  0.90649735  1  0.107817  0.000121  0.103708  0.16959  8e-06  1.001059  0.0
H  H135  1  0.00195006  0.19559990  0.40649539  1  0.107766  0.000121  0.103679  0.169561  8e-06  1.001055  0.0
H  H136  1  0.57503305  0.82686474  0.33780961  1  0.099914  -4.8e-05  0.10293  0.167507  -0.000112  0.998223  0.0
H  H137  1  0.42496142  0.67312887  0.83781257  1  0.099691  -4.8e-05  0.102976  0.167612  -0.000112  0.997996  0.0
H  H138  1  0.07502909  0.17313252  0.16218447  1  0.099761  -4.8e-05  0.102917  0.167465  -0.000112  0.99826  0.0
H  H139  1  0.92496750  0.32686654  0.66218534  1  0.099778  -4.8e-05  0.102991  0.167604  -0.000112  0.998081  0.0
H  H140  1  0.60022462  0.73295112  0.29836642  1  0.086546  0.000781  0.10412  0.165294  6.1e-05  1.014059  0.0
H  H141  1  0.39977524  0.76704333  0.79837440  1  0.086174  0.000781  0.104133  0.165354  6.1e-05  1.014024  0.0
H  H142  1  0.10021978  0.26704307  0.20162914  1  0.086247  0.000781  0.104115  0.165326  6.1e-05  1.013994  0.0
H  H143  1  0.89977922  0.23295275  0.70162745  1  0.086155  0.000781  0.104114  0.165302  6.1e-05  1.014061  0.0
H  H144  1  0.51050533  0.74122949  0.34764731  1  0.105405  -2.5e-05  0.105833  0.169028  -0.000106  0.994203  0.0
H  H145  1  0.48949455  0.75875987  0.84765435  1  0.10548  -2.5e-05  0.105832  0.169012  -0.000106  0.994316  0.0
H  H146  1  0.01049930  0.25876617  0.15235022  1  0.105384  -2.5e-05  0.105834  0.16905  -0.000106  0.994145  0.0
H  H147  1  0.98949729  0.24123414  0.65234948  1  0.105357  -2.5e-05  0.105876  0.169061  -0.000106  0.994201  0.0
H  H148  1  0.42364126  0.71478626  0.17573163  1  0.132091  -3.3e-05  0.101794  0.16881  -9.3e-05  1.033053  0.0
H  H149  1  0.57635198  0.78521375  0.67574004  1  0.132344  -3.3e-05  0.101706  0.168715  -9.3e-05  1.03326  0.0
H  H150  1  0.92364629  0.28520754  0.32427039  1  0.132108  -3.3e-05  0.101743  0.168767  -9.3e-05  1.033197  0.0
H  H151  1  0.07635693  0.21478989  0.82426424  1  0.132202  -3.3e-05  0.101755  0.168754  -9.3e-05  1.033084  0.0
H  H152  1  0.43974265  0.67331223  0.25726843  1  0.083785  2.7e-05  0.104965  0.169765  -3.1e-05  0.97781  0.0
H  H153  1  0.56025181  0.82668249  0.75727468  1  0.083761  2.7e-05  0.10497  0.169826  -3.1e-05  0.977632  0.0
H  H154  1  0.93974453  0.32668392  0.24273408  1  0.083934  2.7e-05  0.104894  0.169637  -3.1e-05  0.977617  0.0
H  H155  1  0.06025687  0.17331522  0.74273009  1  0.083786  2.7e-05  0.104937  0.169733  -3.1e-05  0.977718  0.0
H  H156  1  0.52099549  0.67549908  0.19780098  1  0.141092  0.000784  0.105392  0.178104  0.000171  1.036732  0.0
H  H157  1  0.47899535  0.82449720  0.69781168  1  0.140681  0.000785  0.105393  0.178087  0.000171  1.036777  0.0
H  H158  1  0.02100310  0.32448998  0.30219951  1  0.140732  0.000784  0.105381  0.17809  0.000171  1.036735  0.0
H  H159  1  0.97900192  0.17550401  0.80219561  1  0.140787  0.000784  0.105377  0.178101  0.000171  1.036733  0.0
C  C160  1  0.15688280  0.95264754  0.53140482  1  0.997965  0.007081  0.157481  0.194614  0.004523  3.943952  0.006
C  C161  1  0.84311702  0.54736055  0.03140459  1  0.997617  0.007079  0.157458  0.194546  0.004522  3.943826  0.006
C  C162  1  0.65688379  0.04734928  0.96859355  1  0.997538  0.007077  0.157488  0.194633  0.004521  3.943939  0.006
C  C163  1  0.34311525  0.45264902  0.46859841  1  0.998086  0.007077  0.157515  0.194661  0.004521  3.943833  0.006
C  C164  1  0.04914666  0.97179055  0.22327430  1  1.007423  0.000377  0.158838  0.195154  -1.4e-05  3.928334  0.001
C  C165  1  0.95084599  0.52820557  0.72327202  1  1.007931  0.000377  0.158791  0.195321  -1.2e-05  3.928212  0.001
C  C166  1  0.54914827  0.02820918  0.27672372  1  1.007287  0.000376  0.158816  0.195152  -1.4e-05  3.928349  0.001
C  C167  1  0.45084533  0.47179274  0.77673082  1  1.007671  0.000375  0.15887  0.195344  -1.5e-05  3.928322  0.001
C  C168  1  0.27491562  0.08387780  0.26836209  1  0.998119  0.009203  0.164725  0.209647  0.005637  3.915226  0.007
C  C169  1  0.72508820  0.41611402  0.76836847  1  1.002793  0.009179  0.164579  0.209642  0.005638  3.915379  0.007
C  C170  1  0.77491027  0.91611288  0.23163942  1  1.002937  0.00918  0.164519  0.209605  0.005639  3.91549  0.007
C  C171  1  0.22508779  0.58388439  0.73162448  1  0.997954  0.009212  0.164728  0.209895  0.005641  3.914974  0.007
C  C172  1  0.30692764  0.21692690  0.96833004  1  1.003376  0.007046  0.164298  0.202892  0.004204  3.931329  0.006
C  C173  1  0.69308702  0.28308037  0.46833124  1  1.002771  0.007052  0.164277  0.20267  0.004205  3.931374  0.006
C  C174  1  0.80691126  0.78307603  0.53167476  1  1.002424  0.007053  0.164321  0.202859  0.004205  3.931322  0.006
C  C175  1  0.19307895  0.71691952  0.03166088  1  1.002263  0.007045  0.164347  0.202919  0.004203  3.931318  0.006
C  C176  1  0.26600337  0.10038217  0.79053218  1  1.013109  0.005874  0.161487  0.192106  0.003834  3.945457  0.005
C  C177  1  0.73400466  0.39961607  0.29053288  1  1.012967  0.005877  0.161436  0.19193  0.003835  3.945157  0.005
C  C178  1  0.76599927  0.89961909  0.70947064  1  1.013212  0.005874  0.161341  0.191841  0.003835  3.945339  0.005
C  C179  1  0.23399998  0.60038369  0.20947159  1  1.013128  0.005875  0.161455  0.192124  0.003835  3.945209  0.005
C  C180  1  0.26199740  0.19028637  0.47794827  1  0.995242  -0.00243  0.158336  0.188234  -0.002897  3.951784  -0.001
C  C181  1  0.73800224  0.30971129  0.97794820  1  0.994669  -0.002426  0.158332  0.1882  -0.002898  3.952004  -0.001
C  C182  1  0.76200196  0.80971271  0.02205373  1  0.994751  -0.002427  0.158393  0.18827  -0.002895  3.95177  -0.001
C  C183  1  0.23799666  0.69029126  0.52205609  1  0.994695  -0.002431  0.158313  0.188219  -0.002901  3.951796  -0.001
C  C184  1  0.52571851  0.04681380  0.79112865  1  0.993202  0.001834  0.161189  0.19461  0.001096  3.942158  0.002
C  C185  1  0.47428591  0.45318802  0.29112316  1  0.993515  0.001832  0.161078  0.194602  0.001095  3.94215  0.002
C  C186  1  0.02571155  0.95318282  0.70887217  1  0.993331  0.001831  0.1612  0.194722  0.001093  3.942197  0.002
C  C187  1  0.97428350  0.54680981  0.20886998  1  0.993452  0.001834  0.161236  0.1946  0.001096  3.94213  0.002
C  C188  1  0.63227337  0.01540296  0.48374811  1  1.012097  0.006575  0.166673  0.203338  0.004008  3.918919  0.005
C  C189  1  0.36772867  0.48460123  0.98374379  1  1.012314  0.006579  0.166715  0.203336  0.004009  3.919234  0.005
C  C190  1  0.13226989  0.98459592  0.01625091  1  1.01242  0.006578  0.166774  0.203397  0.00401  3.91892  0.005
C  C191  1  0.86772453  0.51540331  0.51625016  1  1.012039  0.006578  0.166713  0.203407  0.004008  3.918965  0.005
C  C192  1  0.08465694  0.97701970  0.44177263  1  0.325485  0.001646  0.086565  0.134001  0.000909  4.035596  0.001
C  C193  1  0.91534175  0.52297682  0.94177136  1  0.325435  0.001646  0.086666  0.133991  0.00091  4.035624  0.001
C  C194  1  0.58465973  0.02297215  0.05822737  1  0.321807  0.001647  0.08658  0.133806  0.000909  4.035903  0.001
C  C195  1  0.41533984  0.47702757  0.55823000  1  0.32207  0.001647  0.086644  0.13385  0.000909  4.035708  0.001
C  C196  1  0.15661545  0.93482871  0.42482166  1  0.411082  0.000955  0.084962  0.150896  -0.000292  4.03601  0.0
C  C197  1  0.84338024  0.56517211  0.92481773  1  0.411047  0.000955  0.084906  0.15089  -0.000292  4.035985  0.0
C  C198  1  0.65662112  0.06516591  0.07517786  1  0.410544  0.000955  0.084946  0.150917  -0.000292  4.036094  0.0
C  C199  1  0.34337846  0.43484027  0.57518263  1  0.410519  0.000955  0.084828  0.150706  -0.000292  4.036197  0.0
C  C200  1  0.17524332  0.91700972  0.35923937  1  0.041142  0.004094  -0.093039  -0.241216  0.001891  3.935604  0.003
C  C201  1  0.82474994  0.58298673  0.85923487  1  0.041408  0.004093  -0.093083  -0.241305  0.001891  3.935745  0.003
C  C202  1  0.67524715  0.08298604  0.14075966  1  0.041663  0.004092  -0.093029  -0.241151  0.00189  3.935649  0.003
C  C203  1  0.32474523  0.41702391  0.64076450  1  0.041512  0.004093  -0.092937  -0.240988  0.001891  3.935459  0.003
C  C204  1  0.11820791  0.94272712  0.31359564  1  0.344596  0.0035  0.089147  0.137431  0.001912  4.034724  0.003
C  C205  1  0.88178295  0.55727082  0.81359421  1  0.344974  0.003499  0.089225  0.137384  0.001911  4.034749  0.002
C  C206  1  0.61821422  0.05726881  0.18640289  1  0.344653  0.0035  0.089219  0.137432  0.001912  4.034495  0.003
C  C207  1  0.38178117  0.44273666  0.68640714  1  0.344608  0.003499  0.089267  0.137358  0.001911  4.034754  0.002
C  C208  1  0.04534453  0.98283105  0.33061375  1  0.329484  0.00078  0.084967  0.153657  -6.5e-05  4.050102  0.0
C  C209  1  0.95465114  0.51716738  0.83061646  1  0.329251  0.00078  0.085061  0.153741  -6.4e-05  4.049961  0.0
C  C210  1  0.54534556  0.01716391  0.16938477  1  0.329858  0.000778  0.084982  0.153639  -6.6e-05  4.049853  0.0
C  C211  1  0.45465103  0.48283690  0.66938836  1  0.329588  0.000779  0.084956  0.153636  -6.5e-05  4.050024  0.0
C  C212  1  0.02712377  0.00131663  0.39608368  1  0.09692  0.00529  -0.098882  -0.252041  0.002588  3.963162  0.003
C  C213  1  0.97287105  0.49868393  0.89608134  1  0.097019  0.005288  -0.098943  -0.251971  0.002587  3.963584  0.003
C  C214  1  0.52712716  0.99867541  0.10391582  1  0.099935  0.005288  -0.098895  -0.25188  0.002588  3.96331  0.003
C  C215  1  0.47287448  0.50132088  0.60392249  1  0.10079  0.005286  -0.098881  -0.251821  0.002587  3.963431  0.003
C  C216  1  0.26316125  0.16242515  0.18122422  1  0.386361  0.002289  0.09225  0.146072  0.001189  4.024036  0.002
C  C217  1  0.73684375  0.33757021  0.68122501  1  0.386324  0.002289  0.092328  0.146034  0.001189  4.023504  0.002
C  C218  1  0.76315556  0.83757333  0.31878519  1  0.386137  0.002289  0.092371  0.146188  0.001189  4.023354  0.002
C  C219  1  0.23684011  0.66243055  0.81877237  1  0.386898  0.002289  0.09224  0.145974  0.001189  4.023283  0.002
C  C220  1  0.30513667  0.09063432  0.16403389  1  0.34511  0.002223  0.087659  0.151943  0.000526  4.038443  0.001
C  C221  1  0.69486172  0.40936652  0.66403437  1  0.344753  0.002224  0.087518  0.151641  0.000526  4.037991  0.001
C  C222  1  0.80513797  0.90936881  0.33597157  1  0.344928  0.002225  0.087589  0.151891  0.000527  4.037932  0.001
C  C223  1  0.19485890  0.59062660  0.83595758  1  0.344348  0.002223  0.087442  0.151496  0.000526  4.038134  0.001
C  C224  1  0.33036657  0.07574139  0.09954503  1  0.057857  0.0039  -0.093476  -0.241547  0.001759  3.962264  0.002
C  C225  1  0.66963841  0.42425747  0.59954545  1  0.058003  0.003898  -0.093509  -0.241499  0.001758  3.962265  0.002
C  C226  1  0.83035282  0.92426226  0.40046290  1  0.05749  0.003899  -0.093475  -0.241655  0.001759  3.962259  0.002
C  C227  1  0.16963625  0.57574170  0.90044551  1  0.057897  0.003898  -0.093394  -0.241346  0.001758  3.962433  0.002
C  C228  1  0.31481913  0.13746192  0.05548141  1  0.350257  0.003683  0.088785  0.13829  0.001853  4.04145  0.003
C  C229  1  0.68518705  0.36254021  0.55548505  1  0.349948  0.003685  0.088827  0.138446  0.001854  4.040821  0.003
C  C230  1  0.81480857  0.86253819  0.44452504  1  0.349802  0.003685  0.088921  0.138602  0.001854  4.041076  0.003
C  C231  1  0.18518711  0.63745652  0.94450788  1  0.350271  0.003684  0.088837  0.138385  0.001854  4.041035  0.003
C  C232  1  0.27689698  0.21080714  0.07337519  1  0.333458  0.003387  0.082278  0.144786  0.00198  4.070179  0.003
C  C233  1  0.72311642  0.28919069  0.57337718  1  0.333247  0.003388  0.082325  0.144808  0.00198  4.07033  0.003
C  C234  1  0.77688304  0.78919369  0.42663273  1  0.333405  0.003384  0.082229  0.144522  0.00198  4.070642  0.003
C  C235  1  0.22311024  0.71080294  0.92661971  1  0.332989  0.003388  0.082428  0.145109  0.001979  4.070094  0.003
C  C236  1  0.24891642  0.22479180  0.13722279  1  0.023072  0.006159  -0.098175  -0.255442  0.003347  3.973147  0.004
C  C237  1  0.75108797  0.27520563  0.63721991  1  0.023071  0.006159  -0.098214  -0.255471  0.003348  3.973233  0.004
C  C238  1  0.74891153  0.77521030  0.36278513  1  0.052625  0.006126  -0.098096  -0.255204  0.003347  3.973134  0.004
C  C239  1  0.25108775  0.72479091  0.86277451  1  0.023072  0.006158  -0.0982  -0.255496  0.003347  3.973012  0.004
C  C240  1  0.24226345  0.16593184  0.69719751  1  0.309931  0.002947  0.092279  0.144039  0.00141  4.00319  0.002
C  C241  1  0.75774516  0.33406341  0.19719751  1  0.309413  0.002948  0.092229  0.144056  0.001411  4.003204  0.002
C  C242  1  0.74226318  0.83406890  0.80280383  1  0.309654  0.002948  0.092265  0.144098  0.00141  4.00321  0.002
C  C243  1  0.25774691  0.66593090  0.30280894  1  0.308908  0.002948  0.092033  0.143851  0.00141  4.003255  0.002
C  C244  1  0.28229215  0.09209873  0.68362171  1  0.428275  0.003823  0.081302  0.143712  0.002213  4.058379  0.003
C  C245  1  0.71771285  0.40790020  0.18362138  1  0.427939  0.003823  0.081386  0.143824  0.002212  4.05828  0.003
C  C246  1  0.78229045  0.90790309  0.81638012  1  0.428273  0.003824  0.081339  0.143705  0.002213  4.058354  0.003
C  C247  1  0.21771903  0.59209901  0.31638357  1  0.428388  0.003824  0.081493  0.143901  0.002213  4.058009  0.003
C  C248  1  0.30177684  0.06899788  0.61941722  1  0.013496  0.004719  -0.09815  -0.25429  0.002515  3.967318  0.003
C  C249  1  0.69822936  0.43099787  0.11941926  1  0.013765  0.004719  -0.098133  -0.254264  0.002515  3.967451  0.003
C  C250  1  0.80177868  0.93100089  0.88058511  1  0.013329  0.00472  -0.098121  -0.254214  0.002515  3.967269  0.003
C  C251  1  0.19823562  0.56899901  0.38058471  1  0.013877  0.004717  -0.098116  -0.254254  0.002514  3.967391  0.003
C  C252  1  0.28061575  0.12431093  0.57105932  1  0.365748  0.003367  0.091894  0.144299  0.001726  4.026897  0.002
C  C253  1  0.71938803  0.37568751  0.07106357  1  0.365824  0.003366  0.091904  0.144287  0.001726  4.026643  0.002
C  C254  1  0.78061597  0.87568850  0.92894054  1  0.365726  0.003367  0.091827  0.144128  0.001726  4.0269  0.002
C  C255  1  0.21939173  0.62430692  0.42894237  1  0.365679  0.003369  0.091879  0.144195  0.001727  4.026813  0.002
C  C256  1  0.24141380  0.19883018  0.58432263  1  0.358285  0.000904  0.087511  0.156032  0.00011  4.00817  0.0
C  C257  1  0.75859359  0.30116698  0.08432425  1  0.358311  0.000905  0.087485  0.15582  0.000111  4.008364  0.0
C  C258  1  0.74141185  0.80117056  0.91567821  1  0.358274  0.000904  0.08747  0.156  0.000111  4.008194  0.0
C  C259  1  0.25860426  0.69882852  0.41568268  1  0.357836  0.000905  0.08752  0.155999  0.00011  4.008505  0.0
C  C260  1  0.21983640  0.22073791  0.64867127  1  0.063183  0.00488  -0.089547  -0.235864  0.002392  3.905165  0.003
C  C261  1  0.78017521  0.27926541  0.14867052  1  0.063001  0.004878  -0.089512  -0.235742  0.002391  3.905481  0.003
C  C262  1  0.71983149  0.77926588  0.85132907  1  0.06344  0.004881  -0.089522  -0.235828  0.002392  3.905244  0.003
C  C263  1  0.28018160  0.72072764  0.35133642  1  0.063227  0.004881  -0.089434  -0.235616  0.002392  3.905562  0.003
C  C264  1  0.52519342  0.01105457  0.68708538  1  0.350944  0.00393  0.085843  0.146973  0.002296  4.03406  0.003
C  C265  1  0.47481158  0.48895448  0.18707578  1  0.345211  0.003935  0.085687  0.146692  0.002296  4.033846  0.003
C  C266  1  0.02518937  0.98894623  0.81291840  1  0.345198  0.003936  0.085733  0.146877  0.002296  4.034062  0.003
C  C267  1  0.97480750  0.51105589  0.31291686  1  0.345307  0.003936  0.085778  0.14689  0.002296  4.034083  0.003
C  C268  1  0.59717944  0.05508998  0.69933776  1  0.306477  0.003279  0.093068  0.150576  0.001441  4.028742  0.002
C  C269  1  0.40281775  0.44490884  0.19932785  1  0.306139  0.00328  0.093023  0.150596  0.001442  4.028683  0.002
C  C270  1  0.09717492  0.94490762  0.80066208  1  0.3061  0.003279  0.093022  0.150536  0.001441  4.028697  0.002
C  C271  1  0.90282374  0.55509040  0.30066034  1  0.306532  0.003278  0.093058  0.15054  0.00144  4.028844  0.002
C  C272  1  0.65449418  0.07243388  0.65147113  1  0.020969  0.006996  -0.09703  -0.256293  0.00387  3.977697  0.004
C  C273  1  0.34551322  0.42757063  0.15146475  1  0.022042  0.006995  -0.097022  -0.256283  0.003869  3.978249  0.004
C  C274  1  0.15448732  0.92756474  0.84852822  1  0.021324  0.006997  -0.096968  -0.256182  0.003871  3.97781  0.004
C  C275  1  0.84551016  0.57243775  0.34852541  1  0.020786  0.006999  -0.096967  -0.256213  0.003871  3.977488  0.004
C  C276  1  0.63519763  0.04399749  0.58885868  1  0.455246  0.002307  0.08283  0.142462  0.00129  4.080497  0.002
C  C277  1  0.36480375  0.45600861  0.08885563  1  0.454691  0.002307  0.082891  0.142671  0.001289  4.080582  0.002
C  C278  1  0.13519309  0.95600059  0.91113870  1  0.455056  0.002307  0.082887  0.142535  0.001289  4.080365  0.002
C  C279  1  0.86480920  0.54400628  0.41114144  1  0.455381  0.002306  0.082886  0.142432  0.001289  4.080332  0.002
C  C280  1  0.56360482  0.99921607  0.57629066  1  0.351925  0.003981  0.095859  0.15241  0.002007  4.00519  0.003
C  C281  1  0.43640343  0.50079234  0.07629256  1  0.352109  0.003981  0.095816  0.152235  0.002008  4.005386  0.003
C  C282  1  0.06359783  0.00078880  0.92370473  1  0.352154  0.00398  0.095835  0.152406  0.002007  4.00517  0.003
C  C283  1  0.93639700  0.49921935  0.42370946  1  0.351937  0.003981  0.095802  0.152402  0.002007  4.00519  0.003
C  C284  1  0.50709881  0.98057753  0.62454431  1  0.018899  0.00408  -0.091539  -0.239487  0.002027  3.928354  0.002
C  C285  1  0.49290163  0.51941563  0.12453775  1  0.025025  0.004072  -0.091458  -0.239246  0.002025  3.92882  0.002
C  C286  1  0.00710017  0.01941437  0.87545897  1  0.024652  0.004071  -0.091552  -0.239449  0.002025  3.928808  0.002
C  C287  1  0.99289825  0.48058095  0.37545638  1  0.024521  0.004074  -0.091461  -0.239345  0.002027  3.928263  0.002
C  C288  1  0.56635158  0.78416513  0.49528114  1  -0.215303  0.003023  -0.236198  -0.498453  0.001761  3.795105  0.002
C  C289  1  0.43365072  0.71583524  0.99527898  1  -0.215133  0.003023  -0.236164  -0.498405  0.001762  3.795159  0.002
C  C290  1  0.06635287  0.21583156  0.00471935  1  -0.21524  0.003023  -0.236212  -0.498525  0.001762  3.795011  0.002
C  C291  1  0.93364970  0.28416492  0.50471991  1  -0.215218  0.003023  -0.236183  -0.498467  0.001762  3.795104  0.002
C  C292  1  0.46241838  0.68125704  0.54965134  1  -0.214839  0.003343  -0.234313  -0.494389  0.001644  3.810975  0.002
C  C293  1  0.53757785  0.81874198  0.04964792  1  -0.214835  0.003344  -0.234337  -0.494549  0.001644  3.811093  0.002
C  C294  1  0.96242212  0.31874184  0.95035347  1  -0.215033  0.003343  -0.234368  -0.494645  0.001644  3.811037  0.002
C  C295  1  0.03757752  0.18125659  0.45035257  1  -0.215055  0.003343  -0.234343  -0.494641  0.001644  3.811114  0.002
C  C296  1  0.55179082  0.77272897  0.31436366  1  -0.219455  0.005366  -0.232429  -0.491683  0.002721  3.799888  0.004
C  C297  1  0.44821205  0.72726597  0.81436688  1  -0.219035  0.005364  -0.232515  -0.491983  0.00272  3.799998  0.004
C  C298  1  0.05178429  0.22726657  0.18563288  1  -0.218945  0.005365  -0.232454  -0.491742  0.002721  3.799872  0.004
C  C299  1  0.94821230  0.27273175  0.68563201  1  -0.218964  0.005365  -0.232555  -0.491891  0.002721  3.799856  0.004
C  C300  1  0.46682848  0.70583887  0.21583999  1  -0.284053  0.003395  -0.240992  -0.510454  0.00175  3.792242  0.002
C  C301  1  0.53316417  0.79415671  0.71584589  1  -0.283786  0.003395  -0.240971  -0.510463  0.00175  3.792385  0.002
C  C302  1  0.96683348  0.29415302  0.28416055  1  -0.283804  0.003395  -0.240784  -0.510272  0.00175  3.792109  0.002
C  C303  1  0.03316914  0.20584288  0.78415690  1  -0.283822  0.003395  -0.240918  -0.510389  0.00175  3.792154  0.002
S  S304  1  0.40036075  0.94813844  0.40418990  1  3.819123  0.006199  0.561367  1.414219  0.00573  6.391012  0.005
S  S305  1  0.59964574  0.55186251  0.90419094  1  3.818568  0.0062  0.561445  1.414247  0.005731  6.391024  0.005
S  S306  1  0.90035505  0.05185723  0.09581063  1  3.818601  0.006201  0.561375  1.414275  0.00573  6.391036  0.005
S  S307  1  0.09963852  0.44814165  0.59580742  1  3.818093  0.006202  0.56125  1.414033  0.005731  6.391449  0.005
S  S308  1  0.30003976  0.85393251  0.14555973  1  3.786025  0.005458  0.558692  1.393087  0.005531  6.407038  0.003
S  S309  1  0.69995468  0.64606411  0.64556579  1  3.78557  0.005462  0.558674  1.393096  0.005531  6.406793  0.003
S  S310  1  0.80004102  0.14607004  0.35444129  1  3.786191  0.005459  0.5588  1.393324  0.005531  6.407196  0.003
S  S311  1  0.19995440  0.35393497  0.85444047  1  3.78579  0.00546  0.558934  1.393423  0.00553  6.406678  0.003
S  S312  1  0.29772660  0.83287868  0.66622229  1  3.81108  0.007536  0.573525  1.414892  0.00734  6.389777  0.006
S  S313  1  0.70227986  0.66713214  0.16622152  1  3.810673  0.007536  0.573664  1.415031  0.007339  6.389652  0.006
S  S314  1  0.79772238  0.16712846  0.83378054  1  3.810594  0.007538  0.573709  1.415198  0.00734  6.389079  0.006
S  S315  1  0.20227784  0.33287310  0.33377554  1  3.810817  0.007532  0.573465  1.41476  0.007338  6.389442  0.006
S  S316  1  0.40326466  0.94189834  0.90536300  1  3.753939  0.007233  0.571544  1.404408  0.007532  6.395477  0.005
S  S317  1  0.59673402  0.55810558  0.40536467  1  3.753886  0.007236  0.571516  1.404409  0.007533  6.395281  0.005
S  S318  1  0.90326916  0.05810788  0.59463589  1  3.753885  0.007239  0.571713  1.404743  0.007534  6.394955  0.005
S  S319  1  0.09673463  0.44189878  0.09463238  1  3.754043  0.007235  0.571539  1.404404  0.007533  6.395409  0.005
S  S320  1  0.46067881  0.76337109  0.49314514  1  1.16017  0.002509  0.298253  0.685952  -0.00027  3.986094  -0.001
S  S321  1  0.53931929  0.73662750  0.99314339  1  1.160103  0.002511  0.298253  0.685982  -0.000268  3.986299  -0.001
S  S322  1  0.96068214  0.23662678  0.00685787  1  1.160033  0.00251  0.298277  0.686037  -0.00027  3.985937  -0.001
S  S323  1  0.03932103  0.26336849  0.50685496  1  1.160074  0.00251  0.298264  0.686079  -0.000269  3.986137  -0.001
S  S324  1  0.49684932  0.80313354  0.24269255  1  1.165058  0.003054  0.29899  0.68324  0.000217  3.964463  -0.002
S  S325  1  0.50314693  0.69686007  0.74269738  1  1.165097  0.003054  0.299019  0.683439  0.000217  3.964459  -0.002
S  S326  1  0.99684741  0.19685885  0.25730652  1  1.16497  0.003054  0.298997  0.683335  0.000216  3.964136  -0.002
S  S327  1  0.00314860  0.30313901  0.75730442  1  1.165097  0.003053  0.299022  0.683355  0.000215  3.964123  -0.002
N  N328  1  0.19971015  0.91969948  0.48287927  1  -1.196143  0.055317  -0.355035  -0.37863  0.029643  3.514266  0.039
N  N329  1  0.80028854  0.58030335  0.98287724  1  -1.196237  0.055316  -0.355057  -0.378627  0.029644  3.514211  0.039
N  N330  1  0.69971036  0.08029620  0.01711828  1  -1.19614  0.055311  -0.35509  -0.378754  0.029642  3.5143  0.038
N  N331  1  0.30028620  0.41970617  0.51712361  1  -1.196052  0.05531  -0.355056  -0.378716  0.02964  3.514266  0.038
N  N332  1  0.08826017  0.98706545  0.50981630  1  -1.276918  0.008239  -0.381918  -0.267709  0.003884  3.612614  0.006
N  N333  1  0.91173605  0.51293680  0.00981523  1  -1.277065  0.008238  -0.381992  -0.267755  0.003883  3.612699  0.006
N  N334  1  0.58826306  0.01292919  0.99018255  1  -1.276968  0.008237  -0.381901  -0.267533  0.003883  3.612469  0.006
N  N335  1  0.41173598  0.48706839  0.49018629  1  -1.277344  0.008237  -0.381935  -0.26757  0.003883  3.612357  0.006
N  N336  1  0.00328027  0.99942032  0.27247024  1  -1.198737  0.067084  -0.359194  -0.398445  0.035041  3.573887  0.054
N  N337  1  0.99671239  0.50057549  0.77246710  1  -1.198619  0.067085  -0.35914  -0.398452  0.035042  3.573547  0.054
N  N338  1  0.50328556  0.00057715  0.22752975  1  -1.198444  0.067081  -0.35916  -0.398341  0.035036  3.573832  0.054
N  N339  1  0.49671344  0.49942268  0.72753673  1  -1.198685  0.067082  -0.359252  -0.398581  0.035041  3.573911  0.054
N  N340  1  0.11769779  0.93764613  0.24529329  1  -1.298354  0.005954  -0.375622  -0.260956  0.002819  3.596223  0.004
N  N341  1  0.88229606  0.56235105  0.74529036  1  -1.298597  0.005957  -0.37562  -0.260902  0.00282  3.596088  0.004
N  N342  1  0.61769930  0.06235459  0.25470622  1  -1.298393  0.005954  -0.37566  -0.260923  0.002819  3.596098  0.004
N  N343  1  0.38229129  0.43765344  0.75471000  1  -1.298401  0.005956  -0.375722  -0.26094  0.00282  3.596249  0.004
N  N344  1  0.31310809  0.04393883  0.22072316  1  -1.207193  0.055704  -0.36061  -0.381575  0.029843  3.529764  0.037
N  N345  1  0.68689211  0.45605568  0.72073331  1  -1.21135  0.055733  -0.360499  -0.381418  0.029846  3.529409  0.037
N  N346  1  0.81310323  0.95606009  0.27927293  1  -1.21162  0.055721  -0.360503  -0.381503  0.029843  3.529295  0.037
N  N347  1  0.18689303  0.54393807  0.77925963  1  -1.206869  0.055705  -0.360606  -0.381485  0.029845  3.529258  0.037
N  N348  1  0.24402991  0.15386413  0.24733033  1  -1.297496  0.009518  -0.378051  -0.26418  0.004442  3.608465  0.007
N  N349  1  0.75597390  0.34613200  0.74733554  1  -1.297348  0.009521  -0.377992  -0.264058  0.004443  3.608547  0.007
N  N350  1  0.74403079  0.84612724  0.25267167  1  -1.297593  0.009522  -0.37808  -0.264335  0.004444  3.608463  0.007
N  N351  1  0.25597208  0.65386810  0.75265642  1  -1.297379  0.009526  -0.377977  -0.264067  0.004446  3.608442  0.007
N  N352  1  0.27353580  0.25921049  0.01722746  1  -1.230546  0.069742  -0.373455  -0.396345  0.035895  3.610607  0.042
N  N353  1  0.72648060  0.24079308  0.51722571  1  -1.230154  0.069738  -0.373483  -0.396377  0.035897  3.610769  0.042
N  N354  1  0.77351781  0.74079513  0.48278047  1  -1.230225  0.069735  -0.373444  -0.396261  0.035894  3.61099  0.042
N  N355  1  0.22647187  0.75920413  0.98276624  1  -1.230762  0.069734  -0.373517  -0.396664  0.035894  3.610908  0.042
N  N356  1  0.33196898  0.14445104  0.98869636  1  -1.311366  0.009193  -0.37442  -0.259342  0.004218  3.589212  0.006
N  N357  1  0.66804268  0.35555490  0.48869428  1  -1.310694  0.009194  -0.374481  -0.259343  0.004219  3.588839  0.006
N  N358  1  0.83195778  0.85555301  0.51131387  1  -1.310362  0.009192  -0.374634  -0.259507  0.004218  3.58912  0.006
N  N359  1  0.16803784  0.64444625  0.01129932  1  -1.309965  0.009192  -0.374591  -0.259563  0.004218  3.588595  0.006
N  N360  1  0.29627137  0.05296980  0.74369842  1  -1.227331  0.072505  -0.375003  -0.401466  0.03719  3.617979  0.044
N  N361  1  0.70373544  0.44703054  0.24369545  1  -1.227043  0.072499  -0.374972  -0.401364  0.037188  3.617652  0.044
N  N362  1  0.79626954  0.94703496  0.75630688  1  -1.227296  0.072497  -0.374946  -0.40138  0.037191  3.61769  0.044
N  N363  1  0.20373393  0.55296872  0.25630902  1  -1.227128  0.072499  -0.375019  -0.401556  0.03719  3.617556  0.044
N  N364  1  0.23339685  0.16764249  0.76553097  1  -1.330818  0.00876  -0.371519  -0.252149  0.00396  3.598076  0.006
N  N365  1  0.76661297  0.33235531  0.26553097  1  -1.330698  0.008758  -0.371564  -0.252195  0.003959  3.598017  0.006
N  N366  1  0.73339117  0.83235827  0.73447086  1  -1.330581  0.008756  -0.371575  -0.252147  0.003958  3.59817  0.006
N  N367  1  0.26661290  0.66764076  0.23447202  1  -1.330899  0.008758  -0.371508  -0.252156  0.003959  3.597843  0.006
N  N368  1  0.23132022  0.23873541  0.52392259  1  -1.207869  0.065864  -0.355244  -0.397187  0.03395  3.555547  0.055
N  N369  1  0.76868235  0.26126393  0.02392142  1  -1.207287  0.065862  -0.355293  -0.397072  0.033953  3.555526  0.055
N  N370  1  0.73131779  0.76126536  0.97607677  1  -1.207396  0.065872  -0.355258  -0.397113  0.033955  3.55533  0.055
N  N371  1  0.26867730  0.73873811  0.47608058  1  -1.207019  0.065863  -0.355251  -0.39712  0.033954  3.555794  0.055
N  N372  1  0.29142427  0.12167229  0.50333010  1  -1.340133  0.003434  -0.373257  -0.259755  0.001584  3.583231  0.003
N  N373  1  0.70857470  0.37832240  0.00332842  1  -1.339918  0.003433  -0.373293  -0.259784  0.001584  3.582994  0.003
N  N374  1  0.79142749  0.87832471  0.99667272  1  -1.340034  0.003433  -0.373228  -0.259653  0.001584  3.583248  0.003
N  N375  1  0.20857662  0.62167326  0.49667605  1  -1.340049  0.003433  -0.373286  -0.259732  0.001584  3.583114  0.003
N  N376  1  0.48203387  0.00724877  0.74639338  1  -1.20132  0.072494  -0.366173  -0.389145  0.037191  3.576587  0.049
N  N377  1  0.51797054  0.49275274  0.24638624  1  -1.201378  0.072492  -0.365998  -0.388817  0.037189  3.576495  0.049
N  N378  1  0.98202829  0.99274885  0.75360798  1  -1.201013  0.072489  -0.366142  -0.389104  0.037189  3.576655  0.049
N  N379  1  0.01796737  0.50724589  0.25360833  1  -1.201245  0.072491  -0.366195  -0.389051  0.037189  3.576511  0.049
N  N380  1  0.59469614  0.07566303  0.76546899  1  -1.295628  0.007638  -0.372847  -0.254945  0.003474  3.590044  0.006
N  N381  1  0.40530346  0.42434194  0.26546509  1  -1.296057  0.007639  -0.372777  -0.255108  0.003475  3.590093  0.006
N  N382  1  0.09469528  0.92433517  0.73453036  1  -1.295969  0.007636  -0.372805  -0.254939  0.003473  3.590137  0.006
N  N383  1  0.90530398  0.57565969  0.23452853  1  -1.295696  0.007639  -0.37284  -0.25491  0.003475  3.590009  0.006
N  N384  1  0.67634136  0.05300214  0.52940059  1  -1.232184  0.076821  -0.380479  -0.399296  0.039148  3.626017  0.05
N  N385  1  0.32366122  0.44700194  0.02939610  1  -1.232266  0.076835  -0.380552  -0.399447  0.039154  3.626293  0.05
N  N386  1  0.17634046  0.94699760  0.97059679  1  -1.232304  0.076832  -0.380553  -0.399465  0.039154  3.625906  0.05
N  N387  1  0.82366124  0.55300830  0.47059751  1  -1.232016  0.076827  -0.380586  -0.399531  0.039154  3.62624  0.05
N  N388  1  0.56548607  0.98254903  0.50931527  1  -1.286746  0.009792  -0.37242  -0.252189  0.00452  3.616078  0.007
N  N389  1  0.43451376  0.51745383  0.00930920  1  -1.28698  0.009797  -0.372428  -0.252038  0.004522  3.616157  0.007
N  N390  1  0.06548685  0.01745046  0.99068604  1  -1.286913  0.009795  -0.372448  -0.252044  0.004522  3.615987  0.007
N  N391  1  0.93451039  0.48254950  0.49068344  1  -1.286677  0.009794  -0.372447  -0.252097  0.004521  3.616129  0.007
O  O392  1  0.34916806  0.87462010  0.40887927  1  -1.314971  0.065064  -0.349676  -0.665747  0.032463  2.416838  0.053
O  O393  1  0.65083663  0.62538201  0.90887950  1  -1.315126  0.065063  -0.349739  -0.665795  0.032463  2.416849  0.053
O  O394  1  0.84916874  0.12537752  0.09112027  1  -1.315008  0.065059  -0.349686  -0.665742  0.032461  2.41693  0.053
O  O395  1  0.15082783  0.37462200  0.59111837  1  -1.314909  0.065062  -0.349702  -0.665751  0.032463  2.417091  0.053
O  O396  1  0.38011416  0.99054936  0.34114585  1  -1.332066  0.068271  -0.360733  -0.673838  0.035684  2.381941  0.053
O  O397  1  0.61989112  0.50944960  0.84114756  1  -1.33206  0.068278  -0.360735  -0.673781  0.035686  2.381962  0.053
O  O398  1  0.88010500  0.00944637  0.15885469  1  -1.331991  0.068279  -0.360682  -0.673756  0.035688  2.381832  0.053
O  O399  1  0.11988318  0.49055629  0.65884932  1  -1.332029  0.068266  -0.360655  -0.673688  0.03568  2.381969  0.053
O  O400  1  0.38279124  0.00125676  0.46107760  1  -1.36041  0.021315  -0.366286  -0.680689  0.010945  2.198992  0.017
O  O401  1  0.61721140  0.49874637  0.96107916  1  -1.359923  0.021315  -0.366308  -0.680703  0.010946  2.199046  0.017
O  O402  1  0.88278922  0.99873956  0.03892689  1  -1.360159  0.021315  -0.366393  -0.680771  0.010945  2.199195  0.017
O  O403  1  0.11720641  0.50125415  0.53891426  1  -1.359612  0.021317  -0.366324  -0.680735  0.010947  2.199052  0.017
O  O404  1  0.48679648  0.92600229  0.40443530  1  -1.35076  0.008273  -0.359497  -0.662156  0.00361  2.204632  0.007
O  O405  1  0.51320761  0.57399567  0.90443425  1  -1.350545  0.008273  -0.359484  -0.662152  0.003611  2.204751  0.007
O  O406  1  0.98679372  0.07398774  0.09557215  1  -1.350461  0.008274  -0.359481  -0.662261  0.003612  2.204646  0.007
O  O407  1  0.01320226  0.42600636  0.59556261  1  -1.350724  0.008274  -0.359481  -0.662153  0.003611  2.204719  0.007
O  O408  1  0.37690700  0.89993379  0.14646894  1  -1.324884  0.048971  -0.346587  -0.661207  0.024417  2.32433  0.04
O  O409  1  0.62308503  0.60005865  0.64647026  1  -1.324792  0.048974  -0.346574  -0.661195  0.024421  2.324266  0.04
O  O410  1  0.87690660  0.10006136  0.35353307  1  -1.324939  0.048973  -0.346656  -0.661358  0.02442  2.324251  0.04
O  O411  1  0.12308942  0.39994126  0.85352859  1  -1.324828  0.048966  -0.346591  -0.661279  0.024417  2.324522  0.04
O  O412  1  0.24772453  0.88716873  0.09018706  1  -1.291661  0.098753  -0.370719  -0.671301  0.049009  2.367903  0.077
O  O413  1  0.75227350  0.61283003  0.59019377  1  -1.291486  0.098758  -0.370818  -0.671503  0.049008  2.367795  0.077
O  O414  1  0.74772530  0.11283218  0.40981247  1  -1.29161  0.09877  -0.37078  -0.671441  0.049018  2.368026  0.077
O  O415  1  0.25227373  0.38717307  0.90980856  1  -1.291662  0.098753  -0.370832  -0.671525  0.049008  2.367692  0.077
O  O416  1  0.25544056  0.86493380  0.20802609  1  -1.349738  0.028608  -0.350323  -0.654844  0.014679  2.209593  0.023
O  O417  1  0.74454847  0.63506540  0.70803270  1  -1.349672  0.028607  -0.350215  -0.654776  0.014679  2.209546  0.023
O  O418  1  0.75544666  0.13507664  0.29197640  1  -1.349978  0.028604  -0.350352  -0.654897  0.014676  2.209858  0.023
O  O419  1  0.24455476  0.36492398  0.79197308  1  -1.349571  0.028608  -0.350394  -0.654988  0.014679  2.209664  0.023
O  O420  1  0.31573805  0.76810134  0.13294954  1  -1.352674  0.009981  -0.35599  -0.663149  0.00463  2.204447  0.008
O  O421  1  0.68425459  0.73189356  0.63295326  1  -1.352486  0.00998  -0.355948  -0.663057  0.00463  2.204477  0.008
O  O422  1  0.81574445  0.23189936  0.36705246  1  -1.352525  0.009981  -0.355954  -0.663102  0.00463  2.204497  0.008
O  O423  1  0.18425337  0.26810556  0.86705548  1  -1.35266  0.009981  -0.35606  -0.663122  0.00463  2.204216  0.008
O  O424  1  0.36649870  0.90255809  0.96537059  1  -1.304183  0.091555  -0.363523  -0.652911  0.046414  2.412611  0.064
O  O425  1  0.63350420  0.59745261  0.46536666  1  -1.304021  0.091552  -0.363488  -0.652919  0.046416  2.412778  0.064
O  O426  1  0.86649526  0.09745242  0.53463224  1  -1.303911  0.091556  -0.363511  -0.653022  0.04642  2.412689  0.064
O  O427  1  0.13350612  0.40254745  0.03463138  1  -1.304056  0.091562  -0.363524  -0.652894  0.046418  2.412741  0.064
O  O428  1  0.36224834  0.90730588  0.84471579  1  -1.298759  0.081058  -0.356938  -0.662263  0.040885  2.354709  0.059
O  O429  1  0.63775093  0.59269126  0.34471485  1  -1.298731  0.08105  -0.35691  -0.662273  0.040881  2.354653  0.059
O  O430  1  0.86224733  0.09269628  0.65528506  1  -1.298771  0.081072  -0.35694  -0.662379  0.040894  2.3547  0.059
O  O431  1  0.13775106  0.40731118  0.15528269  1  -1.298748  0.081055  -0.356899  -0.662256  0.040882  2.354537  0.059
O  O432  1  0.48943662  0.92240402  0.90540254  1  -1.331425  0.016068  -0.348913  -0.635239  0.00747  2.15903  0.014
O  O433  1  0.51056206  0.57760051  0.40540066  1  -1.331182  0.016069  -0.348922  -0.635256  0.00747  2.158959  0.014
O  O434  1  0.98943805  0.07760970  0.59460129  1  -1.331315  0.016069  -0.349061  -0.63534  0.007469  2.158928  0.014
O  O435  1  0.01056393  0.42239994  0.09459588  1  -1.331149  0.01607  -0.348951  -0.635281  0.00747  2.158977  0.014
O  O436  1  0.38943052  0.02913003  0.90616322  1  -1.331065  0.011077  -0.355412  -0.672538  0.005062  2.202764  0.008
O  O437  1  0.61056670  0.47087106  0.40616902  1  -1.331363  0.011074  -0.355443  -0.672554  0.005061  2.202594  0.008
O  O438  1  0.88943700  0.97087325  0.59383517  1  -1.331351  0.011079  -0.355455  -0.672647  0.005063  2.202559  0.008
O  O439  1  0.11056704  0.52912907  0.09382852  1  -1.331469  0.011072  -0.355392  -0.672505  0.00506  2.202885  0.008
O  O440  1  0.36752494  0.88584216  0.68819863  1  -1.287199  0.103186  -0.359878  -0.65251  0.051662  2.416348  0.078
O  O441  1  0.63247851  0.61415956  0.18818871  1  -1.286888  0.103188  -0.359992  -0.652734  0.051663  2.416421  0.078
O  O442  1  0.86752570  0.11416178  0.81180667  1  -1.286937  0.103192  -0.360013  -0.652698  0.051664  2.416194  0.078
O  O443  1  0.13247392  0.38584349  0.31181180  1  -1.287023  0.103191  -0.36  -0.652637  0.051663  2.416051  0.078
O  O444  1  0.27125772  0.86145648  0.59997692  1  -1.339178  0.060384  -0.35447  -0.674915  0.031752  2.422427  0.044
O  O445  1  0.72875773  0.63856252  0.09997430  1  -1.338797  0.060386  -0.354473  -0.674919  0.031748  2.422454  0.044
O  O446  1  0.77124880  0.13855014  0.90002738  1  -1.338682  0.06039  -0.354519  -0.674986  0.031752  2.42227  0.044
O  O447  1  0.22875323  0.36144203  0.40002177  1  -1.338845  0.060386  -0.354483  -0.674894  0.031747  2.422452  0.044
O  O448  1  0.32780299  0.74992994  0.66288438  1  -1.340805  0.012684  -0.348875  -0.640202  0.005725  2.19273  0.011
O  O449  1  0.67219746  0.75007791  0.16288967  1  -1.341235  0.012681  -0.348874  -0.640192  0.005723  2.192618  0.011
O  O450  1  0.82780273  0.25007710  0.83711548  1  -1.341156  0.012684  -0.348873  -0.640258  0.005724  2.192475  0.011
O  O451  1  0.17220110  0.24992562  0.33710788  1  -1.341061  0.012681  -0.348768  -0.64011  0.005723  2.192576  0.011
O  O452  1  0.23139381  0.84111820  0.71405973  1  -1.363251  0.015424  -0.358153  -0.664494  0.007404  2.185969  0.012
O  O453  1  0.76860785  0.65888753  0.21406592  1  -1.363274  0.015426  -0.358144  -0.664519  0.007405  2.185978  0.012
O  O454  1  0.73139322  0.15888735  0.78593814  1  -1.363314  0.015425  -0.358111  -0.664544  0.007404  2.185989  0.012
O  O455  1  0.26860159  0.34112108  0.28592818  1  -1.363395  0.015429  -0.358043  -0.664375  0.007405  2.185771  0.012
O  O456  1  0.41919368  0.83181778  0.53102844  1  -1.208182  0.07419  -0.347966  -0.561583  0.038174  2.260259  0.06
O  O457  1  0.58080554  0.66818315  0.03102666  1  -1.208115  0.074188  -0.347951  -0.561541  0.038174  2.260292  0.06
O  O458  1  0.91919670  0.16818183  0.96897144  1  -1.207935  0.074194  -0.34796  -0.561589  0.038176  2.260175  0.06
O  O459  1  0.08080775  0.33181409  0.46897038  1  -1.208104  0.074194  -0.347996  -0.561655  0.038177  2.26021  0.06
O  O460  1  0.42077686  0.84224854  0.27163189  1  -1.204907  0.077623  -0.345591  -0.555615  0.039775  2.330178  0.061
O  O461  1  0.57921760  0.65774488  0.77163493  1  -1.204877  0.077602  -0.345591  -0.555623  0.039767  2.330168  0.061
O  O462  1  0.92077506  0.15774288  0.22836716  1  -1.204806  0.077609  -0.345673  -0.555681  0.039772  2.329917  0.061
O  O463  1  0.07922033  0.34225695  0.72836392  1  -1.204788  0.077617  -0.345638  -0.555653  0.039775  2.329997  0.061
