# generated using pymatgen
data_ZnCoH13C24N2O9
_symmetry_space_group_name_H-M   'P 1'
_cell_length_a   13.86855672
_cell_length_b   18.90560607
_cell_length_c   19.05744686
_cell_angle_alpha   89.99986213
_cell_angle_beta   89.99940488
_cell_angle_gamma   90.00498174
_symmetry_Int_Tables_number   1
_chemical_formula_structural   ZnCoH13C24N2O9
_chemical_formula_sum   'Zn8 Co8 H104 C192 N16 O72'
_cell_volume   4996.73810306
_cell_formula_units_Z   8
loop_
 _symmetry_equiv_pos_site_id
 _symmetry_equiv_pos_as_xyz
  1  'x, y, z'
loop_
 _atom_site_type_symbol
 _atom_site_label
 _atom_site_symmetry_multiplicity
 _atom_site_fract_x
 _atom_site_fract_y
 _atom_site_fract_z
 _atom_site_occupancy
 _atom_site_pbe_bader_charge
 _atom_site_pbe_bader_spin_density
 _atom_site_pbe_cm5_charge
 _atom_site_pbe_ddec_charge
 _atom_site_pbe_ddec_spin_density
 _atom_site_pbe_ddec_sum_bond_order
 _atom_site_pbe_magmom
Zn  Zn0  1  0.36526158  0.89542841  0.56777875  1  1.295075  0.005153  0.665197  0.934995  0.003288  2.360416  0.005
Zn  Zn1  1  0.63468776  0.39541661  0.93222117  1  1.295379  0.005156  0.665202  0.935078  0.003292  2.360352  0.005
Zn  Zn2  1  0.63474041  0.10457280  0.43221644  1  1.295085  0.005153  0.665226  0.935061  0.003288  2.360339  0.005
Zn  Zn3  1  0.36530990  0.60458354  0.06777823  1  1.295297  0.005155  0.665218  0.935058  0.003291  2.360347  0.005
Zn  Zn4  1  0.13473424  0.10457160  0.06778389  1  1.295051  0.005153  0.665236  0.935032  0.003288  2.360453  0.005
Zn  Zn5  1  0.86531751  0.60458474  0.43222495  1  1.295235  0.005155  0.66523  0.935116  0.003292  2.360271  0.005
Zn  Zn6  1  0.86526559  0.89542960  0.93221970  1  1.295043  0.005154  0.665215  0.934981  0.003289  2.360517  0.005
Zn  Zn7  1  0.13469241  0.39541594  0.56777497  1  1.295171  0.005155  0.665227  0.935079  0.003292  2.360433  0.005
Co  Co8  1  0.40140748  0.48224371  0.95640304  1  1.30207  2.642398  0.665779  0.948366  2.849476  2.468008  2.624
Co  Co9  1  0.59857597  0.98224398  0.54359405  1  1.302175  2.642401  0.665836  0.948592  2.84948  2.468012  2.624
Co  Co10  1  0.59859596  0.51775909  0.04359898  1  1.302142  2.642402  0.665817  0.948495  2.849483  2.467975  2.624
Co  Co11  1  0.40142457  0.01775670  0.45640482  1  1.302247  2.642409  0.66585  0.948602  2.849492  2.468097  2.624
Co  Co12  1  0.09859577  0.51775166  0.45640432  1  1.302114  2.642388  0.665773  0.948399  2.849475  2.467916  2.624
Co  Co13  1  0.90142331  0.01775566  0.04359108  1  1.302243  2.642409  0.665828  0.948577  2.849493  2.468012  2.624
Co  Co14  1  0.90141270  0.48224268  0.54359507  1  1.302147  2.642398  0.66579  0.94844  2.849474  2.467773  2.624
Co  Co15  1  0.09857435  0.98224660  0.95641146  1  1.302227  2.642408  0.665807  0.948582  2.84949  2.467976  2.624
H  H16  1  0.42032931  0.71578383  0.69083564  1  0.095213  -3e-06  0.10659  0.115842  -4e-06  0.991776  0.0
H  H17  1  0.42989460  0.62624867  0.78692256  1  0.04957  0.000135  0.105978  0.105023  4.3e-05  1.018913  0.0
H  H18  1  0.37231458  0.78808013  0.93932548  1  0.113214  -1.4e-05  0.104149  0.11189  -3.8e-05  1.005415  0.0
H  H19  1  0.37049209  0.87934201  0.84158878  1  0.087481  0.000121  0.10389  0.11061  2.5e-05  1.017654  0.0
H  H20  1  0.12187906  0.07288596  0.43795738  1  0.103399  0.00038  0.104739  0.109028  0.000115  1.025506  0.0
H  H21  1  0.05458077  0.90363617  0.57966556  1  0.071919  9.5e-05  0.102822  0.100932  3.5e-05  1.026418  0.0
H  H22  1  0.38386844  0.37629839  0.08642888  1  0.109667  0.002024  0.128407  0.096739  0.000531  0.970894  0.001
H  H23  1  0.35532352  0.24850256  0.10266636  1  0.128883  0.000867  0.113278  0.122036  0.00037  1.014613  0.0
H  H24  1  0.34445051  0.16994348  0.99433578  1  0.13146  1e-05  0.114031  0.113071  -9.9e-05  1.026301  0.0
H  H25  1  0.34158402  0.34538538  0.67727318  1  0.140073  4e-05  0.117469  0.113504  1.1e-05  0.997981  0.0
H  H26  1  0.35131093  0.47774695  0.68375811  1  0.11018  0.000877  0.118411  0.126293  0.000324  0.984106  0.001
H  H27  1  0.37592522  0.53413457  0.80259181  1  0.138262  0.001768  0.124754  0.093926  0.000544  1.024563  0.001
H  H28  1  0.43390960  0.01083898  0.59659610  1  0.598639  0.001866  0.308124  0.394907  0.001048  0.9033  0.002
H  H29  1  0.57972777  0.21573232  0.80916680  1  0.09568  -3e-06  0.106725  0.11588  -4e-06  0.991811  0.0
H  H30  1  0.57013166  0.12622482  0.71305176  1  0.049793  0.000135  0.10597  0.105052  4.3e-05  1.019127  0.0
H  H31  1  0.62772658  0.28809047  0.56068152  1  0.113293  -1.4e-05  0.10408  0.111652  -3.8e-05  1.005623  0.0
H  H32  1  0.62954331  0.37932314  0.65844319  1  0.088013  0.000121  0.103779  0.110493  2.5e-05  1.017788  0.0
H  H33  1  0.87814441  0.57289182  0.06204366  1  0.103548  0.00038  0.10475  0.109036  0.000115  1.025506  0.0
H  H34  1  0.94539623  0.40362091  0.92034851  1  0.071839  9.5e-05  0.102848  0.100968  3.5e-05  1.026477  0.0
H  H35  1  0.61609875  0.87632215  0.41358981  1  0.112898  0.002022  0.128431  0.09689  0.000531  0.970675  0.001
H  H36  1  0.64463715  0.74853929  0.39735106  1  0.1294  0.000867  0.113218  0.122  0.00037  1.014701  0.0
H  H37  1  0.65550884  0.66995911  0.50566992  1  0.132019  1e-05  0.114035  0.113166  -9.9e-05  1.026338  0.0
H  H38  1  0.65844736  0.84543163  0.82273998  1  0.139185  4e-05  0.117358  0.113409  1.1e-05  0.998014  0.0
H  H39  1  0.64872678  0.97779260  0.81623531  1  0.109214  0.000878  0.118337  0.126223  0.000325  0.983841  0.001
H  H40  1  0.62414131  0.03416868  0.69739690  1  0.137242  0.001769  0.124678  0.093616  0.000544  1.024549  0.001
H  H41  1  0.56609360  0.51084688  0.90341365  1  0.598141  0.001861  0.308065  0.394831  0.001044  0.903315  0.002
H  H42  1  0.57967123  0.28420892  0.30916113  1  0.094697  -3e-06  0.106602  0.115911  -4e-06  0.991817  0.0
H  H43  1  0.57011099  0.37374989  0.21307841  1  0.049591  0.000135  0.106019  0.105043  4.3e-05  1.018999  0.0
H  H44  1  0.62768741  0.21192584  0.06067182  1  0.113117  -1.4e-05  0.104128  0.111863  -3.8e-05  1.00548  0.0
H  H45  1  0.62950485  0.12065867  0.15840432  1  0.087432  0.000121  0.103908  0.110633  2.5e-05  1.017643  0.0
H  H46  1  0.87812293  0.92711260  0.56203886  1  0.103592  0.00038  0.104753  0.109057  0.000115  1.025462  0.0
H  H47  1  0.94542121  0.09636027  0.42032859  1  0.071907  9.5e-05  0.102837  0.101006  3.5e-05  1.02637  0.0
H  H48  1  0.61613138  0.62370123  0.91357681  1  0.109681  0.002023  0.128412  0.09672  0.000531  0.970934  0.001
H  H49  1  0.64466981  0.75149494  0.89733565  1  0.129003  0.000867  0.113248  0.121939  0.00037  1.014761  0.0
H  H50  1  0.65553994  0.83005826  0.00566414  1  0.131411  1e-05  0.114035  0.113093  -9.9e-05  1.026279  0.0
H  H51  1  0.65840932  0.65461053  0.32272779  1  0.139465  4e-05  0.117442  0.113503  1.1e-05  0.998024  0.0
H  H52  1  0.64868384  0.52224949  0.31624338  1  0.109948  0.000878  0.11841  0.126336  0.000324  0.983953  0.001
H  H53  1  0.62408037  0.46586505  0.19740758  1  0.138264  0.001767  0.12473  0.093918  0.000544  1.024642  0.001
H  H54  1  0.56608879  0.98916223  0.40339857  1  0.598592  0.001865  0.308066  0.394804  0.001047  0.903352  0.002
H  H55  1  0.42025979  0.78427206  0.19083522  1  0.095471  -3e-06  0.106744  0.115914  -4e-06  0.991809  0.0
H  H56  1  0.42986311  0.87378009  0.28694921  1  0.049758  0.000135  0.105962  0.105057  4.3e-05  1.019128  0.0
H  H57  1  0.37227613  0.71191021  0.43931945  1  0.113268  -1.4e-05  0.104065  0.111666  -3.9e-05  1.005619  0.0
H  H58  1  0.37046084  0.62067754  0.34155621  1  0.088112  0.000121  0.103777  0.110503  2.5e-05  1.01776  0.0
H  H59  1  0.12185253  0.42711097  0.93795206  1  0.103572  0.00038  0.104782  0.109111  0.000115  1.025435  0.0
H  H60  1  0.05460216  0.59638083  0.07964407  1  0.071692  9.5e-05  0.102829  0.100946  3.5e-05  1.026532  0.0
H  H61  1  0.38389819  0.12368118  0.58641116  1  0.109888  0.002024  0.128446  0.096919  0.000531  0.970635  0.001
H  H62  1  0.35536411  0.25146298  0.60265254  1  0.129393  0.000867  0.113201  0.12192  0.00037  1.014685  0.0
H  H63  1  0.34448666  0.33004316  0.49433577  1  0.132003  1e-05  0.114028  0.113158  -9.9e-05  1.026456  0.0
H  H64  1  0.34155463  0.15457328  0.17726309  1  0.1392  4e-05  0.117372  0.113375  1.1e-05  0.998094  0.0
H  H65  1  0.35127376  0.02221284  0.18376618  1  0.10933  0.000878  0.118412  0.126308  0.000325  0.983871  0.001
H  H66  1  0.37586717  0.96583411  0.30260512  1  0.137353  0.001769  0.124714  0.093609  0.000544  1.024546  0.001
H  H67  1  0.43391200  0.48915591  0.09658679  1  0.598491  0.001862  0.308093  0.394917  0.001045  0.903224  0.002
H  H68  1  0.07967845  0.28421112  0.19083867  1  0.094657  -3e-06  0.106623  0.115911  -4e-06  0.991905  0.0
H  H69  1  0.07010962  0.37375187  0.28691758  1  0.049488  0.000135  0.106028  0.105145  4.3e-05  1.018964  0.0
H  H70  1  0.12768171  0.21192638  0.43932517  1  0.113226  -1.4e-05  0.104153  0.111872  -3.8e-05  1.005418  0.0
H  H71  1  0.12950558  0.12066051  0.34159287  1  0.087524  0.000121  0.103928  0.110663  2.5e-05  1.01757  0.0
H  H72  1  0.37812301  0.92711421  0.93795889  1  0.103513  0.00038  0.104726  0.109089  0.000115  1.025453  0.0
H  H73  1  0.44541704  0.09636170  0.07966942  1  0.071903  9.5e-05  0.102835  0.100961  3.5e-05  1.026413  0.0
H  H74  1  0.11612999  0.62369999  0.58642942  1  0.109632  0.002023  0.128445  0.096765  0.000531  0.970914  0.001
H  H75  1  0.14466819  0.75149261  0.60266428  1  0.129015  0.000867  0.113238  0.121923  0.00037  1.014796  0.0
H  H76  1  0.15554570  0.83005127  0.49433327  1  0.131584  1e-05  0.114038  0.113108  -9.9e-05  1.026265  0.0
H  H77  1  0.15840663  0.65461225  0.17727368  1  0.139456  4e-05  0.11746  0.113524  1.1e-05  0.998044  0.0
H  H78  1  0.14868683  0.52225013  0.18375271  1  0.110098  0.000878  0.118435  0.126267  0.000324  0.984009  0.001
H  H79  1  0.12408599  0.46585747  0.30258725  1  0.138041  0.001767  0.124805  0.093878  0.000544  1.024508  0.001
H  H80  1  0.06608437  0.98916097  0.09660333  1  0.598605  0.001865  0.308075  0.394792  0.001047  0.903345  0.002
H  H81  1  0.92027133  0.78427408  0.30916345  1  0.095382  -3e-06  0.106721  0.115903  -4e-06  0.991798  0.0
H  H82  1  0.92986448  0.87378182  0.21304602  1  0.049739  0.000135  0.105957  0.105047  4.3e-05  1.019164  0.0
H  H83  1  0.87227390  0.71191019  0.06068080  1  0.113264  -1.4e-05  0.10411  0.11176  -3.8e-05  1.005558  0.0
H  H84  1  0.87046371  0.62067359  0.15844427  1  0.088041  0.000121  0.103789  0.110515  2.5e-05  1.01771  0.0
H  H85  1  0.62185389  0.42711201  0.56204777  1  0.103451  0.00038  0.104789  0.109168  0.000115  1.025485  0.0
H  H86  1  0.55460777  0.59638099  0.42035518  1  0.071544  9.5e-05  0.102838  0.100986  3.5e-05  1.026474  0.0
H  H87  1  0.88390174  0.12368241  0.91358689  1  0.109865  0.002025  0.128417  0.096876  0.000531  0.970527  0.001
H  H88  1  0.85536357  0.25146426  0.89735067  1  0.129444  0.000867  0.113189  0.121976  0.00037  1.014739  0.0
H  H89  1  0.84448810  0.33004222  0.00566769  1  0.131761  1e-05  0.114033  0.113148  -9.8e-05  1.026396  0.0
H  H90  1  0.84154866  0.15456204  0.32273557  1  0.139092  4e-05  0.117423  0.113482  1.1e-05  0.997936  0.0
H  H91  1  0.85126717  0.02220215  0.31622852  1  0.109687  0.000879  0.118342  0.12621  0.000325  0.983872  0.001
H  H92  1  0.87585506  0.96582636  0.19738977  1  0.136948  0.00177  0.124686  0.093619  0.000544  1.024556  0.001
H  H93  1  0.93391930  0.48915559  0.40341037  1  0.598441  0.001861  0.308074  0.394873  0.001044  0.90327  0.002
H  H94  1  0.92031705  0.71578850  0.80916440  1  0.09463  -3e-06  0.106651  0.115937  -4e-06  0.991732  0.0
H  H95  1  0.92988587  0.62625093  0.71308234  1  0.049582  0.000135  0.106013  0.105044  4.3e-05  1.018971  0.0
H  H96  1  0.87231668  0.78807535  0.56067370  1  0.113206  -1.4e-05  0.104155  0.111912  -3.8e-05  1.005399  0.0
H  H97  1  0.87049136  0.87933964  0.65840758  1  0.087491  0.000121  0.103902  0.110649  2.5e-05  1.017619  0.0
H  H98  1  0.62187465  0.07288277  0.06204050  1  0.103504  0.00038  0.104781  0.109109  0.000115  1.025502  0.0
H  H99  1  0.55458134  0.90363792  0.92033102  1  0.071891  9.5e-05  0.102824  0.100969  3.5e-05  1.026389  0.0
H  H100  1  0.88386334  0.37629751  0.41357207  1  0.109616  0.002023  0.128414  0.096749  0.000531  0.970869  0.001
H  H101  1  0.85532226  0.24850331  0.39733564  1  0.128947  0.000867  0.113277  0.122045  0.00037  1.014624  0.0
H  H102  1  0.84445340  0.16994201  0.50566613  1  0.131361  1e-05  0.114046  0.113092  -9.9e-05  1.026287  0.0
H  H103  1  0.84158598  0.34538790  0.82272676  1  0.13933  4e-05  0.117468  0.113526  1.1e-05  0.99798  0.0
H  H104  1  0.85131732  0.47774737  0.81624092  1  0.110176  0.000878  0.118418  0.126347  0.000324  0.983969  0.001
H  H105  1  0.87592537  0.53413211  0.69740585  1  0.138333  0.001768  0.124694  0.093851  0.000544  1.02463  0.001
H  H106  1  0.93391257  0.01083865  0.90339921  1  0.598605  0.001865  0.308106  0.394814  0.001047  0.903354  0.002
H  H107  1  0.07974364  0.21572395  0.69084277  1  0.095395  -3e-06  0.106724  0.11596  -4e-06  0.991722  0.0
H  H108  1  0.07014616  0.12621781  0.78695967  1  0.049843  0.000135  0.105976  0.105062  4.3e-05  1.019218  0.0
H  H109  1  0.12772664  0.28809525  0.93932385  1  0.112983  -1.4e-05  0.104109  0.111771  -3.8e-05  1.005484  0.0
H  H110  1  0.12953900  0.37932762  0.84155617  1  0.087948  0.000121  0.10381  0.110549  2.5e-05  1.017788  0.0
H  H111  1  0.37815242  0.57288973  0.43795530  1  0.103619  0.00038  0.104785  0.109092  0.000115  1.025591  0.0
H  H112  1  0.44539782  0.40362286  0.57964999  1  0.071632  9.5e-05  0.102853  0.100999  3.5e-05  1.026341  0.0
H  H113  1  0.11609953  0.87631721  0.08641251  1  0.109855  0.002025  0.128405  0.096857  0.000531  0.970578  0.001
H  H114  1  0.14463481  0.74853642  0.10265082  1  0.12939  0.000867  0.1132  0.121935  0.00037  1.014712  0.0
H  H115  1  0.15551172  0.66995687  0.99433275  1  0.131922  1e-05  0.114036  0.113169  -9.9e-05  1.026458  0.0
H  H116  1  0.15845405  0.84544128  0.67726488  1  0.139165  4e-05  0.117424  0.113505  1.1e-05  0.997828  0.0
H  H117  1  0.14873987  0.97780012  0.68377455  1  0.10975  0.000879  0.118354  0.126269  0.000325  0.983822  0.001
H  H118  1  0.12414693  0.03417802  0.80261068  1  0.136818  0.001769  0.124673  0.093654  0.000544  1.024506  0.001
H  H119  1  0.06609350  0.51084879  0.59658430  1  0.598124  0.001861  0.308095  0.394843  0.001044  0.903299  0.002
C  C120  1  0.38965880  0.85604282  0.70341755  1  1.542283  -0.000102  0.187437  0.54761  -0.00014  4.268297  0.0
C  C121  1  0.39542509  0.80253024  0.76132776  1  -0.047388  9.5e-05  -0.018216  -0.023633  -1.1e-05  3.97309  0.0
C  C122  1  0.41155964  0.73120484  0.74549985  1  0.011553  1e-05  -0.084538  -0.089918  -4.9e-05  3.963038  0.0
C  C123  1  0.41507577  0.68137575  0.79893150  1  -0.05462  -8.9e-05  -0.079574  -0.076608  -0.000185  3.958883  0.0
C  C124  1  0.39941226  0.70157288  0.86862188  1  0.017347  0.004527  -0.020252  -0.042511  0.00238  3.982917  0.004
C  C125  1  0.38360581  0.77321618  0.88467595  1  -0.045623  0.000493  -0.089992  -0.109129  0.000114  3.987319  0.0
C  C126  1  0.38250019  0.82335266  0.83118237  1  -0.072756  0.000252  -0.090743  -0.113135  3.7e-05  3.991266  0.0
C  C127  1  0.39680200  0.64707302  0.92538035  1  1.53592  0.000493  0.214971  0.583419  -1.6e-05  4.196374  0.0
C  C128  1  0.20343074  0.97406507  0.51749079  1  1.557842  9.7e-05  0.221387  0.59447  -0.000396  4.172709  0.001
C  C129  1  0.09811637  0.98731388  0.50942294  1  -0.124442  0.005134  -0.012992  -0.028058  0.002597  3.969779  0.004
C  C130  1  0.06737025  0.04153688  0.46466005  1  0.06104  0.000572  -0.07877  -0.079828  0.000123  3.950854  0.0
C  C131  1  0.03023131  0.94571872  0.54494794  1  -0.029063  0.000311  -0.082166  -0.097524  -8.8e-05  3.982492  0.0
C  C132  1  0.37760580  0.34182593  0.04081161  1  0.471171  -0.004127  0.070332  0.132343  -0.004563  3.901762  -0.002
C  C133  1  0.36241817  0.26943632  0.04964400  1  -0.00135  0.003209  -0.067713  -0.107484  0.001446  3.907076  0.003
C  C134  1  0.35625903  0.22670903  0.99031415  1  0.039884  -0.006934  -0.043126  -0.01054  -0.007693  3.870917  -0.004
C  C135  1  0.36299747  0.25802067  0.92396207  1  -0.022171  0.001931  -0.005523  -0.071889  0.000478  3.947877  0.002
C  C136  1  0.35427131  0.21475289  0.85918957  1  0.898475  -0.002156  0.163688  0.288632  -0.002392  3.942887  -0.001
C  C137  1  0.35142601  0.25440832  0.78749106  1  0.956722  -0.002699  0.164216  0.28852  -0.00302  3.955991  -0.001
C  C138  1  0.36075820  0.33241510  0.78877546  1  0.016069  -0.000233  -0.00738  -0.082835  -0.001009  3.970195  0.001
C  C139  1  0.35368673  0.37219522  0.72706151  1  0.003499  -0.001131  -0.04084  -0.01143  -0.001398  3.883248  -0.001
C  C140  1  0.35902181  0.44544826  0.73070093  1  -0.000478  0.000766  -0.060295  -0.091981  -0.000406  3.903605  0.001
C  C141  1  0.37259565  0.47705193  0.79603750  1  0.481422  0.000896  0.07952  0.147616  0.000366  3.857181  0.001
C  C142  1  0.37416792  0.36856082  0.85260186  1  0.473922  -0.009304  0.132615  0.15112  -0.01138  3.984387  -0.005
C  C143  1  0.37595347  0.33168654  0.91983074  1  0.513185  -0.015209  0.131611  0.153047  -0.017766  3.979339  -0.01
C  C144  1  0.61037096  0.35600970  0.79659191  1  1.54365  -0.000102  0.187455  0.547474  -0.000141  4.268274  0.0
C  C145  1  0.60460552  0.30249212  0.73868182  1  -0.047908  9.6e-05  -0.018405  -0.023919  -1e-05  3.97289  0.0
C  C146  1  0.58847404  0.23116777  0.75450203  1  0.010942  1e-05  -0.084554  -0.089716  -4.9e-05  3.963363  0.0
C  C147  1  0.58496281  0.18135076  0.70105948  1  -0.055031  -8.9e-05  -0.079646  -0.076812  -0.000185  3.959392  0.0
C  C148  1  0.60059915  0.20156333  0.63136643  1  0.017344  0.004527  -0.020095  -0.042467  0.00238  3.982721  0.004
C  C149  1  0.61640978  0.27321033  0.61532479  1  -0.046136  0.000494  -0.089948  -0.108814  0.000114  3.987868  0.0
C  C150  1  0.61751920  0.32333035  0.66882297  1  -0.0725  0.000252  -0.090491  -0.112794  3.7e-05  3.991374  0.0
C  C151  1  0.60323178  0.14707330  0.57459708  1  1.535926  0.000495  0.214947  0.583457  -1.6e-05  4.195914  0.0
C  C152  1  0.79657049  0.47405076  0.98252101  1  1.557673  0.000101  0.221388  0.594412  -0.000394  4.172768  0.001
C  C153  1  0.90188643  0.48730520  0.99058883  1  -0.12406  0.005135  -0.012992  -0.027986  0.002598  3.969429  0.004
C  C154  1  0.93263146  0.54154416  0.03533215  1  0.060811  0.000573  -0.078763  -0.079831  0.000124  3.951082  0.0
C  C155  1  0.96976583  0.44570387  0.95506550  1  -0.028969  0.000312  -0.08215  -0.09772  -8.7e-05  3.982202  0.0
C  C156  1  0.62234865  0.84184098  0.45919877  1  0.467946  -0.00413  0.07037  0.132526  -0.00457  3.902333  -0.002
C  C157  1  0.63753634  0.76945396  0.45037757  1  -0.002106  0.003209  -0.06791  -0.107974  0.001445  3.908324  0.003
C  C158  1  0.64371499  0.72672443  0.50970506  1  0.039659  -0.006946  -0.042979  -0.010428  -0.007706  3.871488  -0.004
C  C159  1  0.63696874  0.75802543  0.57605917  1  -0.022502  0.001936  -0.005711  -0.072154  0.000479  3.948491  0.002
C  C160  1  0.64571067  0.71475487  0.64082284  1  0.898067  -0.002151  0.163717  0.288552  -0.002387  3.942937  -0.001
C  C161  1  0.64857943  0.75443146  0.71252599  1  0.957539  -0.002693  0.164092  0.288548  -0.003013  3.95556  -0.001
C  C162  1  0.63921828  0.83243395  0.71124245  1  0.016369  -0.000235  -0.007101  -0.082574  -0.001011  3.969677  0.001
C  C163  1  0.64633990  0.87222706  0.77294633  1  0.003747  -0.00113  -0.040855  -0.011614  -0.001396  3.883157  -0.001
C  C164  1  0.64099332  0.94548189  0.76929730  1  0.000578  0.000758  -0.060159  -0.09159  -0.00041  3.903331  0.001
C  C165  1  0.62741819  0.97708698  0.70396327  1  0.482648  0.000891  0.079686  0.147733  0.000362  3.856784  0.001
C  C166  1  0.62582727  0.86858214  0.64741753  1  0.474763  -0.009299  0.132635  0.151151  -0.011372  3.984289  -0.005
C  C167  1  0.62403374  0.83169998  0.58018560  1  0.512656  -0.015221  0.131698  0.153155  -0.017779  3.979036  -0.01
C  C168  1  0.61034607  0.14394834  0.29657135  1  1.542229  -0.000102  0.187599  0.548007  -0.00014  4.26861  0.0
C  C169  1  0.60457617  0.19746568  0.23866639  1  -0.047155  9.4e-05  -0.018257  -0.023862  -1.1e-05  3.973052  0.0
C  C170  1  0.58844019  0.26879108  0.25449692  1  0.012733  1e-05  -0.084506  -0.089846  -4.9e-05  3.963033  0.0
C  C171  1  0.58492838  0.31862335  0.20106947  1  -0.054821  -8.9e-05  -0.07963  -0.07675  -0.000185  3.959145  0.0
C  C172  1  0.60058396  0.29843045  0.13137594  1  0.017691  0.004528  -0.020234  -0.042405  0.002381  3.982757  0.004
C  C173  1  0.61639257  0.22678714  0.11532030  1  -0.046336  0.000493  -0.090007  -0.109188  0.000114  3.987363  0.0
C  C174  1  0.61750036  0.17664907  0.16881178  1  -0.07276  0.000252  -0.090646  -0.112956  3.8e-05  3.99119  0.0
C  C175  1  0.60319854  0.35293242  0.07461957  1  1.536519  0.000493  0.215005  0.583598  -1.6e-05  4.196295  0.0
C  C176  1  0.79657414  0.02593561  0.48250545  1  1.557796  9.9e-05  0.221451  0.594693  -0.000395  4.172433  0.001
C  C177  1  0.90188850  0.01268203  0.49057174  1  -0.124298  0.005133  -0.012911  -0.028161  0.002596  3.969773  0.004
C  C178  1  0.93263245  0.95846010  0.53533410  1  0.060973  0.000572  -0.078803  -0.07984  0.000123  3.950927  0.0
C  C179  1  0.96977356  0.05427772  0.45504621  1  -0.029115  0.000312  -0.08229  -0.097677  -8.7e-05  3.982481  0.0
C  C180  1  0.62239042  0.65817422  0.95919041  1  0.470626  -0.004125  0.070371  0.132403  -0.004561  3.901926  -0.002
C  C181  1  0.63757733  0.73056330  0.95035855  1  -0.001335  0.003209  -0.067693  -0.107403  0.001445  3.907289  0.003
C  C182  1  0.64373791  0.77329112  0.00968892  1  0.039519  -0.006934  -0.043129  -0.010579  -0.007693  3.871064  -0.004
C  C183  1  0.63699154  0.74198106  0.07603890  1  -0.021589  0.001929  -0.005485  -0.071882  0.000476  3.948127  0.002
C  C184  1  0.64572491  0.78524409  0.14081035  1  0.898338  -0.00216  0.163676  0.288707  -0.002396  3.942906  -0.001
C  C185  1  0.64857310  0.74558813  0.21250677  1  0.956353  -0.002703  0.16434  0.288778  -0.003024  3.955898  -0.001
C  C186  1  0.63922792  0.66758716  0.21122603  1  0.01614  -0.000236  -0.007303  -0.082776  -0.001012  3.970492  0.001
C  C187  1  0.64630877  0.62780493  0.27293736  1  0.004169  -0.001129  -0.040865  -0.011624  -0.001396  3.88349  -0.001
C  C188  1  0.64097368  0.55455031  0.26930057  1  -0.000286  0.000764  -0.060227  -0.091795  -0.000408  3.903389  0.001
C  C189  1  0.62740489  0.52294557  0.20396452  1  0.481323  0.000899  0.079601  0.147638  0.000367  3.857  0.001
C  C190  1  0.62582397  0.63143880  0.14740016  1  0.473911  -0.009311  0.132589  0.151123  -0.011388  3.984284  -0.005
C  C191  1  0.62404059  0.66831255  0.08017023  1  0.512579  -0.015223  0.131598  0.152981  -0.017782  3.979334  -0.01
C  C192  1  0.38962815  0.64399204  0.20341221  1  1.543522  -0.000102  0.187513  0.547686  -0.000141  4.268216  0.0
C  C193  1  0.39538926  0.69751226  0.26131862  1  -0.04811  9.5e-05  -0.018403  -0.024069  -1.1e-05  3.97337  0.0
C  C194  1  0.41151425  0.76883608  0.24549789  1  0.011459  1e-05  -0.084658  -0.089754  -4.9e-05  3.96353  0.0
C  C195  1  0.41503053  0.81865204  0.29894097  1  -0.055436  -8.9e-05  -0.079586  -0.07675  -0.000185  3.959487  0.0
C  C196  1  0.39940644  0.79843682  0.36863454  1  0.017563  0.004527  -0.020118  -0.042509  0.00238  3.982901  0.004
C  C197  1  0.38359365  0.72679088  0.38467671  1  -0.046505  0.000493  -0.089926  -0.108871  0.000114  3.987975  0.0
C  C198  1  0.38248135  0.67667350  0.33117695  1  -0.072397  0.000252  -0.090435  -0.112661  3.7e-05  3.991452  0.0
C  C199  1  0.39676732  0.85292791  0.42540337  1  1.536107  0.000494  0.21493  0.583416  -1.7e-05  4.196005  0.0
C  C200  1  0.20342501  0.52594622  0.01747786  1  1.557522  0.000101  0.221288  0.594273  -0.000394  4.172963  0.001
C  C201  1  0.09811195  0.51269548  0.00940637  1  -0.123806  0.005134  -0.013047  -0.028095  0.002597  3.969593  0.004
C  C202  1  0.06736548  0.45845599  0.96466515  1  0.060717  0.000573  -0.078847  -0.079854  0.000124  3.951074  0.0
C  C203  1  0.03023183  0.55429787  0.04492760  1  -0.028959  0.000312  -0.082122  -0.097569  -8.7e-05  3.982217  0.0
C  C204  1  0.37764756  0.15815758  0.54079905  1  0.470503  -0.004131  0.070304  0.132387  -0.00457  3.902277  -0.002
C  C205  1  0.36246204  0.23054566  0.54962550  1  -0.002427  0.003209  -0.067851  -0.107806  0.001445  3.908091  0.003
C  C206  1  0.35628267  0.27327731  0.49029853  1  0.039876  -0.006947  -0.042941  -0.010427  -0.007707  3.871687  -0.004
C  C207  1  0.36302604  0.24197842  0.42394495  1  -0.022843  0.001937  -0.00565  -0.072133  0.00048  3.948569  0.002
C  C208  1  0.35427690  0.28524370  0.35917812  1  0.898194  -0.002153  0.163716  0.288803  -0.002389  3.942752  -0.001
C  C209  1  0.35141102  0.24557186  0.28747393  1  0.957196  -0.002697  0.164107  0.288334  -0.003017  3.955593  -0.001
C  C210  1  0.36077578  0.16756831  0.28875433  1  0.016311  -0.000237  -0.00713  -0.082536  -0.001013  3.969947  0.001
C  C211  1  0.35365416  0.12777309  0.22705306  1  0.003595  -0.001126  -0.040799  -0.011482  -0.001392  3.883314  -0.001
C  C212  1  0.35901516  0.05451985  0.23070419  1  0.000251  0.000756  -0.060303  -0.091788  -0.000413  3.903542  0.001
C  C213  1  0.37258957  0.02291846  0.29604084  1  0.483209  0.000891  0.079713  0.147854  0.000364  3.856583  0.001
C  C214  1  0.37417255  0.13142700  0.35258081  1  0.474207  -0.009299  0.132498  0.150895  -0.011373  3.984548  -0.005
C  C215  1  0.37596753  0.16830493  0.41981485  1  0.513048  -0.015229  0.131751  0.153339  -0.017786  3.978932  -0.01
C  C216  1  0.11034302  0.14395580  0.20342173  1  1.542581  -0.000102  0.187462  0.547649  -0.00014  4.268365  0.0
C  C217  1  0.10457517  0.19747142  0.26133133  1  -0.047374  9.5e-05  -0.018273  -0.023563  -1.1e-05  3.972647  0.0
C  C218  1  0.08844446  0.26879739  0.24550495  1  0.0124  1e-05  -0.084629  -0.090101  -4.9e-05  3.963498  0.0
C  C219  1  0.08492540  0.31862899  0.29893126  1  -0.054694  -8.9e-05  -0.079578  -0.076706  -0.000185  3.95912  0.0
C  C220  1  0.10058359  0.29843169  0.36862262  1  0.017296  0.004527  -0.02029  -0.042552  0.00238  3.982831  0.004
C  C221  1  0.11639197  0.22678782  0.38467516  1  -0.045973  0.000493  -0.090018  -0.109129  0.000114  3.987368  0.0
C  C222  1  0.11749908  0.17665041  0.33118589  1  -0.072701  0.000252  -0.090665  -0.113086  3.7e-05  3.991018  0.0
C  C223  1  0.10319303  0.35293089  0.42537569  1  1.535901  0.000491  0.214978  0.583523  -1.8e-05  4.196349  0.0
C  C224  1  0.29657157  0.02593454  0.01749385  1  1.557852  9.8e-05  0.221424  0.594631  -0.000396  4.172613  0.001
C  C225  1  0.40188533  0.01268469  0.00942418  1  -0.124462  0.005134  -0.012897  -0.028085  0.002597  3.969788  0.004
C  C226  1  0.43263143  0.95846270  0.96466055  1  0.060976  0.000573  -0.078795  -0.079922  0.000123  3.950906  0.0
C  C227  1  0.46976988  0.05427870  0.04495172  1  -0.029083  0.000312  -0.082203  -0.097492  -8.8e-05  3.982565  0.0
C  C228  1  0.12239113  0.65817151  0.54081359  1  0.471019  -0.004124  0.070434  0.13243  -0.004561  3.901955  -0.002
C  C229  1  0.13757719  0.73055897  0.54964307  1  -0.001438  0.003209  -0.067729  -0.107403  0.001446  3.907427  0.003
C  C230  1  0.14374229  0.77328519  0.49031186  1  0.040149  -0.006932  -0.043133  -0.010566  -0.007691  3.871196  -0.004
C  C231  1  0.13699759  0.74197583  0.42396305  1  -0.022276  0.001931  -0.005507  -0.072116  0.000478  3.948277  0.002
C  C232  1  0.14572684  0.78523637  0.35919354  1  0.89833  -0.00216  0.163689  0.289085  -0.002395  3.942595  -0.001
C  C233  1  0.14857461  0.74558323  0.28750349  1  0.955466  -0.002702  0.164384  0.288501  -0.003024  3.95631  -0.001
C  C234  1  0.13923158  0.66758279  0.28877556  1  0.016135  -0.000234  -0.007307  -0.082834  -0.00101  3.970669  0.001
C  C235  1  0.14630898  0.62780282  0.22706112  1  0.004152  -0.00113  -0.040961  -0.011712  -0.001396  3.883572  -0.001
C  C236  1  0.14097673  0.55454766  0.23069760  1  -0.000378  0.000766  -0.060245  -0.09164  -0.000405  3.903255  0.001
C  C237  1  0.12741493  0.52294118  0.29603488  1  0.481258  0.000899  0.079641  0.147629  0.000367  3.856703  0.001
C  C238  1  0.12583753  0.63143480  0.35260057  1  0.474084  -0.009304  0.132645  0.15119  -0.01138  3.984206  -0.005
C  C239  1  0.12405174  0.66830891  0.41983252  1  0.513442  -0.015216  0.131634  0.153155  -0.017773  3.979282  -0.01
C  C240  1  0.88963625  0.64399251  0.29658702  1  1.543403  -0.000102  0.187377  0.54743  -0.000141  4.268193  0.0
C  C241  1  0.89539675  0.69751128  0.23867676  1  -0.048074  9.5e-05  -0.018305  -0.023888  -1.1e-05  3.973119  0.0
C  C242  1  0.91152584  0.76883824  0.25449878  1  0.011241  1e-05  -0.084584  -0.089719  -4.9e-05  3.963182  0.0
C  C243  1  0.91503207  0.81865432  0.20105503  1  -0.054986  -8.9e-05  -0.079681  -0.076809  -0.000185  3.959542  0.0
C  C244  1  0.89940104  0.79843768  0.13136320  1  0.017268  0.004527  -0.020133  -0.042627  0.00238  3.983204  0.004
C  C245  1  0.88359353  0.72679231  0.11532132  1  -0.046555  0.000493  -0.089951  -0.108986  0.000114  3.987936  0.0
C  C246  1  0.88248047  0.67667269  0.16882015  1  -0.0721  0.000252  -0.09047  -0.112676  3.7e-05  3.991426  0.0
C  C247  1  0.89675913  0.85292627  0.07459531  1  1.536382  0.000494  0.215099  0.583815  -1.6e-05  4.195956  0.0
C  C248  1  0.70342902  0.52594835  0.48251990  1  1.557672  0.0001  0.221337  0.594335  -0.000395  4.172856  0.001
C  C249  1  0.59811729  0.51269759  0.49059223  1  -0.123881  0.005133  -0.013026  -0.027957  0.002597  3.969499  0.004
C  C250  1  0.56737227  0.45846027  0.53533607  1  0.060723  0.000573  -0.078807  -0.080032  0.000123  3.951346  0.0
C  C251  1  0.53023623  0.55429478  0.45506774  1  -0.028852  0.000312  -0.082132  -0.097685  -8.7e-05  3.982169  0.0
C  C252  1  0.87765119  0.15816347  0.95920054  1  0.470908  -0.004125  0.070465  0.132667  -0.004562  3.902176  -0.002
C  C253  1  0.86246146  0.23054893  0.95037771  1  -0.002316  0.003206  -0.067871  -0.108006  0.001444  3.908326  0.003
C  C254  1  0.85629055  0.27327900  0.00970393  1  0.039805  -0.006936  -0.042958  -0.010343  -0.007695  3.871518  -0.004
C  C255  1  0.86303802  0.24197837  0.07605701  1  -0.022751  0.001934  -0.005679  -0.072148  0.000478  3.948412  0.002
C  C256  1  0.85428363  0.28524296  0.14082380  1  0.898455  -0.002155  0.163703  0.288628  -0.002392  3.942936  -0.001
C  C257  1  0.85142105  0.24556619  0.21251919  1  0.957135  -0.002698  0.164224  0.288731  -0.003019  3.955345  -0.001
C  C258  1  0.86077862  0.16756475  0.21123733  1  0.0163  -0.000237  -0.007262  -0.082652  -0.001012  3.969898  0.001
C  C259  1  0.85365539  0.12777044  0.27293980  1  0.004107  -0.001125  -0.040799  -0.011589  -0.001392  3.883163  -0.001
C  C260  1  0.85900995  0.05451456  0.26929247  1  0.000136  0.000757  -0.060192  -0.091663  -0.000411  3.90353  0.001
C  C261  1  0.87258097  0.02290963  0.20395999  1  0.482902  0.000892  0.079704  0.147822  0.000364  3.856854  0.001
C  C262  1  0.87416909  0.13141884  0.14741660  1  0.474142  -0.0093  0.132608  0.151012  -0.011374  3.984278  -0.005
C  C263  1  0.87596430  0.16830380  0.08018719  1  0.513017  -0.015221  0.131709  0.153252  -0.017778  3.979016  -0.01
C  C264  1  0.88965465  0.85604646  0.79657872  1  1.542582  -0.000102  0.187483  0.54775  -0.00014  4.2685  0.0
C  C265  1  0.89541888  0.80253031  0.73867069  1  -0.047303  9.4e-05  -0.018223  -0.023647  -1.1e-05  3.972882  0.0
C  C266  1  0.91155104  0.73120329  0.75449654  1  0.012384  1e-05  -0.084637  -0.090084  -4.8e-05  3.963175  0.0
C  C267  1  0.91507082  0.68137380  0.70106866  1  -0.054829  -9e-05  -0.079554  -0.076521  -0.000185  3.958985  0.0
C  C268  1  0.89941263  0.70157163  0.63137678  1  0.01753  0.004527  -0.020318  -0.042745  0.00238  3.982987  0.004
C  C269  1  0.88360713  0.77321603  0.61532528  1  -0.045567  0.000493  -0.08998  -0.109061  0.000114  3.987367  0.0
C  C270  1  0.88249570  0.82335080  0.66881665  1  -0.072903  0.000252  -0.090732  -0.113144  3.7e-05  3.991289  0.0
C  C271  1  0.89680607  0.64707138  0.57462161  1  1.535996  0.000491  0.21505  0.583681  -1.7e-05  4.196083  0.0
C  C272  1  0.70342898  0.97406509  0.98250555  1  1.557901  9.9e-05  0.221387  0.594566  -0.000395  4.172583  0.001
C  C273  1  0.59811521  0.98731493  0.99057364  1  -0.124392  0.005135  -0.012923  -0.028117  0.002597  3.969741  0.004
C  C274  1  0.56736767  0.04153586  0.03533780  1  0.061065  0.000572  -0.078843  -0.079967  0.000123  3.951088  0.0
C  C275  1  0.53022922  0.94572092  0.95504820  1  -0.029105  0.000311  -0.082264  -0.097611  -8.8e-05  3.982483  0.0
C  C276  1  0.87760293  0.34182441  0.45918948  1  0.471156  -0.004128  0.070341  0.132374  -0.004564  3.901715  -0.002
C  C277  1  0.86241759  0.26943536  0.45035843  1  -0.001352  0.003209  -0.067683  -0.107457  0.001446  3.907218  0.003
C  C278  1  0.85625537  0.22670755  0.50968754  1  0.039446  -0.006934  -0.043153  -0.010568  -0.007693  3.871084  -0.004
C  C279  1  0.86300295  0.25801586  0.57604107  1  -0.022106  0.001931  -0.005528  -0.072074  0.000477  3.948384  0.002
C  C280  1  0.85426650  0.21475003  0.64081006  1  0.898831  -0.002157  0.163664  0.288614  -0.002392  3.943106  -0.001
C  C281  1  0.85141801  0.25441057  0.71250168  1  0.956263  -0.002699  0.1644  0.288828  -0.00302  3.955766  -0.001
C  C282  1  0.86076753  0.33240996  0.71122331  1  0.016358  -0.000235  -0.007326  -0.082893  -0.001011  3.970726  0.001
C  C283  1  0.85369084  0.37219045  0.77293408  1  0.00424  -0.001127  -0.040894  -0.011524  -0.001394  3.883402  -0.001
C  C284  1  0.85902670  0.44544509  0.76930022  1  -0.000337  0.000765  -0.060295  -0.091927  -0.000407  3.903305  0.001
C  C285  1  0.87259643  0.47704945  0.70396294  1  0.481566  0.000898  0.079666  0.147708  0.000368  3.857215  0.001
C  C286  1  0.87417383  0.36855741  0.64739935  1  0.473514  -0.009301  0.132608  0.151121  -0.011377  3.98433  -0.005
C  C287  1  0.87596178  0.33168119  0.58017265  1  0.513101  -0.015211  0.131664  0.153322  -0.017768  3.979311  -0.01
C  C288  1  0.11036646  0.35600711  0.70341395  1  1.543701  -0.000102  0.187377  0.547425  -0.000141  4.26818  0.0
C  C289  1  0.10461100  0.30248887  0.76132421  1  -0.048128  9.6e-05  -0.01831  -0.023854  -1e-05  3.973105  0.0
C  C290  1  0.08848192  0.23116191  0.74550534  1  0.011513  1e-05  -0.084647  -0.089819  -4.9e-05  3.963184  0.0
C  C291  1  0.08498362  0.18134583  0.79894751  1  -0.055255  -8.9e-05  -0.079609  -0.076805  -0.000185  3.959848  0.0
C  C292  1  0.10060960  0.20156828  0.86863567  1  0.016952  0.004528  -0.020168  -0.042645  0.00238  3.98349  0.004
C  C293  1  0.11641062  0.27321471  0.88468070  1  -0.045961  0.000493  -0.090011  -0.108874  0.000114  3.988105  0.0
C  C294  1  0.11752657  0.32333063  0.83117977  1  -0.072397  0.000252  -0.090447  -0.112843  3.7e-05  3.991712  0.0
C  C295  1  0.10324286  0.14707864  0.92540461  1  1.536149  0.000495  0.215054  0.583801  -1.6e-05  4.196099  0.0
C  C296  1  0.29657585  0.47404969  0.51748002  1  1.557742  9.9e-05  0.221333  0.594393  -0.000397  4.172545  0.001
C  C297  1  0.40189191  0.48730309  0.50940822  1  -0.123918  0.005134  -0.012969  -0.0281  0.002597  3.969576  0.004
C  C298  1  0.43263549  0.54154041  0.46466437  1  0.060793  0.000572  -0.078841  -0.079864  0.000123  3.951328  0.0
C  C299  1  0.46977296  0.44570643  0.54493376  1  -0.028683  0.000312  -0.082117  -0.097524  -8.7e-05  3.982125  0.0
C  C300  1  0.12234792  0.84183827  0.04080043  1  0.470851  -0.00413  0.070464  0.1326  -0.004567  3.902149  -0.002
C  C301  1  0.13753908  0.76945334  0.04962588  1  -0.002494  0.003208  -0.067882  -0.107843  0.001444  3.908209  0.003
C  C302  1  0.14371793  0.72672168  0.99030019  1  0.03989  -0.006943  -0.042956  -0.010495  -0.007702  3.871668  -0.004
C  C303  1  0.13697190  0.75802337  0.92394554  1  -0.022758  0.001936  -0.005612  -0.071918  0.00048  3.948382  0.002
C  C304  1  0.14572125  0.71475878  0.85917927  1  0.898392  -0.002152  0.163622  0.288576  -0.002388  3.94302  -0.001
C  C305  1  0.14858310  0.75443555  0.78748021  1  0.957354  -0.002695  0.164137  0.288618  -0.003015  3.955339  -0.001
C  C306  1  0.13922409  0.83243539  0.78876364  1  0.01626  -0.000236  -0.007237  -0.082554  -0.001011  3.969722  0.001
C  C307  1  0.14634299  0.87223183  0.72706117  1  0.004189  -0.00113  -0.040771  -0.011561  -0.001396  3.883134  -0.001
C  C308  1  0.14099636  0.94548717  0.73071112  1  0.000134  0.000758  -0.060272  -0.091828  -0.00041  3.903712  0.001
C  C309  1  0.12742318  0.97709422  0.79604255  1  0.48275  0.000889  0.079726  0.147762  0.000361  3.856832  0.001
C  C310  1  0.12583146  0.86858131  0.85258489  1  0.474159  -0.009297  0.132607  0.150978  -0.01137  3.984386  -0.005
C  C311  1  0.12403624  0.83169740  0.91981588  1  0.513167  -0.01522  0.131704  0.153163  -0.017775  3.979187  -0.01
N  N312  1  0.38526217  0.37286503  0.97758760  1  -1.205253  0.05412  -0.311897  -0.282263  0.027682  3.536596  0.05
N  N313  1  0.38085414  0.43971928  0.85571602  1  -1.216113  0.060456  -0.311531  -0.264298  0.032187  3.513553  0.049
N  N314  1  0.61472993  0.87287273  0.52242654  1  -1.204552  0.054125  -0.311921  -0.282339  0.027685  3.536955  0.05
N  N315  1  0.61917257  0.93973913  0.64429429  1  -1.217316  0.060464  -0.311704  -0.264368  0.03219  3.513045  0.049
N  N316  1  0.61473189  0.62713247  0.02241337  1  -1.204314  0.054114  -0.311925  -0.282236  0.02768  3.536732  0.05
N  N317  1  0.61914208  0.56027981  0.14428547  1  -1.216042  0.060463  -0.311684  -0.26453  0.032191  3.513216  0.049
N  N318  1  0.38526773  0.12712689  0.47756919  1  -1.203994  0.054123  -0.311947  -0.282393  0.027684  3.536985  0.05
N  N319  1  0.38082870  0.06027107  0.35570668  1  -1.217405  0.060469  -0.311667  -0.264359  0.032191  3.51307  0.049
N  N320  1  0.11474439  0.62713134  0.47758798  1  -1.205335  0.054119  -0.311961  -0.282344  0.02768  3.536683  0.05
N  N321  1  0.11914694  0.56027580  0.35571337  1  -1.215999  0.060457  -0.311705  -0.264436  0.032188  3.513082  0.049
N  N322  1  0.88527038  0.12713331  0.02242921  1  -1.204138  0.054125  -0.312006  -0.282474  0.027685  3.536992  0.05
N  N323  1  0.88082528  0.06026132  0.14429452  1  -1.21741  0.060468  -0.311706  -0.264358  0.032191  3.513066  0.049
N  N324  1  0.88526337  0.37286193  0.52241509  1  -1.204934  0.054119  -0.311987  -0.282461  0.027681  3.536537  0.05
N  N325  1  0.88086082  0.43971589  0.64428707  1  -1.21613  0.06046  -0.311583  -0.264396  0.032189  3.513497  0.049
N  N326  1  0.11472873  0.87287054  0.97757229  1  -1.204285  0.054124  -0.312022  -0.282487  0.027685  3.537007  0.05
N  N327  1  0.11917310  0.93973988  0.85570697  1  -1.217338  0.060466  -0.311687  -0.264282  0.03219  3.513027  0.049
O  O328  1  0.38985585  0.82766349  0.64096798  1  -1.156658  0.001078  -0.345684  -0.5775  0.000413  2.324146  0.001
O  O329  1  0.38407148  0.92071181  0.71567832  1  -1.171482  0.001689  -0.33552  -0.552414  0.000732  2.077194  0.001
O  O330  1  0.41557606  0.58318200  0.90927326  1  -1.175698  0.054839  -0.310692  -0.577777  0.028384  2.373684  0.048
O  O331  1  0.37573581  0.66930800  0.98679786  1  -1.162103  0.0027  -0.314655  -0.537977  0.000997  2.342377  0.002
O  O332  1  0.25933777  0.00961911  0.47834588  1  -1.165012  0.068822  -0.31094  -0.563191  0.035393  2.411516  0.057
O  O333  1  0.22900640  0.92803927  0.56339721  1  -1.169942  0.006307  -0.314153  -0.555935  0.002829  2.339704  0.005
O  O334  1  0.34894463  0.15008830  0.86034670  1  -0.992487  -0.004226  -0.227283  -0.323806  -0.00461  2.074752  -0.004
O  O335  1  0.34092511  0.22074872  0.73301059  1  -1.048222  -0.004971  -0.227263  -0.341423  -0.005377  2.121783  -0.004
O  O336  1  0.44589446  0.98098022  0.55579878  1  -1.194659  0.126681  -0.557611  -0.87098  0.068683  2.366503  0.104
O  O337  1  0.61010276  0.32763337  0.85904627  1  -1.157595  0.001078  -0.345835  -0.577539  0.000413  2.323857  0.001
O  O338  1  0.61597676  0.42067695  0.78433991  1  -1.171139  0.001688  -0.335437  -0.552305  0.000732  2.077489  0.001
O  O339  1  0.58440328  0.08318528  0.59070011  1  -1.175743  0.054838  -0.310862  -0.578014  0.028383  2.373395  0.048
O  O340  1  0.62435398  0.16930925  0.51319210  1  -1.162234  0.002697  -0.314612  -0.537869  0.000995  2.342  0.002
O  O341  1  0.74068756  0.50963536  0.02164745  1  -1.16518  0.068833  -0.3109  -0.563012  0.035397  2.411511  0.057
O  O342  1  0.77097494  0.42800175  0.93663411  1  -1.170275  0.006315  -0.314223  -0.556052  0.002833  2.33933  0.005
O  O343  1  0.65097559  0.65009220  0.63967270  1  -0.992229  -0.004215  -0.22726  -0.323682  -0.004599  2.074634  -0.004
O  O344  1  0.65910085  0.72078139  0.76700443  1  -1.048457  -0.004964  -0.227201  -0.341399  -0.005369  2.122147  -0.004
O  O345  1  0.55410831  0.48096854  0.94420199  1  -1.194182  0.12666  -0.557518  -0.870771  0.06867  2.366175  0.104
O  O346  1  0.61014830  0.17232714  0.35901935  1  -1.156399  0.001078  -0.345886  -0.577869  0.000413  2.32443  0.001
O  O347  1  0.61593411  0.07927724  0.28430849  1  -1.172169  0.001689  -0.335528  -0.552451  0.000732  2.077374  0.001
O  O348  1  0.58442737  0.41682238  0.09072404  1  -1.175766  0.054838  -0.310774  -0.577911  0.028384  2.373753  0.048
O  O349  1  0.62426835  0.33069109  0.01320363  1  -1.162449  0.002701  -0.314684  -0.538124  0.000998  2.342304  0.002
O  O350  1  0.74066782  0.99037787  0.52164932  1  -1.164892  0.068816  -0.310906  -0.563255  0.035391  2.411388  0.057
O  O351  1  0.77099919  0.07196299  0.43659903  1  -1.170113  0.006308  -0.31425  -0.556033  0.00283  2.339577  0.005
O  O352  1  0.65104871  0.84991027  0.13965585  1  -0.992467  -0.004232  -0.227317  -0.323881  -0.004616  2.074729  -0.004
O  O353  1  0.65907256  0.77925143  0.26698565  1  -1.048022  -0.004979  -0.227413  -0.341644  -0.005384  2.121668  -0.004
O  O354  1  0.55410392  0.01902363  0.44419485  1  -1.194541  0.126673  -0.557564  -0.870877  0.068676  2.366361  0.104
O  O355  1  0.38987399  0.67236995  0.14095942  1  -1.157433  0.001077  -0.345827  -0.577552  0.000413  2.32384  0.001
O  O356  1  0.38404830  0.57932320  0.21567103  1  -1.171009  0.001689  -0.335483  -0.552421  0.000732  2.07734  0.001
O  O357  1  0.41559366  0.91681593  0.40929981  1  -1.175809  0.054841  -0.310874  -0.57804  0.028384  2.373505  0.048
O  O358  1  0.37564512  0.83069196  0.48680624  1  -1.162268  0.002696  -0.314607  -0.537808  0.000995  2.342067  0.002
O  O359  1  0.25931082  0.49035950  0.97835404  1  -1.165145  0.06883  -0.310891  -0.562955  0.035395  2.411421  0.057
O  O360  1  0.22901912  0.57199417  0.06336319  1  -1.169986  0.006314  -0.31415  -0.556  0.002833  2.339529  0.005
O  O361  1  0.34901630  0.34990847  0.36033457  1  -0.991845  -0.004219  -0.227364  -0.32389  -0.004603  2.074559  -0.004
O  O362  1  0.34089105  0.27922299  0.23299496  1  -1.04839  -0.004969  -0.227176  -0.341296  -0.005374  2.12213  -0.004
O  O363  1  0.44589584  0.51903267  0.05579688  1  -1.194524  0.126656  -0.557544  -0.870821  0.06867  2.366125  0.104
O  O364  1  0.11014686  0.17233317  0.14097209  1  -1.1565  0.001078  -0.345691  -0.577491  0.000413  2.324397  0.001
O  O365  1  0.11592799  0.07928679  0.21568471  1  -1.171821  0.001689  -0.335537  -0.552466  0.000732  2.077238  0.001
O  O366  1  0.08441489  0.41681824  0.40926440  1  -1.175553  0.054848  -0.310697  -0.577787  0.028387  2.37375  0.048
O  O367  1  0.12426196  0.33069787  0.48679362  1  -1.162067  0.0027  -0.314717  -0.5381  0.000997  2.342319  0.002
O  O368  1  0.24067165  0.99037515  0.97835037  1  -1.164921  0.068812  -0.310879  -0.563204  0.035388  2.411505  0.057
O  O369  1  0.27099525  0.07196446  0.06339878  1  -1.170008  0.006307  -0.314258  -0.556047  0.00283  2.339659  0.005
O  O370  1  0.15104845  0.84990413  0.36034522  1  -0.992141  -0.00423  -0.227354  -0.324028  -0.004615  2.074296  -0.004
O  O371  1  0.15906403  0.77924825  0.23302129  1  -1.047537  -0.004978  -0.227423  -0.34154  -0.005383  2.121706  -0.004
O  O372  1  0.05410730  0.01902405  0.05580788  1  -1.194624  0.126666  -0.557591  -0.870895  0.068673  2.366427  0.104
O  O373  1  0.88989347  0.67236868  0.35904236  1  -1.157535  0.001078  -0.345792  -0.577486  0.000413  2.323723  0.001
O  O374  1  0.88404216  0.57932528  0.28433207  1  -1.170946  0.001688  -0.335442  -0.552341  0.000732  2.077403  0.001
O  O375  1  0.91557875  0.91681636  0.09069280  1  -1.17583  0.054841  -0.311039  -0.578285  0.028387  2.373572  0.048
O  O376  1  0.87564790  0.83069153  0.01319055  1  -1.162357  0.002698  -0.314579  -0.537882  0.000996  2.342151  0.002
O  O377  1  0.75931276  0.49036751  0.52164775  1  -1.165265  0.068823  -0.310896  -0.562998  0.035392  2.41147  0.057
O  O378  1  0.72902595  0.57199535  0.43663165  1  -1.170256  0.006314  -0.314278  -0.556142  0.002833  2.33928  0.005
O  O379  1  0.84901367  0.34990668  0.13967091  1  -0.992227  -0.004223  -0.227256  -0.323731  -0.004607  2.074585  -0.004
O  O380  1  0.84090606  0.27921506  0.26700078  1  -1.048104  -0.004972  -0.227298  -0.341591  -0.005377  2.121911  -0.004
O  O381  1  0.94589679  0.51903436  0.44419854  1  -1.194547  0.12666  -0.557545  -0.870779  0.06867  2.366126  0.104
O  O382  1  0.88985297  0.82766962  0.85902888  1  -1.156455  0.001078  -0.345665  -0.577484  0.000413  2.324351  0.001
O  O383  1  0.88406751  0.92071548  0.78431521  1  -1.171924  0.001688  -0.335583  -0.552528  0.000732  2.077338  0.001
O  O384  1  0.91558278  0.58318297  0.59073028  1  -1.175814  0.054832  -0.310675  -0.577791  0.02838  2.373597  0.048
O  O385  1  0.87573642  0.66930810  0.51320368  1  -1.162175  0.002699  -0.314773  -0.538195  0.000996  2.342183  0.002
O  O386  1  0.75933394  0.00962606  0.02164483  1  -1.164976  0.068821  -0.310841  -0.563148  0.035392  2.411476  0.057
O  O387  1  0.72900241  0.92803464  0.93660272  1  -1.170075  0.006308  -0.31426  -0.556005  0.00283  2.339682  0.005
O  O388  1  0.84893190  0.15008597  0.63965785  1  -0.992646  -0.004227  -0.227292  -0.323776  -0.00461  2.07468  -0.004
O  O389  1  0.84092210  0.22074873  0.76698283  1  -1.047915  -0.004975  -0.227429  -0.341651  -0.005381  2.121452  -0.004
O  O390  1  0.94589397  0.98097662  0.94419519  1  -1.194644  0.126665  -0.557613  -0.870842  0.068671  2.366458  0.104
O  O391  1  0.11010924  0.32763306  0.64096018  1  -1.157504  0.001078  -0.345759  -0.577435  0.000413  2.323739  0.001
O  O392  1  0.11595839  0.42067593  0.71567100  1  -1.170992  0.001689  -0.335499  -0.552388  0.000732  2.07728  0.001
O  O393  1  0.08442180  0.08319119  0.90930764  1  -1.175392  0.054832  -0.311024  -0.578386  0.028381  2.373686  0.048
O  O394  1  0.12434760  0.16931497  0.98681042  1  -1.162494  0.002698  -0.314531  -0.537815  0.000996  2.342219  0.002
O  O395  1  0.24069428  0.50962788  0.47834798  1  -1.16516  0.068822  -0.310874  -0.562936  0.035391  2.411371  0.057
O  O396  1  0.27097676  0.42800163  0.56336827  1  -1.170213  0.006312  -0.314277  -0.55615  0.002832  2.339354  0.005
O  O397  1  0.15100346  0.65009612  0.86032744  1  -0.992155  -0.004218  -0.227253  -0.323789  -0.004601  2.074671  -0.004
O  O398  1  0.15909737  0.72078720  0.73299914  1  -1.048276  -0.004967  -0.227183  -0.34146  -0.005372  2.121899  -0.004
O  O399  1  0.05411168  0.48096685  0.55579928  1  -1.194271  0.126667  -0.557541  -0.870767  0.068673  2.366287  0.104
