# generated using pymatgen
data_Cu3H28C46N2O13
_symmetry_space_group_name_H-M   'P 1'
_cell_length_a   19.40365189
_cell_length_b   19.40363668
_cell_length_c   33.81649579
_cell_angle_alpha   106.65939369
_cell_angle_beta   106.65938505
_cell_angle_gamma   90.01462871
_symmetry_Int_Tables_number   1
_chemical_formula_structural   Cu3H28C46N2O13
_chemical_formula_sum   'Cu12 H112 C184 N8 O52'
_cell_volume   11638.32865246
_cell_formula_units_Z   4
loop_
 _symmetry_equiv_pos_site_id
 _symmetry_equiv_pos_as_xyz
  1  'x, y, z'
loop_
 _atom_site_type_symbol
 _atom_site_label
 _atom_site_symmetry_multiplicity
 _atom_site_fract_x
 _atom_site_fract_y
 _atom_site_fract_z
 _atom_site_occupancy
 _atom_site_pbe_bader_charge
 _atom_site_pbe_bader_spin_density
 _atom_site_pbe_cm5_charge
 _atom_site_pbe_ddec_charge
 _atom_site_pbe_ddec_spin_density
 _atom_site_pbe_ddec_sum_bond_order
 _atom_site_pbe_magmom
Cu  Cu0  1  0.93701349  0.00206507  0.00420776  1  1.076664  0.578934  0.684746  0.765964  0.736633  2.415648  0.58
Cu  Cu1  1  0.00211132  0.56719145  0.50420908  1  1.073052  0.579065  0.6854  0.766369  0.736546  2.418303  0.58
Cu  Cu2  1  0.06299328  0.99793393  0.99579106  1  1.07827  0.579023  0.684733  0.76579  0.736653  2.415721  0.58
Cu  Cu3  1  0.56719284  0.00211267  0.00420857  1  1.074972  0.579154  0.685416  0.766462  0.736569  2.417905  0.58
Cu  Cu4  1  0.99793243  0.06299220  0.49579148  1  1.078464  0.579018  0.68477  0.765927  0.736648  2.415645  0.58
Cu  Cu5  1  0.99788810  0.43280672  0.49579103  1  1.07494  0.579145  0.685434  0.766429  0.736555  2.418057  0.58
Cu  Cu6  1  0.00206432  0.93701154  0.50420813  1  1.076669  0.578947  0.684767  0.765864  0.736645  2.415851  0.58
Cu  Cu7  1  0.43280826  0.99788741  0.99579052  1  1.073041  0.579053  0.685352  0.76634  0.736533  2.41834  0.58
Cu  Cu8  1  0.64532834  0.39531967  0.79070920  1  1.077085  0.57424  0.682859  0.868866  0.733152  2.280895  0.575
Cu  Cu9  1  0.39531760  0.64532727  0.29070721  1  1.077143  0.574247  0.682891  0.86877  0.73315  2.280945  0.575
Cu  Cu10  1  0.35466918  0.60467939  0.20928686  1  1.110178  0.57539  0.68279  0.868924  0.733147  2.280824  0.575
Cu  Cu11  1  0.60467882  0.35466968  0.70928829  1  1.110233  0.5754  0.682869  0.86892  0.733151  2.280731  0.575
H  H12  1  0.65168113  0.44202785  0.88394695  1  0.623863  -0.000261  0.333954  0.409979  -0.000268  0.870003  0.0
H  H13  1  0.44202202  0.73222575  0.38393138  1  0.607716  -0.00027  0.334256  0.410339  -0.000268  0.869202  0.0
H  H14  1  0.34831917  0.55797306  0.11605458  1  0.623908  -0.000262  0.333912  0.409963  -0.000268  0.870022  0.0
H  H15  1  0.73222698  0.44202563  0.88393133  1  0.607703  -0.00027  0.334257  0.410377  -0.000268  0.869158  0.0
H  H16  1  0.55797498  0.34831989  0.61605292  1  0.623842  -0.000262  0.333996  0.409965  -0.000268  0.870018  0.0
H  H17  1  0.55797795  0.26777403  0.61606929  1  0.607732  -0.00027  0.334261  0.410353  -0.000268  0.869183  0.0
H  H18  1  0.44202453  0.65168155  0.38394782  1  0.623834  -0.000261  0.333918  0.409902  -0.000268  0.870094  0.0
H  H19  1  0.26777194  0.55797591  0.11606989  1  0.607696  -0.00027  0.33425  0.410359  -0.000268  0.869174  0.0
H  H20  1  0.91386608  0.66381961  0.74995770  1  0.078919  -7e-06  0.102013  0.101805  -7e-06  1.014749  0.0
H  H21  1  0.66378946  0.33621183  0.25000035  1  0.073935  -7e-06  0.101934  0.100416  -7e-06  1.016095  0.0
H  H22  1  0.08620622  0.91379301  0.25000045  1  0.074083  -7e-06  0.102099  0.101041  -7e-06  1.015534  0.0
H  H23  1  0.33618136  0.08613469  0.75004333  1  0.078941  -7e-06  0.10202  0.101795  -7e-06  1.014671  0.0
H  H24  1  0.08613552  0.33618277  0.25004352  1  0.078968  -7e-06  0.102031  0.101794  -7e-06  1.014672  0.0
H  H25  1  0.33620998  0.66379020  0.75000086  1  0.073875  -7e-06  0.101977  0.100515  -7e-06  1.015988  0.0
H  H26  1  0.91379199  0.08620697  0.75000061  1  0.073937  -7e-06  0.102044  0.100964  -7e-06  1.015512  0.0
H  H27  1  0.66382105  0.91386714  0.24995868  1  0.079026  -7e-06  0.101992  0.10176  -7e-06  1.014759  0.0
H  H28  1  0.78746964  0.58357244  0.81622565  1  0.088184  0.000392  0.106224  0.114009  0.000313  1.007344  0.0
H  H29  1  0.58348720  0.52881752  0.31618186  1  0.10533  0.00039  0.106312  0.113795  0.000312  1.006506  0.0
H  H30  1  0.21259929  0.76726631  0.18380213  1  0.10184  0.000392  0.106373  0.114115  0.000313  1.008425  0.0
H  H31  1  0.52881159  0.23267493  0.81614567  1  0.09789  0.000396  0.10613  0.113983  0.000312  1.007272  0.0
H  H32  1  0.41643218  0.21252931  0.68377514  1  0.088221  0.000392  0.106168  0.113994  0.000313  1.007336  0.0
H  H33  1  0.76732527  0.47118861  0.68385556  1  0.097928  0.000396  0.10605  0.113873  0.000312  1.007371  0.0
H  H34  1  0.23272987  0.78739898  0.31619899  1  0.101748  0.000392  0.106355  0.114053  0.000313  1.008495  0.0
H  H35  1  0.47118135  0.41651001  0.18381687  1  0.105452  0.000391  0.10631  0.113768  0.000313  1.006484  0.0
H  H36  1  0.21253099  0.41643497  0.18377674  1  0.088278  0.000392  0.106197  0.114016  0.000313  1.007325  0.0
H  H37  1  0.41651035  0.47118295  0.68381800  1  0.105504  0.000391  0.106271  0.113725  0.000312  1.006567  0.0
H  H38  1  0.78739714  0.23273103  0.81619769  1  0.101769  0.000392  0.106337  0.114057  0.000313  1.008463  0.0
H  H39  1  0.47119072  0.76732636  0.18385625  1  0.097779  0.000396  0.106027  0.113821  0.000312  1.007261  0.0
H  H40  1  0.58357143  0.78747071  0.31622592  1  0.08818  0.000392  0.106169  0.113937  0.000313  1.0074  0.0
H  H41  1  0.23267445  0.52881248  0.31614754  1  0.09782  0.000396  0.106099  0.11393  0.000312  1.007228  0.0
H  H42  1  0.76726869  0.21260031  0.68380080  1  0.101719  0.000392  0.106356  0.114116  0.000313  1.008471  0.0
H  H43  1  0.52881721  0.58348928  0.81618292  1  0.105487  0.00039  0.106291  0.113738  0.000312  1.006538  0.0
H  H44  1  0.78069839  0.70688798  0.84036502  1  0.060717  0.000266  0.101906  0.102385  0.000125  1.002047  0.0
H  H45  1  0.70683640  0.55983733  0.34040236  1  0.071478  0.000265  0.101946  0.102402  0.000125  1.001758  0.0
H  H46  1  0.21933138  0.86637763  0.15960474  1  0.068579  0.000265  0.102233  0.102458  0.000125  1.002247  0.0
H  H47  1  0.55980599  0.13354675  0.84044795  1  0.058823  0.000266  0.101811  0.101808  0.000125  1.002405  0.0
H  H48  1  0.29311181  0.21930336  0.65963542  1  0.060692  0.000266  0.101911  0.102375  0.000125  1.002015  0.0
H  H49  1  0.86645245  0.44019377  0.65955280  1  0.058883  0.000266  0.101808  0.101773  0.000125  1.002394  0.0
H  H50  1  0.13361934  0.78066909  0.34039731  1  0.068568  0.000265  0.102214  0.10244  0.000125  1.002299  0.0
H  H51  1  0.44016235  0.29316385  0.15959744  1  0.071524  0.000265  0.101958  0.102434  0.000125  1.001698  0.0
H  H52  1  0.21930369  0.29311547  0.15963667  1  0.060582  0.000266  0.101936  0.102407  0.000125  1.002039  0.0
H  H53  1  0.29316425  0.44016289  0.65959791  1  0.071486  0.000265  0.10194  0.102409  0.000125  1.001732  0.0
H  H54  1  0.78066993  0.13361946  0.84039726  1  0.068591  0.000265  0.102216  0.102432  0.000125  1.002364  0.0
H  H55  1  0.44019443  0.86645299  0.15955262  1  0.058864  0.000266  0.101834  0.101861  0.000125  1.002347  0.0
H  H56  1  0.70688672  0.78069754  0.34036434  1  0.060676  0.000266  0.101919  0.102379  0.000125  1.002125  0.0
H  H57  1  0.13354625  0.55980557  0.34044767  1  0.058784  0.000266  0.101824  0.101826  0.000125  1.002399  0.0
H  H58  1  0.86637780  0.21932990  0.65960376  1  0.06842  0.000265  0.102225  0.102401  0.000125  1.002299  0.0
H  H59  1  0.55983807  0.70683579  0.84040205  1  0.071465  0.000265  0.101941  0.102403  0.000125  1.001717  0.0
H  H60  1  0.82803839  0.81189836  0.90630420  1  0.098817  0.000376  0.104587  0.109832  0.000304  0.999315  0.0
H  H61  1  0.81192253  0.57836987  0.40631906  1  0.107973  0.000377  0.104042  0.109068  0.000304  0.999765  0.0
H  H62  1  0.17199953  0.90560639  0.09370292  1  0.087219  0.00038  0.104383  0.109275  0.000304  1.000023  0.0
H  H63  1  0.57825256  0.09436979  0.90635191  1  0.104335  0.000376  0.104561  0.109727  0.000303  1.000242  0.0
H  H64  1  0.18810061  0.17196226  0.59369651  1  0.098799  0.000376  0.104586  0.109844  0.000304  0.999389  0.0
H  H65  1  0.90562833  0.42174623  0.59364898  1  0.104381  0.000376  0.104565  0.109733  0.000303  1.000286  0.0
H  H66  1  0.09438931  0.82800342  0.40629821  1  0.087045  0.00038  0.104361  0.109281  0.000304  1.000037  0.0
H  H67  1  0.42162994  0.18807585  0.09368053  1  0.107984  0.000377  0.104038  0.10908  0.000304  0.999626  0.0
H  H68  1  0.17196741  0.18810314  0.09369742  1  0.098727  0.000376  0.104584  0.109868  0.000304  0.99934  0.0
H  H69  1  0.18807656  0.42162991  0.59368072  1  0.107952  0.000377  0.104033  0.109049  0.000304  0.999764  0.0
H  H70  1  0.82800571  0.09439084  0.90629869  1  0.087085  0.00038  0.104375  0.109326  0.000304  1.000015  0.0
H  H71  1  0.42174762  0.90562946  0.09364897  1  0.104405  0.000376  0.104566  0.109712  0.000304  1.000235  0.0
H  H72  1  0.81189748  0.82803606  0.40630388  1  0.098777  0.000376  0.104608  0.109881  0.000304  0.999372  0.0
H  H73  1  0.09437067  0.57825311  0.40635179  1  0.104353  0.000376  0.104547  0.109728  0.000304  1.000224  0.0
H  H74  1  0.90560724  0.17199832  0.59370281  1  0.08719  0.00038  0.104375  0.109304  0.000304  1.000076  0.0
H  H75  1  0.57837078  0.81192379  0.90631926  1  0.107935  0.000377  0.104045  0.10907  0.000304  0.999708  0.0
H  H76  1  0.03833871  0.80240801  0.88817217  1  0.058232  0.000432  0.105081  0.11001  0.000325  0.996088  0.0
H  H77  1  0.80234666  0.34992675  0.38811816  1  0.08164  0.000423  0.105004  0.109599  0.000325  0.99682  0.0
H  H78  1  0.96174329  0.91422731  0.11189855  1  0.09921  0.000419  0.105363  0.110134  0.000326  0.996188  0.0
H  H79  1  0.34980317  0.08567682  0.88811739  1  0.086028  0.000423  0.104929  0.109881  0.000325  0.99627  0.0
H  H80  1  0.19759109  0.96165881  0.61182720  1  0.058216  0.000432  0.105058  0.109963  0.000325  0.99606  0.0
H  H81  1  0.91432334  0.65019557  0.61188205  1  0.08603  0.000423  0.104916  0.109879  0.000325  0.9963  0.0
H  H82  1  0.08577172  0.03826011  0.38810094  1  0.099114  0.000419  0.10533  0.110135  0.000326  0.996156  0.0
H  H83  1  0.65007371  0.19765368  0.11188231  1  0.081631  0.000423  0.105012  0.10958  0.000325  0.996824  0.0
H  H84  1  0.96166286  0.19759041  0.11182685  1  0.058124  0.000433  0.105083  0.109998  0.000325  0.996073  0.0
H  H85  1  0.19765468  0.65007401  0.61188278  1  0.081683  0.000423  0.105008  0.109594  0.000326  0.996802  0.0
H  H86  1  0.03826136  0.08577238  0.88809976  1  0.099088  0.000419  0.105283  0.110048  0.000326  0.996193  0.0
H  H87  1  0.65019598  0.91432247  0.11188299  1  0.086006  0.000423  0.10491  0.10985  0.000325  0.996428  0.0
H  H88  1  0.80240962  0.03833818  0.38817312  1  0.058056  0.000432  0.105079  0.10996  0.000325  0.996121  0.0
H  H89  1  0.08567448  0.34980377  0.38811754  1  0.08605  0.000423  0.10489  0.109854  0.000325  0.996325  0.0
H  H90  1  0.91422793  0.96174129  0.61189940  1  0.099143  0.000419  0.105357  0.110163  0.000326  0.996148  0.0
H  H91  1  0.34992771  0.80234762  0.88811873  1  0.081642  0.000423  0.105014  0.109637  0.000326  0.996766  0.0
H  H92  1  0.99206712  0.69648839  0.82248187  1  0.051098  0.000268  0.10123  0.101692  0.000136  1.001252  0.0
H  H93  1  0.69645258  0.33055757  0.32245612  1  0.07469  0.000265  0.101256  0.101916  0.000137  1.001457  0.0
H  H94  1  0.00800618  0.87397015  0.17757445  1  0.042104  0.000269  0.101307  0.101757  0.000136  1.001805  0.0
H  H95  1  0.33051993  0.12592549  0.82244938  1  0.069087  0.000264  0.100903  0.101088  0.000136  1.001369  0.0
H  H96  1  0.30351092  0.00793366  0.67751695  1  0.050698  0.000268  0.101245  0.1017  0.000136  1.001341  0.0
H  H97  1  0.87407439  0.66948171  0.67755085  1  0.069054  0.000264  0.100911  0.101081  0.000136  1.001407  0.0
H  H98  1  0.12602760  0.99199183  0.32242467  1  0.042137  0.000269  0.101317  0.101775  0.000136  1.001766  0.0
H  H99  1  0.66944308  0.30354821  0.17754386  1  0.074666  0.000265  0.101266  0.101925  0.000137  1.001448  0.0
H  H100  1  0.00793247  0.30351076  0.17751734  1  0.051013  0.000268  0.101236  0.101711  0.000136  1.001279  0.0
H  H101  1  0.30354858  0.66944212  0.67754464  1  0.074666  0.000265  0.101271  0.101916  0.000136  1.001452  0.0
H  H102  1  0.99199164  0.12602910  0.82242406  1  0.042096  0.000269  0.101306  0.10176  0.000136  1.001808  0.0
H  H103  1  0.66948034  0.87407419  0.17755050  1  0.069079  0.000264  0.100913  0.101078  0.000136  1.001391  0.0
H  H104  1  0.69649003  0.99206646  0.32248253  1  0.051045  0.000268  0.101238  0.101711  0.000136  1.001311  0.0
H  H105  1  0.12592411  0.33051817  0.32244942  1  0.069051  0.000264  0.100914  0.101113  0.000136  1.00135  0.0
H  H106  1  0.87397102  0.00800687  0.67757464  1  0.042127  0.000268  0.10132  0.101776  0.000136  1.001798  0.0
H  H107  1  0.33055757  0.69645201  0.82245641  1  0.0747  0.000265  0.101275  0.10192  0.000137  1.001436  0.0
H  H108  1  0.81966247  0.89709404  0.00764685  1  0.138009  -0.000129  0.130205  0.107881  -0.000115  0.968545  0.0
H  H109  1  0.89706593  0.68788175  0.50764238  1  0.100643  -0.000133  0.130311  0.107951  -0.000115  0.968388  0.0
H  H110  1  0.18033569  0.88947543  0.99236179  1  0.130928  -0.000131  0.129732  0.107637  -0.000115  0.968086  0.0
H  H111  1  0.68787656  0.11050433  0.00761829  1  0.096117  -0.000134  0.130074  0.107574  -0.000115  0.968956  0.0
H  H112  1  0.10290394  0.18033825  0.49235268  1  0.138023  -0.00013  0.130196  0.107832  -0.000115  0.968449  0.0
H  H113  1  0.88949504  0.31212453  0.49238207  1  0.096126  -0.000134  0.130133  0.107707  -0.000115  0.968955  0.0
H  H114  1  0.11052389  0.81966479  0.50763790  1  0.130963  -0.000131  0.129755  0.107685  -0.000115  0.968103  0.0
H  H115  1  0.31211940  0.10293338  0.99235723  1  0.100635  -0.000133  0.130312  0.107956  -0.000115  0.968353  0.0
H  H116  1  0.18033860  0.10290501  0.99235275  1  0.138052  -0.00013  0.130177  0.107852  -0.000115  0.968452  0.0
H  H117  1  0.10293254  0.31211975  0.49235786  1  0.100669  -0.000133  0.1303  0.107958  -0.000115  0.968337  0.0
H  H118  1  0.81966512  0.11052475  0.00763808  1  0.130905  -0.000131  0.12974  0.107661  -0.000115  0.968102  0.0
H  H119  1  0.31212445  0.88949531  0.99238179  1  0.096131  -0.000134  0.130159  0.107786  -0.000115  0.968961  0.0
H  H120  1  0.89709414  0.81966271  0.50764717  1  0.137998  -0.00013  0.13019  0.107856  -0.000115  0.968442  0.0
H  H121  1  0.11050266  0.68787589  0.50761741  1  0.096183  -0.000134  0.130117  0.107685  -0.000115  0.968924  0.0
H  H122  1  0.88947491  0.18033499  0.49236159  1  0.130907  -0.000131  0.129729  0.107642  -0.000115  0.968099  0.0
H  H123  1  0.68788229  0.89706670  0.00764245  1  0.100663  -0.000133  0.130319  0.107951  -0.000115  0.96834  0.0
C  C124  1  0.87410918  0.62405864  0.74997327  1  -0.077617  -0.000825  -0.08249  -0.168602  -0.000943  3.919447  -0.001
C  C125  1  0.62403367  0.37596654  0.25000001  1  -0.024741  -0.000824  -0.081871  -0.164389  -0.000945  3.920364  -0.001
C  C126  1  0.12596290  0.87403820  0.25000059  1  -0.083491  -0.000833  -0.082369  -0.166639  -0.000951  3.920384  -0.001
C  C127  1  0.37594301  0.12589082  0.75002657  1  -0.078172  -0.000825  -0.082474  -0.168619  -0.000943  3.919462  -0.001
C  C128  1  0.12589109  0.37594378  0.25002715  1  -0.078196  -0.000825  -0.082529  -0.1686  -0.000943  3.91951  -0.001
C  C129  1  0.37596536  0.62403382  0.75000025  1  -0.024745  -0.000825  -0.081922  -0.164556  -0.000945  3.920419  -0.001
C  C130  1  0.87403617  0.12596329  0.75000024  1  -0.083293  -0.000833  -0.082338  -0.166568  -0.000951  3.920235  -0.001
C  C131  1  0.62405827  0.87411043  0.24997378  1  -0.078349  -0.000825  -0.082448  -0.168483  -0.000943  3.91952  -0.001
C  C132  1  0.85338743  0.63224389  0.78746751  1  0.028284  0.001086  -0.00757  0.068421  0.000649  4.025292  0.001
C  C133  1  0.63218621  0.43420240  0.28746970  1  0.006531  0.001077  -0.007591  0.0666  0.000647  4.030123  0.001
C  C134  1  0.14666893  0.84464670  0.21251980  1  0.041026  0.001079  -0.007121  0.068686  0.000648  4.028524  0.001
C  C135  1  0.43419223  0.15522453  0.78747876  1  -0.008775  0.001086  -0.008087  0.068168  0.000647  4.028587  0.001
C  C136  1  0.36775748  0.14661228  0.71253236  1  0.028212  0.001086  -0.007578  0.068511  0.000649  4.025454  0.001
C  C137  1  0.84477457  0.56581010  0.71252189  1  -0.00928  0.001086  -0.008127  0.068079  0.000647  4.028589  0.001
C  C138  1  0.15535272  0.85332982  0.28747927  1  0.04111  0.001079  -0.007111  0.06861  0.000647  4.028558  0.001
C  C139  1  0.56579777  0.36781077  0.21252820  1  0.006556  0.001078  -0.007627  0.066488  0.000648  4.030112  0.001
C  C140  1  0.14661364  0.36775799  0.21253371  1  0.028363  0.001086  -0.007568  0.068491  0.000649  4.025682  0.001
C  C141  1  0.36781172  0.56579851  0.71252947  1  0.006482  0.001078  -0.007577  0.066613  0.000648  4.030078  0.001
C  C142  1  0.85332942  0.15535313  0.78747978  1  0.041064  0.001079  -0.00714  0.068628  0.000648  4.028411  0.001
C  C143  1  0.56581103  0.84477609  0.21252248  1  -0.008743  0.001087  -0.008149  0.068012  0.000647  4.028792  0.001
C  C144  1  0.63224279  0.85338740  0.28746753  1  0.028381  0.001086  -0.007613  0.068296  0.000648  4.025415  0.001
C  C145  1  0.15522481  0.43419252  0.28747981  1  -0.00888  0.001086  -0.008074  0.068076  0.000647  4.028659  0.001
C  C146  1  0.84464640  0.14666825  0.71251946  1  0.040963  0.001079  -0.007168  0.06855  0.000648  4.028521  0.001
C  C147  1  0.43420286  0.63218823  0.78747042  1  0.006501  0.001078  -0.007628  0.066604  0.000648  4.030093  0.001
C  C148  1  0.93609697  0.81340074  0.90136915  1  -0.033362  0.016683  -0.019181  -0.031225  0.011758  3.96829  0.013
C  C149  1  0.81341278  0.46537023  0.40134844  1  -0.007678  0.016569  -0.019701  -0.032236  0.011773  3.968744  0.013
C  C150  1  0.06396130  0.91201653  0.09866196  1  -0.070775  0.016727  -0.019621  -0.032779  0.011767  3.968798  0.013
C  C151  1  0.46524861  0.08792412  0.90137882  1  -0.016448  0.016589  -0.019797  -0.032151  0.011727  3.97056  0.013
C  C152  1  0.18659845  0.06390228  0.59863128  1  -0.033064  0.016683  -0.019175  -0.031079  0.011758  3.968238  0.013
C  C153  1  0.91207624  0.53474994  0.59862166  1  -0.016662  0.01659  -0.01981  -0.032171  0.011728  3.970683  0.013
C  C154  1  0.08798055  0.93604184  0.40133732  1  -0.070715  0.016727  -0.019565  -0.032795  0.011768  3.968634  0.013
C  C155  1  0.53462890  0.18658700  0.09865199  1  -0.007114  0.016567  -0.019688  -0.032114  0.011772  3.968616  0.013
C  C156  1  0.06390590  0.18659933  0.09863172  1  -0.033097  0.016682  -0.019188  -0.030967  0.011758  3.968071  0.013
C  C157  1  0.18658778  0.53463219  0.59865228  1  -0.007972  0.016568  -0.019741  -0.03227  0.011772  3.968763  0.013
C  C158  1  0.93604346  0.08798218  0.90133755  1  -0.070681  0.016727  -0.019556  -0.032714  0.011768  3.968554  0.013
C  C159  1  0.53474877  0.91207811  0.09862249  1  -0.01666  0.016592  -0.019803  -0.032142  0.011729  3.970572  0.013
C  C160  1  0.81340064  0.93609486  0.40136904  1  -0.03339  0.016683  -0.01922  -0.031128  0.011758  3.968269  0.013
C  C161  1  0.08792249  0.46525043  0.40137830  1  -0.01671  0.01659  -0.01983  -0.032166  0.011728  3.970689  0.013
C  C162  1  0.91201559  0.06395814  0.59866167  1  -0.07071  0.016727  -0.019517  -0.032708  0.011768  3.968723  0.013
C  C163  1  0.46536931  0.81341288  0.90134798  1  -0.007921  0.016568  -0.019755  -0.032344  0.011771  3.968845  0.013
C  C164  1  0.88294895  0.69426929  0.82666502  1  -0.045148  -0.001182  -0.003019  0.078788  -0.001356  3.997142  -0.001
C  C165  1  0.69420690  0.44389091  0.32667520  1  -0.032181  -0.001178  -0.002822  0.079537  -0.001354  3.998728  -0.001
C  C166  1  0.11708610  0.86740796  0.17330909  1  -0.078784  -0.001179  -0.003387  0.079128  -0.001354  3.997592  -0.001
C  C167  1  0.44385188  0.13245067  0.82669920  1  -0.085628  -0.001184  -0.003243  0.07838  -0.001358  3.998246  -0.001
C  C168  1  0.30573041  0.11705329  0.67333486  1  -0.045485  -0.001182  -0.00302  0.078757  -0.001356  3.997018  -0.001
C  C169  1  0.86755001  0.55614879  0.67330124  1  -0.085455  -0.001184  -0.003135  0.078294  -0.001358  3.998411  -0.001
C  C170  1  0.13259073  0.88291361  0.32669088  1  -0.078743  -0.001179  -0.003474  0.079034  -0.001354  3.997508  -0.001
C  C171  1  0.55611023  0.30579201  0.17332526  1  -0.031935  -0.001178  -0.002801  0.079645  -0.001354  3.99858  -0.001
C  C172  1  0.11705380  0.30573186  0.17333573  1  -0.044211  -0.001182  -0.003104  0.078643  -0.001356  3.997026  -0.001
C  C173  1  0.30579299  0.55610833  0.67332538  1  -0.031903  -0.001178  -0.002788  0.079575  -0.001354  3.998817  -0.001
C  C174  1  0.88291388  0.13259182  0.82669158  1  -0.078668  -0.001179  -0.003449  0.079119  -0.001354  3.997526  -0.001
C  C175  1  0.55615087  0.86755048  0.17330154  1  -0.085531  -0.001184  -0.003082  0.078442  -0.001358  3.998459  -0.001
C  C176  1  0.69426954  0.88294801  0.32666470  1  -0.04516  -0.001182  -0.002987  0.078857  -0.001356  3.997133  -0.001
C  C177  1  0.13245097  0.44384991  0.32670044  1  -0.085147  -0.001184  -0.003113  0.078464  -0.001358  3.998234  -0.001
C  C178  1  0.86740670  0.11708519  0.67330833  1  -0.078715  -0.001179  -0.00336  0.079261  -0.001354  3.997571  -0.001
C  C179  1  0.44389143  0.69420703  0.82667493  1  -0.031714  -0.001178  -0.002802  0.079552  -0.001354  3.998768  -0.001
C  C180  1  0.96246831  0.87889620  0.93968805  1  1.541176  -0.00144  0.211015  0.577233  -0.001893  4.161216  -0.004
C  C181  1  0.87889130  0.47723886  0.43966790  1  1.519788  -0.0013  0.211105  0.576875  -0.001898  4.1615  -0.004
C  C182  1  0.03757907  0.93924603  0.06035523  1  1.538588  -0.001452  0.210607  0.57659  -0.001901  4.161827  -0.004
C  C183  1  0.47717570  0.06071251  0.93968060  1  1.531996  -0.001375  0.21274  0.579678  -0.001888  4.158138  -0.004
C  C184  1  0.12110261  0.03753757  0.56031130  1  1.541014  -0.001441  0.210922  0.576879  -0.001893  4.161365  -0.004
C  C185  1  0.93928890  0.52282230  0.56031946  1  1.532  -0.001374  0.21263  0.579497  -0.001887  4.158488  -0.004
C  C186  1  0.06075005  0.96243138  0.43964378  1  1.538889  -0.00145  0.21053  0.576621  -0.001901  4.161594  -0.004
C  C187  1  0.52276214  0.12110965  0.06033290  1  1.51971  -0.0013  0.211128  0.57691  -0.001898  4.161763  -0.004
C  C188  1  0.03754169  0.12110423  0.06031183  1  1.540765  -0.00144  0.210874  0.576807  -0.001892  4.161193  -0.004
C  C189  1  0.12110856  0.52275398  0.56033319  1  1.519585  -0.001301  0.211185  0.576987  -0.001899  4.161582  -0.004
C  C190  1  0.96243388  0.06075137  0.93964382  1  1.53888  -0.001451  0.210492  0.576566  -0.001901  4.161759  -0.004
C  C191  1  0.52283072  0.93928992  0.06032002  1  1.532518  -0.001373  0.212735  0.579704  -0.001887  4.158348  -0.004
C  C192  1  0.87889598  0.96246548  0.43968852  1  1.540875  -0.001441  0.210891  0.576936  -0.001893  4.16134  -0.004
C  C193  1  0.06071022  0.47717049  0.43968035  1  1.532196  -0.001373  0.212723  0.579734  -0.001888  4.158286  -0.004
C  C194  1  0.93924576  0.03757559  0.56035488  1  1.538486  -0.001452  0.21056  0.576527  -0.001901  4.161475  -0.004
C  C195  1  0.47724750  0.87889136  0.93966716  1  1.519581  -0.001301  0.211201  0.577067  -0.001899  4.161413  -0.004
C  C196  1  0.77263930  0.52258253  0.75005920  1  -0.034552  0.016554  -0.017735  -0.011399  0.011602  3.996497  0.013
C  C197  1  0.52254334  0.47745177  0.24999832  1  -0.038834  0.01652  -0.01705  -0.012591  0.011591  3.995904  0.013
C  C198  1  0.22745889  0.77253821  0.24999932  1  -0.040709  0.016517  -0.017369  -0.012094  0.011597  3.998816  0.013
C  C199  1  0.47741901  0.22735778  0.74994081  1  -0.03439  0.016555  -0.017722  -0.011214  0.011603  3.996397  0.013
C  C200  1  0.22735781  0.47742072  0.24994130  1  -0.034293  0.016555  -0.017742  -0.011405  0.011603  3.996353  0.013
C  C201  1  0.47745323  0.52254542  0.75000003  1  -0.038738  0.016522  -0.016964  -0.01254  0.011592  3.995946  0.013
C  C202  1  0.77253830  0.22746001  0.74999911  1  -0.040646  0.016515  -0.017396  -0.012  0.011596  3.998813  0.013
C  C203  1  0.52258250  0.77263848  0.25005815  1  -0.034574  0.016553  -0.017794  -0.011387  0.011601  3.99645  0.013
C  C204  1  0.80300249  0.58022657  0.78727090  1  -0.041175  0.000555  -0.080623  -0.140617  0.000134  3.923849  0.0
C  C205  1  0.58014776  0.48434041  0.28723670  1  -0.068518  0.000561  -0.080975  -0.139643  0.000133  3.923286  0.0
C  C206  1  0.19708691  0.79288977  0.21275503  1  -0.064062  0.000569  -0.080577  -0.140456  0.000131  3.925696  0.0
C  C207  1  0.48433766  0.20700634  0.78720454  1  -0.041394  0.000555  -0.079685  -0.140086  0.000134  3.924381  0.0
C  C208  1  0.41977549  0.19699446  0.71272902  1  -0.041033  0.000555  -0.080625  -0.140768  0.000135  3.923977  0.0
C  C209  1  0.79299351  0.51566416  0.71279564  1  -0.041172  0.000555  -0.079636  -0.139871  0.000134  3.924277  0.0
C  C210  1  0.20710849  0.80290838  0.28724582  1  -0.064511  0.000569  -0.080582  -0.140357  0.000131  3.925503  0.0
C  C211  1  0.51566052  0.41984770  0.21276125  1  -0.068651  0.000562  -0.080863  -0.139367  0.000134  3.922984  0.0
C  C212  1  0.19699392  0.41977512  0.21272943  1  -0.041213  0.000555  -0.080574  -0.140594  0.000135  3.923977  0.0
C  C213  1  0.41984920  0.51566006  0.71276258  1  -0.068664  0.000561  -0.080916  -0.13948  0.000134  3.923205  0.0
C  C214  1  0.80290907  0.20711035  0.78724543  1  -0.064548  0.000569  -0.080489  -0.140343  0.000131  3.925472  0.0
C  C215  1  0.51566589  0.79299417  0.21279592  1  -0.041012  0.000555  -0.079553  -0.139751  0.000134  3.924185  0.0
C  C216  1  0.58022546  0.80300302  0.28727100  1  -0.041167  0.000554  -0.080549  -0.140529  0.000134  3.923811  0.0
C  C217  1  0.20700621  0.48433949  0.28720585  1  -0.041326  0.000555  -0.079707  -0.14  0.000133  3.924204  0.0
C  C218  1  0.79288895  0.19708778  0.71275393  1  -0.063973  0.000569  -0.080514  -0.140457  0.000131  3.925673  0.0
C  C219  1  0.48433969  0.58014974  0.78723749  1  -0.068659  0.000561  -0.080926  -0.139496  0.000133  3.923263  0.0
C  C220  1  0.83756750  0.72696814  0.85113780  1  -0.087847  0.001194  -0.091579  -0.137305  0.000685  3.990832  0.001
C  C221  1  0.72691387  0.51373556  0.35116529  1  -0.109904  0.001189  -0.09201  -0.13804  0.000684  3.990615  0.001
C  C222  1  0.16245646  0.87564937  0.14882598  1  -0.043173  0.001193  -0.092265  -0.138359  0.000685  3.990511  0.001
C  C223  1  0.51367903  0.12422764  0.85119695  1  -0.018058  0.001188  -0.091057  -0.135992  0.000685  3.98956  0.001
C  C224  1  0.27303156  0.16243256  0.64886225  1  -0.087516  0.001194  -0.091575  -0.137227  0.000685  3.990813  0.001
C  C225  1  0.87577321  0.48632175  0.64880414  1  -0.018151  0.001188  -0.091027  -0.135782  0.000685  3.989646  0.001
C  C226  1  0.12434893  0.83754504  0.35117567  1  -0.04321  0.001193  -0.092277  -0.138384  0.000685  3.990495  0.001
C  C227  1  0.48626445  0.27308416  0.14883457  1  -0.109961  0.001189  -0.092007  -0.138078  0.000684  3.990643  0.001
C  C228  1  0.16243389  0.27303477  0.14886320  1  -0.089272  0.001194  -0.091654  -0.137339  0.000685  3.990895  0.001
C  C229  1  0.27308622  0.48626579  0.64883495  1  -0.109894  0.001189  -0.092045  -0.138127  0.000684  3.990778  0.001
C  C230  1  0.83754470  0.12434768  0.85117533  1  -0.043227  0.001193  -0.092261  -0.138376  0.000686  3.990616  0.001
C  C231  1  0.48632148  0.87577263  0.14880371  1  -0.018085  0.001188  -0.091062  -0.135979  0.000685  3.989522  0.001
C  C232  1  0.72696735  0.83756615  0.35113735  1  -0.087861  0.001194  -0.091575  -0.13723  0.000685  3.990794  0.001
C  C233  1  0.12422754  0.51367910  0.35119729  1  -0.017974  0.001188  -0.091059  -0.135959  0.000685  3.989446  0.001
C  C234  1  0.87564741  0.16245449  0.64882461  1  -0.042947  0.001193  -0.092287  -0.138277  0.000685  3.990523  0.001
C  C235  1  0.51373520  0.72691449  0.85116523  1  -0.109885  0.001189  -0.092027  -0.138078  0.000684  3.99067  0.001
C  C236  1  0.86362779  0.78574532  0.88791196  1  -0.043261  0.000483  -0.085336  -0.08696  7.9e-05  3.990158  0.0
C  C237  1  0.78575710  0.52440400  0.38791241  1  -0.047724  0.000471  -0.084008  -0.084811  7e-05  3.989328  0.0
C  C238  1  0.13641932  0.89778101  0.11208956  1  -0.005398  0.000443  -0.084369  -0.08494  7.5e-05  3.989073  0.0
C  C239  1  0.52429482  0.10215879  0.88795252  1  -0.050674  0.000482  -0.085342  -0.087175  7.7e-05  3.990389  0.0
C  C240  1  0.21425390  0.13637423  0.61208854  1  -0.043263  0.000482  -0.085347  -0.08708  7.9e-05  3.990123  0.0
C  C241  1  0.89784232  0.47570544  0.61204915  1  -0.050633  0.000482  -0.085387  -0.08728  7.8e-05  3.990603  0.0
C  C242  1  0.10221670  0.86358463  0.38791167  1  -0.005031  0.000444  -0.084387  -0.08497  7.5e-05  3.989221  0.0
C  C243  1  0.47559705  0.21424551  0.11208787  1  -0.0478  0.000472  -0.083983  -0.084837  7e-05  3.989259  0.0
C  C244  1  0.13637727  0.21425623  0.11208946  1  -0.042651  0.000482  -0.085286  -0.087065  7.8e-05  3.989985  0.0
C  C245  1  0.21424396  0.47559505  0.61208719  1  -0.047394  0.00047  -0.083954  -0.084732  6.9e-05  3.989233  0.0
C  C246  1  0.86358615  0.10221672  0.88791174  1  -0.00502  0.000444  -0.084422  -0.085084  7.5e-05  3.989219  0.0
C  C247  1  0.47570820  0.89784133  0.11204903  1  -0.05065  0.000483  -0.085422  -0.087238  7.9e-05  3.990603  0.0
C  C248  1  0.78574534  0.86362560  0.38791193  1  -0.043254  0.000483  -0.08535  -0.087103  7.9e-05  3.990039  0.0
C  C249  1  0.10215674  0.52429341  0.38795222  1  -0.050488  0.000483  -0.085358  -0.087206  7.8e-05  3.990444  0.0
C  C250  1  0.89777993  0.13641755  0.61208836  1  -0.005339  0.000443  -0.084468  -0.085155  7.5e-05  3.989229  0.0
C  C251  1  0.52440529  0.78575672  0.88791246  1  -0.047486  0.00047  -0.084033  -0.084831  6.9e-05  3.989275  0.0
C  C252  1  0.98199192  0.78086829  0.87745415  1  0.034362  0.000397  -0.084332  -0.086515  4.2e-05  3.98573  0.0
C  C253  1  0.78081376  0.39558152  0.37742770  1  0.00187  0.000419  -0.08448  -0.085232  4.5e-05  3.985099  0.0
C  C254  1  0.01807179  0.90334489  0.12257950  1  -0.076055  0.000433  -0.08445  -0.086083  4.4e-05  3.987132  0.0
C  C255  1  0.39547103  0.09652762  0.87743468  1  0.010995  0.00042  -0.083793  -0.085695  4.4e-05  3.988231  0.0
C  C256  1  0.21912943  0.01800967  0.62254600  1  0.034057  0.000398  -0.084258  -0.086406  4.2e-05  3.985832  0.0
C  C257  1  0.90347106  0.60452814  0.62256386  1  0.011007  0.00042  -0.083762  -0.085678  4.4e-05  3.988236  0.0
C  C258  1  0.09665435  0.98193206  0.37742008  1  -0.076068  0.000433  -0.084384  -0.086012  4.4e-05  3.986835  0.0
C  C259  1  0.60441931  0.21918563  0.12257189  1  0.001335  0.000418  -0.084481  -0.085243  4.5e-05  3.985095  0.0
C  C260  1  0.01801314  0.21913051  0.12254673  1  0.034402  0.000398  -0.08433  -0.086597  4.2e-05  3.986072  0.0
C  C261  1  0.21918663  0.60441709  0.62257230  1  0.001829  0.000419  -0.084408  -0.085196  4.6e-05  3.985063  0.0
C  C262  1  0.98193345  0.09665480  0.87741940  1  -0.076178  0.000433  -0.084348  -0.085938  4.3e-05  3.986736  0.0
C  C263  1  0.60453081  0.90347241  0.12256460  1  0.010939  0.000419  -0.083778  -0.085742  4.3e-05  3.988189  0.0
C  C264  1  0.78086981  0.98199016  0.37745447  1  0.034588  0.000398  -0.084333  -0.086505  4.2e-05  3.985876  0.0
C  C265  1  0.09652703  0.39547017  0.37743653  1  0.010887  0.000419  -0.083717  -0.085662  4.3e-05  3.988081  0.0
C  C266  1  0.90334379  0.01806831  0.62257930  1  -0.076206  0.000434  -0.084407  -0.086022  4.4e-05  3.986928  0.0
C  C267  1  0.39558341  0.78081440  0.87742828  1  0.001879  0.000419  -0.084427  -0.085223  4.6e-05  3.985082  0.0
C  C268  1  0.71814334  0.46811925  0.75008692  1  1.542345  -0.002038  0.21563  0.582389  -0.002428  4.161437  -0.005
C  C269  1  0.46806499  0.53193166  0.24999944  1  1.541309  -0.001999  0.214953  0.583591  -0.002428  4.159078  -0.005
C  C270  1  0.28193169  0.71806936  0.25000183  1  1.540168  -0.001994  0.213288  0.580813  -0.002421  4.159968  -0.005
C  C271  1  0.53188230  0.28185528  0.74991391  1  1.542353  -0.002037  0.215567  0.582357  -0.002427  4.161518  -0.005
C  C272  1  0.28185531  0.53188624  0.24991620  1  1.541898  -0.002037  0.215608  0.582435  -0.002428  4.161598  -0.005
C  C273  1  0.53193404  0.46806587  0.74999920  1  1.541397  -0.001999  0.214986  0.583629  -0.002428  4.159051  -0.005
C  C274  1  0.71806740  0.28193042  0.74999796  1  1.539714  -0.001995  0.213194  0.580441  -0.002419  4.160443  -0.005
C  C275  1  0.46812019  0.71814435  0.25008765  1  1.542423  -0.002038  0.215542  0.582207  -0.002427  4.161514  -0.005
C  C276  1  0.95566326  0.72208938  0.84052198  1  -0.005358  0.001213  -0.092349  -0.139194  0.000713  3.989699  0.001
C  C277  1  0.72202325  0.38500963  0.34050654  1  -0.026374  0.001219  -0.092243  -0.140541  0.000713  3.990273  0.001
C  C278  1  0.04439110  0.88144167  0.15949578  1  0.066967  0.001192  -0.092575  -0.139864  0.000712  3.991806  0.001
C  C279  1  0.38495415  0.11838240  0.84050755  1  -0.053044  0.001225  -0.092027  -0.138778  0.000711  3.992055  0.001
C  C280  1  0.27790863  0.04433636  0.65947720  1  -0.00486  0.001214  -0.092411  -0.139293  0.000713  3.989719  0.001
C  C281  1  0.88161574  0.61504806  0.65949199  1  -0.053035  0.001225  -0.092071  -0.138721  0.000711  3.991985  0.001
C  C282  1  0.11855862  0.95560807  0.34050441  1  0.066943  0.001192  -0.09255  -0.139825  0.000712  3.991839  0.001
C  C283  1  0.61499178  0.27797568  0.15949311  1  -0.026635  0.001219  -0.092275  -0.140606  0.000713  3.990237  0.001
C  C284  1  0.04433533  0.27790830  0.15947784  1  -0.0051  0.001214  -0.092284  -0.139105  0.000713  3.989583  0.001
C  C285  1  0.27797649  0.61499231  0.65949390  1  -0.02668  0.00122  -0.092312  -0.140551  0.000714  3.990136  0.001
C  C286  1  0.95560879  0.11856021  0.84050426  1  0.067006  0.001192  -0.092559  -0.139883  0.000712  3.991926  0.001
C  C287  1  0.61504520  0.88161626  0.15949196  1  -0.053008  0.001224  -0.092105  -0.138757  0.000711  3.992229  0.001
C  C288  1  0.72209028  0.95566235  0.34052241  1  -0.005229  0.001213  -0.092377  -0.139259  0.000713  3.989781  0.001
C  C289  1  0.11838435  0.38495339  0.34050933  1  -0.053454  0.001224  -0.0921  -0.138842  0.000711  3.991932  0.001
C  C290  1  0.88143873  0.04439019  0.65949471  1  0.066995  0.001192  -0.092594  -0.139927  0.000712  3.99181  0.001
C  C291  1  0.38500900  0.72202346  0.84050727  1  -0.026818  0.00122  -0.092249  -0.140496  0.000714  3.990177  0.001
C  C292  1  0.78973464  0.94471329  0.00770127  1  0.511467  -0.000652  0.063253  0.052412  -0.000707  3.914945  0.0
C  C293  1  0.94470034  0.71786157  0.50770093  1  0.504073  -0.000666  0.063383  0.052651  -0.000716  3.91583  0.0
C  C294  1  0.21026375  0.93704927  0.99230115  1  0.535037  -0.000652  0.06384  0.052513  -0.000708  3.915418  0.0
C  C295  1  0.71785560  0.06294016  0.00768467  1  0.516029  -0.000663  0.063245  0.052836  -0.000715  3.915372  0.0
C  C296  1  0.05528518  0.21026755  0.49229844  1  0.511397  -0.000652  0.063212  0.052469  -0.000707  3.914787  0.0
C  C297  1  0.93705925  0.28214527  0.49231542  1  0.516054  -0.000663  0.063202  0.05271  -0.000715  3.915377  0.0
C  C298  1  0.06294974  0.78973753  0.50769891  1  0.535008  -0.000651  0.063796  0.052402  -0.000708  3.915259  0.0
C  C299  1  0.28213980  0.05529813  0.99229837  1  0.504305  -0.000666  0.063382  0.052622  -0.000716  3.915691  0.0
C  C300  1  0.21026785  0.05528615  0.99229813  1  0.511422  -0.000651  0.063204  0.052407  -0.000707  3.914808  0.0
C  C301  1  0.05529834  0.28213929  0.49229844  1  0.504191  -0.000666  0.063386  0.052618  -0.000716  3.91565  0.0
C  C302  1  0.78973815  0.06295027  0.00769873  1  0.535022  -0.000652  0.06378  0.052384  -0.000708  3.915237  0.0
C  C303  1  0.28214555  0.93705942  0.99231502  1  0.515924  -0.000663  0.063187  0.052606  -0.000715  3.915416  0.0
C  C304  1  0.94471279  0.78973448  0.50770130  1  0.511517  -0.000651  0.063208  0.052381  -0.000706  3.914925  0.0
C  C305  1  0.06293874  0.71785515  0.50768435  1  0.515948  -0.000663  0.063238  0.052768  -0.000715  3.915328  0.0
C  C306  1  0.93704864  0.21026343  0.49230124  1  0.535034  -0.000652  0.063846  0.052473  -0.000709  3.915416  0.0
C  C307  1  0.71786180  0.94470141  0.00770122  1  0.504094  -0.000666  0.063411  0.052718  -0.000716  3.915764  0.0
N  N308  1  0.82548557  0.00382630  0.00766850  1  -1.193875  -0.00282  -0.306596  -0.180699  -0.002138  3.4791  -0.001
N  N309  1  0.00378931  0.68208525  0.50765244  1  -1.195936  -0.0028  -0.306789  -0.180679  -0.002128  3.480572  -0.001
N  N310  1  0.17451647  0.99617319  0.99233099  1  -1.193639  -0.002819  -0.30663  -0.180797  -0.002139  3.479316  -0.001
N  N311  1  0.68208586  0.00379049  0.00765293  1  -1.196006  -0.0028  -0.306795  -0.180735  -0.002128  3.480683  -0.001
N  N312  1  0.99617273  0.17451602  0.49233117  1  -1.19367  -0.00282  -0.306624  -0.180799  -0.002139  3.47929  -0.001
N  N313  1  0.99620922  0.31791566  0.49234732  1  -1.196118  -0.002801  -0.306738  -0.180598  -0.002129  3.480443  -0.001
N  N314  1  0.00382580  0.82548488  0.50766859  1  -1.193972  -0.00282  -0.306603  -0.180695  -0.002138  3.4792  -0.001
N  N315  1  0.31791583  0.99620959  0.99234675  1  -1.196073  -0.0028  -0.306743  -0.180542  -0.002128  3.480399  -0.001
O  O316  1  0.02849228  0.90314789  0.95021650  1  -1.109556  0.099338  -0.316672  -0.521282  0.062709  2.338416  0.09
O  O317  1  0.90305266  0.42172548  0.45020661  1  -1.104539  0.09928  -0.317043  -0.521517  0.062788  2.337888  0.09
O  O318  1  0.97151382  0.95283796  0.04979703  1  -1.103364  0.099479  -0.316956  -0.520699  0.062869  2.336243  0.09
O  O319  1  0.42167100  0.04708807  0.95024223  1  -1.099355  0.099434  -0.318011  -0.522466  0.063009  2.337173  0.09
O  O320  1  0.09685150  0.97150736  0.54978232  1  -1.109382  0.099359  -0.316706  -0.521234  0.062723  2.338018  0.09
O  O321  1  0.95291178  0.57832367  0.54975658  1  -1.099276  0.099432  -0.317957  -0.522361  0.063007  2.337501  0.09
O  O322  1  0.04716215  0.02849077  0.45020159  1  -1.103573  0.099465  -0.31683  -0.520623  0.06286  2.336504  0.09
O  O323  1  0.57826976  0.09694642  0.04979239  1  -1.104453  0.099264  -0.31703  -0.521484  0.062778  2.338168  0.09
O  O324  1  0.97150950  0.09685263  0.04978219  1  -1.109241  0.099366  -0.316679  -0.521224  0.062726  2.337839  0.09
O  O325  1  0.09694273  0.57827454  0.54979218  1  -1.104249  0.09931  -0.317076  -0.521554  0.062807  2.337576  0.09
O  O326  1  0.02849218  0.04716271  0.95020156  1  -1.103535  0.099463  -0.316775  -0.520522  0.062857  2.336558  0.09
O  O327  1  0.57832126  0.95291127  0.04975775  1  -1.099881  0.099398  -0.317974  -0.522369  0.062986  2.337872  0.09
O  O328  1  0.90314703  0.02849081  0.45021690  1  -1.109458  0.099338  -0.316636  -0.5212  0.062709  2.338284  0.09
O  O329  1  0.04708911  0.42167694  0.45024230  1  -1.099517  0.099406  -0.317974  -0.522389  0.062991  2.337707  0.09
O  O330  1  0.95283886  0.97151141  0.54979687  1  -1.103384  0.099474  -0.316871  -0.520617  0.062866  2.336108  0.09
O  O331  1  0.42172484  0.90305434  0.95020777  1  -1.10422  0.099306  -0.317101  -0.521587  0.062804  2.337404  0.09
O  O332  1  0.91611887  0.90671600  0.95845741  1  -1.105335  0.095622  -0.31814  -0.529655  0.060348  2.36065  0.087
O  O333  1  0.90676747  0.54232785  0.45844067  1  -1.109511  0.095664  -0.318329  -0.529746  0.060409  2.360374  0.087
O  O334  1  0.08392068  0.94841739  0.04160640  1  -1.109097  0.095535  -0.317549  -0.529261  0.060315  2.361602  0.087
O  O335  1  0.54226256  0.05156565  0.95841648  1  -1.111052  0.095457  -0.318519  -0.530674  0.060271  2.36055  0.087
O  O336  1  0.09328129  0.08388189  0.54154336  1  -1.105305  0.095603  -0.318059  -0.529412  0.060335  2.360916  0.087
O  O337  1  0.94843579  0.45773443  0.54158411  1  -1.111176  0.095457  -0.318499  -0.53059  0.060272  2.360533  0.087
O  O338  1  0.05157783  0.91608563  0.45839461  1  -1.109404  0.095542  -0.317634  -0.529392  0.060321  2.361343  0.087
O  O339  1  0.45766925  0.09323229  0.04155997  1  -1.109485  0.095685  -0.31837  -0.529885  0.060422  2.360284  0.087
O  O340  1  0.08388374  0.09328255  0.04154426  1  -1.105389  0.095596  -0.318011  -0.529358  0.06033  2.360981  0.087
O  O341  1  0.09323502  0.45767462  0.54156251  1  -1.109585  0.095643  -0.318342  -0.529799  0.060394  2.360776  0.087
O  O342  1  0.91608571  0.05157853  0.95839366  1  -1.109322  0.095547  -0.317613  -0.529385  0.060324  2.361285  0.087
O  O343  1  0.45773230  0.94843662  0.04158286  1  -1.111011  0.095485  -0.318536  -0.530736  0.060291  2.360188  0.087
O  O344  1  0.90671615  0.91611710  0.45845801  1  -1.105148  0.095621  -0.318023  -0.529393  0.060346  2.360716  0.087
O  O345  1  0.05156336  0.54226769  0.45841789  1  -1.11104  0.095477  -0.318569  -0.530825  0.060286  2.360331  0.087
O  O346  1  0.94841621  0.08391899  0.54160606  1  -1.109015  0.095537  -0.317615  -0.529311  0.060316  2.361447  0.087
O  O347  1  0.54232514  0.90676617  0.95843836  1  -1.109643  0.095642  -0.318364  -0.529862  0.060393  2.360807  0.087
O  O348  1  0.71537719  0.46572040  0.78695349  1  -1.093687  0.096946  -0.318798  -0.529323  0.061321  2.329041  0.088
O  O349  1  0.46566477  0.57152072  0.28686839  1  -1.097309  0.096931  -0.318345  -0.529587  0.061434  2.328571  0.088
O  O350  1  0.28469877  0.67885454  0.21312580  1  -1.096185  0.09703  -0.317546  -0.528197  0.061486  2.328008  0.088
O  O351  1  0.57147593  0.32109619  0.78679415  1  -1.09426  0.097013  -0.318051  -0.528679  0.061682  2.329603  0.088
O  O352  1  0.53427856  0.28462087  0.71304586  1  -1.093532  0.096945  -0.318793  -0.529395  0.061319  2.328978  0.088
O  O353  1  0.67890263  0.42852198  0.71320469  1  -1.094105  0.09702  -0.318052  -0.528686  0.061686  2.32949  0.088
O  O354  1  0.32114319  0.71530377  0.28687214  1  -1.096376  0.097013  -0.317481  -0.528063  0.061475  2.32843  0.088
O  O355  1  0.42847321  0.53432949  0.21312278  1  -1.09754  0.096953  -0.318368  -0.529594  0.061449  2.327989  0.088
O  O356  1  0.28461800  0.53427998  0.21304292  1  -1.093004  0.096965  -0.318852  -0.529446  0.061333  2.328645  0.088
O  O357  1  0.53433068  0.42847569  0.71312613  1  -1.097519  0.096942  -0.318348  -0.529562  0.061442  2.328224  0.088
O  O358  1  0.71529923  0.32114559  0.78687073  1  -1.096268  0.097017  -0.317495  -0.528014  0.061477  2.328361  0.088
O  O359  1  0.42852059  0.67890130  0.21320144  1  -1.094065  0.097041  -0.318082  -0.528728  0.0617  2.329289  0.088
O  O360  1  0.46571881  0.71537549  0.28695005  1  -1.093768  0.096923  -0.318669  -0.529109  0.061305  2.329244  0.088
O  O361  1  0.32109394  0.57147776  0.28679203  1  -1.09437  0.096989  -0.317965  -0.528574  0.061667  2.330066  0.088
O  O362  1  0.67885427  0.28469587  0.71312439  1  -1.095873  0.097023  -0.317493  -0.527972  0.06148  2.328402  0.088
O  O363  1  0.57152625  0.46566761  0.78687144  1  -1.097421  0.096938  -0.31845  -0.529702  0.061439  2.328381  0.088
O  O364  1  0.68264014  0.43244313  0.86532201  1  -1.189524  -0.001608  -0.567915  -0.752187  -0.001339  2.003717  0.0
O  O365  1  0.43245017  0.68263977  0.36532229  1  -1.1895  -0.001608  -0.567895  -0.752078  -0.00134  2.003853  0.0
O  O366  1  0.31735883  0.56755782  0.13467874  1  -1.189561  -0.001608  -0.567858  -0.752147  -0.001339  2.003815  0.0
O  O367  1  0.56754949  0.31736162  0.63467806  1  -1.189539  -0.001608  -0.567949  -0.752138  -0.001339  2.003796  0.0
