# generated using pymatgen
data_Cd3H90Ir2C92(N5O9)2
_symmetry_space_group_name_H-M   'P 1'
_cell_length_a   14.04174412
_cell_length_b   14.61562657
_cell_length_c   21.11302206
_cell_angle_alpha   89.99973870
_cell_angle_beta   101.44087927
_cell_angle_gamma   89.99988641
_symmetry_Int_Tables_number   1
_chemical_formula_structural   Cd3H90Ir2C92(N5O9)2
_chemical_formula_sum   'Cd6 H180 Ir4 C184 N20 O36'
_cell_volume   4246.90486787
_cell_formula_units_Z   2
loop_
 _symmetry_equiv_pos_site_id
 _symmetry_equiv_pos_as_xyz
  1  'x, y, z'
loop_
 _atom_site_type_symbol
 _atom_site_label
 _atom_site_symmetry_multiplicity
 _atom_site_fract_x
 _atom_site_fract_y
 _atom_site_fract_z
 _atom_site_occupancy
 _atom_site_pbe_bader_charge
 _atom_site_pbe_bader_spin_density
 _atom_site_pbe_cm5_charge
 _atom_site_pbe_ddec_charge
 _atom_site_pbe_ddec_spin_density
 _atom_site_pbe_ddec_sum_bond_order
 _atom_site_pbe_magmom
Cd  Cd0  1  0.00000214  0.50000251  0.00000138  1  1.408918  0  0.813005  1.12782  0  2.197477  0
Cd  Cd1  1  0.50000296  0.99999742  0.50000001  1  1.408893  0  0.813012  1.127851  0  2.197453  0
Cd  Cd2  1  0.25330114  0.11946330  0.53011616  1  1.283091  0  0.758229  0.989924  0  1.999155  0
Cd  Cd3  1  0.24669497  0.61946642  0.96988395  1  1.283219  0  0.758212  0.989833  0  1.999224  0
Cd  Cd4  1  0.74669690  0.88053269  0.46988725  1  1.283204  0  0.758235  0.989903  0  1.999155  0
Cd  Cd5  1  0.75330379  0.38053436  0.03011813  1  1.283212  0  0.758258  0.989904  0  1.999189  0
H  H6  1  0.88173067  0.67231811  0.56530518  1  0.128016  0  0.116661  0.09493  0  1.042675  0
H  H7  1  0.61826698  0.17232216  0.93468779  1  0.128294  0  0.11667  0.09493  0  1.042811  0
H  H8  1  0.11826880  0.32768061  0.43469368  1  0.12807  0  0.116653  0.094936  0  1.042686  0
H  H9  1  0.38173103  0.82767656  0.06530946  1  0.128161  0  0.116665  0.094963  0  1.042742  0
H  H10  1  0.98637310  0.79511517  0.61931352  1  0.094767  0  0.112542  0.124976  0  0.998164  0
H  H11  1  0.51362851  0.29511977  0.88067626  1  0.095008  0  0.112574  0.125029  0  0.998204  0
H  H12  1  0.01362927  0.20488218  0.38068572  1  0.09475  0  0.112543  0.125012  0  0.998123  0
H  H13  1  0.48636877  0.70487963  0.11932043  1  0.094893  0  0.112552  0.124982  0  0.998197  0
H  H14  1  0.03593612  0.79224751  0.74267007  1  0.083475  0  0.108401  0.10446  0  0.992118  0
H  H15  1  0.46406665  0.29224864  0.75731900  1  0.082866  0  0.108458  0.104579  0  0.99197  0
H  H16  1  0.96406335  0.20774779  0.25732926  1  0.083143  0  0.108445  0.104523  0  0.992036  0
H  H17  1  0.53593353  0.70774802  0.24267712  1  0.083252  0  0.108436  0.104532  0  0.991985  0
H  H18  1  0.96937692  0.66961876  0.80253717  1  0.050474  0  0.107892  0.119056  0  1.020419  0
H  H19  1  0.53062220  0.16961428  0.69745695  1  0.050249  0  0.107971  0.119162  0  1.020339  0
H  H20  1  0.03061820  0.33037859  0.19746208  1  0.050439  0  0.107858  0.119017  0  1.020452  0
H  H21  1  0.46938017  0.83038307  0.30254087  1  0.050326  0  0.107953  0.119126  0  1.020381  0
H  H22  1  0.90396227  0.56197773  0.84644922  1  0.10257  0  0.101339  0.102815  0  1.042779  0
H  H23  1  0.59604954  0.06197067  0.65354689  1  0.102826  0  0.101382  0.102851  0  1.042818  0
H  H24  1  0.09604010  0.43802373  0.15354813  1  0.102621  0  0.101324  0.102817  0  1.042783  0
H  H25  1  0.40395574  0.93802531  0.34645226  1  0.102699  0  0.10134  0.102824  0  1.042821  0
H  H26  1  0.70149540  0.33943745  0.81410547  1  0.082298  0  0.096634  0.094683  0  1.035588  0
H  H27  1  0.79851562  0.83943003  0.68590387  1  0.082374  0  0.096708  0.094677  0  1.035472  0
H  H28  1  0.29850845  0.66056196  0.18589728  1  0.08237  0  0.096667  0.094747  0  1.035531  0
H  H29  1  0.20149550  0.16057006  0.31409982  1  0.082134  0  0.096698  0.09476  0  1.035469  0
H  H30  1  0.68390009  0.35619047  0.69608874  1  0.058832  0  0.091245  0.098265  0  1.035093  0
H  H31  1  0.81610070  0.85618908  0.80391826  1  0.061416  0  0.091242  0.098136  0  1.035194  0
H  H32  1  0.31609940  0.64380688  0.30391296  1  0.058621  0  0.091243  0.098267  0  1.035115  0
H  H33  1  0.18390678  0.14381443  0.19608543  1  0.05873  0  0.091251  0.098185  0  1.035171  0
H  H34  1  0.70538253  0.63036618  0.48845347  1  0.127709  0  0.115721  0.089667  0  1.037561  0
H  H35  1  0.79461889  0.13036652  0.01154333  1  0.12767  0  0.115727  0.089703  0  1.037514  0
H  H36  1  0.29461694  0.36963254  0.51154539  1  0.127555  0  0.115717  0.089711  0  1.037541  0
H  H37  1  0.20538058  0.86963425  0.98845554  1  0.127681  0  0.115737  0.089726  0  1.037465  0
H  H38  1  0.72700346  0.64508228  0.37599739  1  0.118706  0  0.109162  0.12397  0  0.998636  0
H  H39  1  0.77300155  0.14508261  0.12399935  1  0.118689  0  0.109168  0.123922  0  0.998647  0
H  H40  1  0.27299601  0.35491575  0.62400148  1  0.118666  0  0.109162  0.123986  0  0.998605  0
H  H41  1  0.22699720  0.85491953  0.87599942  1  0.118839  0  0.109177  0.123941  0  0.998666  0
H  H42  1  0.83810282  0.53206492  0.33423365  1  0.070365  0  0.105279  0.101263  0  1.008175  0
H  H43  1  0.66189819  0.03207066  0.16576529  1  0.070416  0  0.105306  0.101307  0  1.008147  0
H  H44  1  0.16189592  0.46793038  0.66576559  1  0.070406  0  0.10529  0.101276  0  1.008134  0
H  H45  1  0.33810055  0.96793011  0.83423348  1  0.070365  0  0.105294  0.101301  0  1.008165  0
H  H46  1  0.92573160  0.41624608  0.41031033  1  0.047141  0  0.103735  0.108395  0  1.026326  0
H  H47  1  0.57426896  0.91625067  0.08969113  1  0.047255  0  0.103741  0.108383  0  1.026316  0
H  H48  1  0.07426861  0.58375264  0.58969052  1  0.047224  0  0.103747  0.108387  0  1.026332  0
H  H49  1  0.42573051  0.08374942  0.91030868  1  0.047234  0  0.103745  0.10838  0  1.026363  0
H  H50  1  0.93490376  0.36897105  0.70245738  1  0.064481  0  0.091665  0.092723  0  1.038488  0
H  H51  1  0.56509405  0.86896950  0.79754304  1  0.06451  0  0.091639  0.092696  0  1.038459  0
H  H52  1  0.06509354  0.63102835  0.29754309  1  0.064525  0  0.091674  0.092733  0  1.038519  0
H  H53  1  0.43490469  0.13103059  0.20245573  1  0.064572  0  0.091652  0.09271  0  1.038458  0
H  H54  1  0.05600192  0.25396286  0.68090925  1  0.041309  0  0.095521  0.091739  0  1.025871  0
H  H55  1  0.44399815  0.75396113  0.81909285  1  0.04131  0  0.095529  0.091734  0  1.025878  0
H  H56  1  0.94399683  0.74603859  0.31908999  1  0.041272  0  0.095498  0.091705  0  1.025864  0
H  H57  1  0.55599987  0.24604033  0.18090535  1  0.041361  0  0.095544  0.09175  0  1.025878  0
H  H58  1  0.99076125  0.32027043  0.48004325  1  0.097101  0  0.096992  0.092063  0  1.059589  0
H  H59  1  0.50924106  0.82027150  0.01995779  1  0.097059  0  0.09699  0.092083  0  1.059637  0
H  H60  1  0.00923967  0.67972965  0.51995580  1  0.097105  0  0.096986  0.092065  0  1.059641  0
H  H61  1  0.49076132  0.17972448  0.98004192  1  0.097017  0  0.097004  0.092127  0  1.059592  0
H  H62  1  0.71048844  0.70315841  0.60886656  1  0.120198  0  0.115985  0.091138  0  1.026873  0
H  H63  1  0.78950770  0.20316173  0.89113228  1  0.120157  0  0.115986  0.091124  0  1.026808  0
H  H64  1  0.28951103  0.29683826  0.39113278  1  0.120178  0  0.116017  0.091199  0  1.026778  0
H  H65  1  0.21048742  0.79683904  0.10886602  1  0.120216  0  0.115981  0.091161  0  1.026807  0
H  H66  1  0.55307659  0.78488893  0.59723322  1  0.137337  0  0.105059  0.117335  0  1.038817  0
H  H67  1  0.94692147  0.28489051  0.90276513  1  0.137289  0  0.105058  0.117339  0  1.038847  0
H  H68  1  0.44692505  0.21511184  0.40276403  1  0.137406  0  0.105059  0.117354  0  1.03882  0
H  H69  1  0.05307218  0.71511437  0.09723298  1  0.137411  0  0.105074  0.117398  0  1.038803  0
H  H70  1  0.39834901  0.69205015  0.57784587  1  0.070208  0  0.1017  0.091804  0  1.025099  0
H  H71  1  0.10164905  0.19204952  0.92215380  1  0.070272  0  0.101723  0.091783  0  1.025085  0
H  H72  1  0.60165190  0.30795199  0.42214986  1  0.070181  0  0.101752  0.091806  0  1.025108  0
H  H73  1  0.89834827  0.80795809  0.07785047  1  0.070211  0  0.101693  0.091703  0  1.025224  0
H  H74  1  0.40885041  0.52298454  0.57210951  1  0.079856  0  0.103403  0.111856  0  1.02707  0
H  H75  1  0.09114528  0.02298389  0.92789133  1  0.079727  0  0.103389  0.111812  0  1.027154  0
H  H76  1  0.59114687  0.47701829  0.42788528  1  0.079734  0  0.103403  0.111801  0  1.027141  0
H  H77  1  0.90885424  0.97702441  0.07211701  1  0.079708  0  0.103416  0.111858  0  1.02713  0
H  H78  1  0.76642110  0.27661022  0.57208115  1  0.028274  0  0.088079  0.088301  0  1.039539  0
H  H79  1  0.73357554  0.77661296  0.92791752  1  0.028213  0  0.088042  0.088255  0  1.039542  0
H  H80  1  0.23357911  0.72338713  0.42792018  1  0.02824  0  0.088069  0.088304  0  1.039542  0
H  H81  1  0.26642612  0.22338986  0.07208210  1  0.028154  0  0.088068  0.088274  0  1.03954  0
H  H82  1  0.63287007  0.16449612  0.56550600  1  0.104755  0  0.096098  0.100275  0  1.053683  0
H  H83  1  0.86712691  0.66449925  0.93449117  1  0.104807  0  0.096116  0.100301  0  1.053636  0
H  H84  1  0.36712868  0.83550054  0.43449419  1  0.104794  0  0.096101  0.100286  0  1.053649  0
H  H85  1  0.13287692  0.33550495  0.06550684  1  0.104676  0  0.096173  0.10037  0  1.053771  0
H  H86  1  0.43335410  0.38164604  0.58095104  1  0.063763  0  0.097786  0.091595  0  1.067629  0
H  H87  1  0.06664339  0.88164915  0.91905127  1  0.063687  0  0.09778  0.091595  0  1.067582  0
H  H88  1  0.56664245  0.61835200  0.41904507  1  0.063474  0  0.097802  0.091636  0  1.067595  0
H  H89  1  0.93335829  0.11835846  0.08095309  1  0.063557  0  0.097813  0.091639  0  1.067452  0
H  H90  1  0.18394360  0.35491950  0.96558054  1  0.118627  0  0.125207  0.053883  0  0.998053  0
H  H91  1  0.31605977  0.85492331  0.53442073  1  0.118713  0  0.125231  0.053908  0  0.998041  0
H  H92  1  0.81605951  0.64508059  0.03442022  1  0.118684  0  0.125232  0.053885  0  0.99806  0
H  H93  1  0.68394261  0.14507541  0.46557946  1  0.118812  0  0.125226  0.053881  0  0.998078  0
H  H94  1  0.29570156  0.31247731  0.91627921  1  0.071606  0  0.112164  0.090279  0  0.97865  0
H  H95  1  0.20430049  0.81247485  0.58371965  1  0.071596  0  0.112181  0.090309  0  0.978615  0
H  H96  1  0.70429864  0.68752278  0.08372022  1  0.071554  0  0.112148  0.090256  0  0.978623  0
H  H97  1  0.79570190  0.18752455  0.41628102  1  0.071585  0  0.112159  0.090261  0  0.978641  0
H  H98  1  0.30119071  0.36966565  0.84369876  1  0.050742  0  0.105848  0.082211  0  0.979036  0
H  H99  1  0.19880898  0.86965862  0.65630056  1  0.051043  0  0.105877  0.082258  0  0.97899  0
H  H100  1  0.69880876  0.63033444  0.15630010  1  0.050801  0  0.105861  0.08223  0  0.97902  0
H  H101  1  0.80119486  0.13033873  0.34370077  1  0.05096  0  0.105897  0.08225  0  0.979033  0
H  H102  1  0.21135527  0.17812619  0.85311691  1  0.03083  0  0.086048  0.116468  0  1.029792  0
H  H103  1  0.28864428  0.67812042  0.64688111  1  0.030728  0  0.086026  0.116447  0  1.029766  0
H  H104  1  0.78863913  0.82187595  0.14688414  1  0.030707  0  0.086029  0.116517  0  1.029771  0
H  H105  1  0.71135956  0.32187762  0.35311832  1  0.030818  0  0.086025  0.116441  0  1.029795  0
H  H106  1  0.32447829  0.20206697  0.83131077  1  0.048554  0  0.089495  0.125561  0  1.022721  0
H  H107  1  0.17552119  0.70206195  0.66868763  1  0.048795  0  0.089549  0.125607  0  1.02262  0
H  H108  1  0.67551611  0.79793038  0.16868886  1  0.04847  0  0.089509  0.125577  0  1.022718  0
H  H109  1  0.82448264  0.29793540  0.33131227  1  0.048486  0  0.0895  0.125538  0  1.022727  0
H  H110  1  0.21531071  0.23512502  0.77916543  1  0.026567  0  0.091479  0.125394  0  1.009534  0
H  H111  1  0.28469012  0.73511671  0.72083352  1  0.026741  0  0.091478  0.125425  0  1.009523  0
H  H112  1  0.78468369  0.76487507  0.22083468  1  0.026627  0  0.091456  0.12538  0  1.009549  0
H  H113  1  0.71531444  0.26487996  0.27916648  1  0.026627  0  0.091454  0.12538  0  1.009453  0
H  H114  1  0.02801848  0.38438932  0.80696681  1  0.094039  0  0.110502  0.09047  0  0.988156  0
H  H115  1  0.47198119  0.88438425  0.69303625  1  0.093678  0  0.110502  0.090426  0  0.988277  0
H  H116  1  0.97198101  0.61561488  0.19303537  1  0.094102  0  0.110517  0.090458  0  0.988212  0
H  H117  1  0.52802264  0.11561310  0.30696318  1  0.093775  0  0.110558  0.090515  0  0.988208  0
H  H118  1  0.12262200  0.35507006  0.76601880  1  0.048996  0  0.105181  0.074633  0  1.007308  0
H  H119  1  0.37737702  0.85506491  0.73398237  1  0.048906  0  0.105177  0.074655  0  1.00735  0
H  H120  1  0.87737676  0.64493277  0.23398234  1  0.048909  0  0.10518  0.074619  0  1.007367  0
H  H121  1  0.62262754  0.14493313  0.26601763  1  0.048853  0  0.1052  0.074652  0  1.00733  0
H  H122  1  0.10000704  0.53807672  0.83433235  1  0.056147  0  0.089922  0.13147  0  1.025704  0
H  H123  1  0.39999224  0.03807311  0.66566891  1  0.056481  0  0.089937  0.131489  0  1.025646  0
H  H124  1  0.89999535  0.46192474  0.16567021  1  0.056191  0  0.089921  0.131447  0  1.025708  0
H  H125  1  0.60001014  0.96192424  0.33433033  1  0.056207  0  0.089955  0.131498  0  1.025689  0
H  H126  1  0.08043279  0.52036652  0.74954825  1  0.033535  0  0.088011  0.123201  0  1.024011  0
H  H127  1  0.41956728  0.02036163  0.75045365  1  0.033528  0  0.088015  0.123158  0  1.023999  0
H  H128  1  0.91956961  0.47963767  0.25045431  1  0.033493  0  0.088031  0.123214  0  1.023985  0
H  H129  1  0.58043510  0.97963709  0.24954560  1  0.033684  0  0.088003  0.123149  0  1.024017  0
H  H130  1  0.19993200  0.51171318  0.79709914  1  0.047385  0  0.089035  0.122071  0  1.025372  0
H  H131  1  0.30006665  0.01170952  0.70290402  1  0.047425  0  0.089021  0.122046  0  1.025355  0
H  H132  1  0.80006968  0.48828759  0.20290427  1  0.047462  0  0.089025  0.122055  0  1.025409  0
H  H133  1  0.69993573  0.98828715  0.29709570  1  0.047341  0  0.089008  0.122013  0  1.025397  0
H  H134  1  0.12212687  0.97690472  0.49082502  1  0.638429  0  0.283545  0.380075  0  0.963959  0
H  H135  1  0.37786740  0.47690356  0.00917741  1  0.638466  0  0.283575  0.380164  0  0.963851  0
H  H136  1  0.87786971  0.02309536  0.50917726  1  0.638313  0  0.283573  0.380137  0  0.96389  0
H  H137  1  0.62212989  0.52309722  0.99082117  1  0.638419  0  0.283585  0.380153  0  0.963851  0
H  H138  1  0.11303938  0.01228421  0.56024885  1  0.627135  0  0.310398  0.399459  0  0.899064  0
H  H139  1  0.38695126  0.51228179  0.93975185  1  0.62705  0  0.310464  0.399507  0  0.898918  0
H  H140  1  0.88695284  0.98771519  0.43975239  1  0.627027  0  0.310459  0.399507  0  0.898872  0
H  H141  1  0.61304458  0.48771693  0.06024655  1  0.62725  0  0.310457  0.399519  0  0.89884  0
H  H142  1  0.96684208  0.15064080  0.76508003  1  0.032976  0  0.09867  0.070772  0  0.981139  0
H  H143  1  0.53315566  0.65064177  0.73491728  1  0.03293  0  0.09869  0.070794  0  0.9811  0
H  H144  1  0.03315668  0.84935997  0.23492111  1  0.032986  0  0.098664  0.070764  0  0.981179  0
H  H145  1  0.46684598  0.34935763  0.26508092  1  0.032914  0  0.09868  0.070769  0  0.981095  0
H  H146  1  0.87854232  0.06641252  0.77094860  1  0.065192  0  0.102493  0.077194  0  1.012652  0
H  H147  1  0.62145569  0.56641268  0.72904996  1  0.065177  0  0.102481  0.077193  0  1.01265  0
H  H148  1  0.12145571  0.93358757  0.22905339  1  0.065245  0  0.10252  0.077243  0  1.012634  0
H  H149  1  0.37854670  0.43358741  0.27095070  1  0.065189  0  0.102494  0.077179  0  1.012604  0
H  H150  1  0.85419167  0.12984518  0.61076166  1  0.093613  0  0.125442  0.058303  0  0.992869  0
H  H151  1  0.64580396  0.62985108  0.88923592  1  0.093726  0  0.125458  0.058303  0  0.992849  0
H  H152  1  0.14580201  0.87015286  0.38923977  1  0.09366  0  0.125431  0.058268  0  0.99296  0
H  H153  1  0.35419333  0.37015517  0.11076314  1  0.09377  0  0.125466  0.058332  0  0.992837  0
H  H154  1  0.97580982  0.95278845  0.75149119  1  0.071776  0  0.104145  0.074132  0  0.99173  0
H  H155  1  0.52419137  0.45278638  0.74851036  1  0.071688  0  0.104174  0.07416  0  0.991669  0
H  H156  1  0.02419038  0.04721095  0.24850825  1  0.071758  0  0.10414  0.074135  0  0.991672  0
H  H157  1  0.47580883  0.54721576  0.25148860  1  0.071678  0  0.10419  0.074191  0  0.99172  0
H  H158  1  0.99308751  0.93450758  0.67117364  1  0.064582  0  0.107983  0.080102  0  1.013838  0
H  H159  1  0.50691375  0.43450843  0.82882986  1  0.064754  0  0.107993  0.080107  0  1.01378  0
H  H160  1  0.00691342  0.06549456  0.32882588  1  0.064534  0  0.107967  0.080089  0  1.013873  0
H  H161  1  0.49308864  0.56549097  0.17117033  1  0.064756  0  0.108003  0.08013  0  1.013814  0
H  H162  1  0.12988605  0.05163617  0.69008298  1  0.080502  0  0.091496  0.140926  0  1.029161  0
H  H163  1  0.37011317  0.55163600  0.80991586  1  0.08052  0  0.091496  0.140937  0  1.029151  0
H  H164  1  0.87011343  0.94836461  0.30991730  1  0.080495  0  0.091492  0.14095  0  1.029104  0
H  H165  1  0.62988777  0.44836203  0.19008604  1  0.080539  0  0.091491  0.140914  0  1.029007  0
H  H166  1  0.15384582  0.95536458  0.74353124  1  0.017982  0  0.084668  0.11136  0  1.021482  0
H  H167  1  0.34615506  0.45536458  0.75646843  1  0.017999  0  0.084675  0.11138  0  1.021472  0
H  H168  1  0.84615294  0.04463687  0.25646942  1  0.017932  0  0.084656  0.111382  0  1.021491  0
H  H169  1  0.65384588  0.54463414  0.24353347  1  0.017985  0  0.084662  0.111354  0  1.021497  0
H  H170  1  0.11781100  0.06105049  0.77217363  1  0.041361  0  0.084933  0.115991  0  1.023455  0
H  H171  1  0.38219111  0.56104879  0.72782697  1  0.041375  0  0.084939  0.116007  0  1.023476  0
H  H172  1  0.88218848  0.93895097  0.22782665  1  0.041405  0  0.084947  0.115995  0  1.023521  0
H  H173  1  0.61780693  0.43895062  0.27217550  1  0.04133  0  0.084916  0.115966  0  1.023442  0
H  H174  1  0.84458101  0.23761727  0.68413440  1  0.049189  0  0.083635  0.115825  0  1.06986  0
H  H175  1  0.65541646  0.73761816  0.81586166  1  0.049234  0  0.083626  0.115796  0  1.069858  0
H  H176  1  0.15541630  0.76238214  0.31586703  1  0.049131  0  0.083611  0.115784  0  1.069817  0
H  H177  1  0.34458228  0.26238330  0.18413616  1  0.049242  0  0.083608  0.115775  0  1.069808  0
H  H178  1  0.80290894  0.21619958  0.75616387  1  0.028758  0  0.089952  0.130988  0  1.014826  0
H  H179  1  0.69709077  0.71619881  0.74383302  1  0.028647  0  0.089909  0.13095  0  1.014829  0
H  H180  1  0.19709127  0.78380256  0.24383746  1  0.028788  0  0.089965  0.131006  0  1.014802  0
H  H181  1  0.30290870  0.28380264  0.25616584  1  0.028733  0  0.089937  0.130965  0  1.014829  0
H  H182  1  0.75695171  0.15013426  0.68660431  1  0.044466  0  0.085618  0.120259  0  1.047953  0
H  H183  1  0.74304531  0.65013432  0.81339339  1  0.044514  0  0.085611  0.120259  0  1.047979  0
H  H184  1  0.24304415  0.84986788  0.31339835  1  0.044485  0  0.085615  0.120302  0  1.047891  0
H  H185  1  0.25695562  0.34986851  0.18660614  1  0.044513  0  0.085608  0.12027  0  1.047949  0
Ir  Ir186  1  0.77904793  0.49501401  0.60710153  1  0.90536  0  0.736357  0.254766  0  5.045446  0
Ir  Ir187  1  0.72094803  0.99501495  0.89289778  1  0.905518  0  0.736465  0.254901  0  5.045499  0
Ir  Ir188  1  0.22094937  0.50498608  0.39289799  1  0.905577  0  0.736417  0.25482  0  5.045427  0
Ir  Ir189  1  0.27905145  0.00498651  0.10710251  1  0.905412  0  0.73641  0.254779  0  5.045533  0
C  C190  1  0.90421172  0.67208597  0.61775519  1  0.498766  0  0.039168  0.064894  0  3.938724  0
C  C191  1  0.59578594  0.17208904  0.88223778  1  0.49873  0  0.039103  0.064836  0  3.938938  0
C  C192  1  0.09578703  0.32791206  0.38224358  1  0.498782  0  0.039189  0.064912  0  3.938828  0
C  C193  1  0.40421207  0.82790899  0.11775948  1  0.498753  0  0.039123  0.064814  0  3.938946  0
C  C194  1  0.96352121  0.74133430  0.64876548  1  -0.099055  0  -0.089979  -0.143635  0  4.000436  0
C  C195  1  0.53647985  0.24133837  0.85122582  1  -0.099111  0  -0.090085  -0.143814  0  4.000627  0
C  C196  1  0.03647972  0.25866237  0.35123405  1  -0.099116  0  -0.090022  -0.143716  0  4.000497  0
C  C197  1  0.46351889  0.75866035  0.14877153  1  -0.099066  0  -0.090031  -0.143682  0  4.000647  0
C  C198  1  0.98899826  0.73976040  0.71624695  1  -0.071331  0  -0.075029  -0.044727  0  4.004666  0
C  C199  1  0.51100281  0.23976017  0.78374340  1  -0.070714  0  -0.074999  -0.044853  0  4.004825  0
C  C200  1  0.01100049  0.26023696  0.28375229  1  -0.07072  0  -0.075109  -0.044901  0  4.004698  0
C  C201  1  0.48899665  0.76023718  0.21625309  1  -0.071036  0  -0.075008  -0.044806  0  4.00473  0
C  C202  1  0.95224488  0.67084846  0.74994912  1  0.01052  0  -0.079938  -0.156053  0  3.935427  0
C  C203  1  0.54775277  0.17084702  0.75004244  1  0.010182  0  -0.080001  -0.15603  0  3.935648  0
C  C204  1  0.04775096  0.32914958  0.25004928  1  0.010143  0  -0.079827  -0.155847  0  3.935398  0
C  C205  1  0.45224887  0.82915170  0.24995529  1  0.01015  0  -0.079974  -0.156031  0  3.935523  0
C  C206  1  0.89234078  0.60265313  0.71629509  1  0.458794  0  0.1129  0.190455  0  3.952395  0
C  C207  1  0.60765856  0.10265135  0.78369974  1  0.459075  0  0.112907  0.190368  0  3.952548  0
C  C208  1  0.10765651  0.39734833  0.28370301  1  0.458815  0  0.112891  0.190469  0  3.952446  0
C  C209  1  0.39234309  0.89734806  0.21629893  1  0.459079  0  0.112891  0.190491  0  3.952558  0
C  C210  1  0.84576657  0.52886561  0.74550753  1  -0.047876  0  -0.032378  -0.014719  0  4.024802  0
C  C211  1  0.65423446  0.02886257  0.75449059  1  -0.047923  0  -0.032371  -0.014708  0  4.024796  0
C  C212  1  0.15422999  0.47113448  0.25449048  1  -0.047873  0  -0.032468  -0.014875  0  4.024949  0
C  C213  1  0.34577010  0.97113684  0.24550940  1  -0.047882  0  -0.032419  -0.014904  0  4.024841  0
C  C214  1  0.85625455  0.51770199  0.81247975  1  -0.055655  0  -0.080654  -0.108403  0  3.933164  0
C  C215  1  0.64375160  0.01769598  0.68751765  1  -0.055741  0  -0.080701  -0.108455  0  3.933299  0
C  C216  1  0.14374419  0.48229742  0.18751902  1  -0.055821  0  -0.080596  -0.108317  0  3.933136  0
C  C217  1  0.35625296  0.98230137  0.31248187  1  -0.055775  0  -0.080627  -0.108347  0  3.933121  0
C  C218  1  0.80398646  0.44960224  0.83718739  1  0.010048  0  -0.037993  -0.072929  0  4.029106  0
C  C219  1  0.69602128  0.94959448  0.66281454  1  0.010174  0  -0.038041  -0.073056  0  4.028953  0
C  C220  1  0.19601521  0.55039716  0.16281365  1  0.010114  0  -0.037959  -0.072863  0  4.029008  0
C  C221  1  0.30398329  0.05040082  0.33718641  1  0.010158  0  -0.038048  -0.072974  0  4.029105  0
C  C222  1  0.74250253  0.39167814  0.79413659  1  -0.075866  0  -0.086723  -0.079563  0  3.983188  0
C  C223  1  0.75750614  0.89167135  0.70587085  1  -0.076296  0  -0.086826  -0.079594  0  3.982763  0
C  C224  1  0.25749986  0.60832195  0.20586502  1  -0.075891  0  -0.086782  -0.079718  0  3.983244  0
C  C225  1  0.24250134  0.10832737  0.29413237  1  -0.075872  0  -0.086811  -0.079785  0  3.983188  0
C  C226  1  0.73241512  0.40221845  0.72791918  1  -0.060096  0  -0.112989  -0.116624  0  4.040236  0
C  C227  1  0.76759060  0.90221463  0.77208643  1  -0.062831  0  -0.112994  -0.116423  0  4.04002  0
C  C228  1  0.26758509  0.59777958  0.27208215  1  -0.059868  0  -0.112999  -0.116597  0  4.040112  0
C  C229  1  0.23241761  0.09778546  0.22791641  1  -0.059957  0  -0.112951  -0.116452  0  4.040128  0
C  C230  1  0.78314410  0.47071367  0.70111987  1  -0.12041  0  -0.126154  -0.115874  0  3.945516  0
C  C231  1  0.71685630  0.97071114  0.79888057  1  -0.120253  0  -0.12612  -0.115869  0  3.945331  0
C  C232  1  0.21685174  0.52928436  0.29887853  1  -0.120437  0  -0.126072  -0.115797  0  3.945371  0
C  C233  1  0.28314754  0.02928895  0.20111981  1  -0.120433  0  -0.1261  -0.115679  0  3.945268  0
C  C234  1  0.80685630  0.44037011  0.90745976  1  1.507018  0  0.198554  0.575277  0  4.224011  0
C  C235  1  0.69315220  0.94035255  0.59254514  1  1.507098  0  0.198683  0.575546  0  4.223522  0
C  C236  1  0.19314681  0.55963614  0.09254100  1  1.506964  0  0.198646  0.575438  0  4.223642  0
C  C237  1  0.30685020  0.05963727  0.40745789  1  1.506962  0  0.198617  0.575401  0  4.223713  0
C  C238  1  0.75196094  0.58255641  0.46926361  1  0.414938  0  0.03734  0.06402  0  3.945563  0
C  C239  1  0.74803992  0.08255808  0.03073469  1  0.414913  0  0.037257  0.063829  0  3.945579  0
C  C240  1  0.24803927  0.41744231  0.53073677  1  0.415057  0  0.037262  0.063822  0  3.945619  0
C  C241  1  0.25195810  0.91744337  0.96926446  1  0.414944  0  0.03732  0.063934  0  3.945496  0
C  C242  1  0.76408383  0.58997196  0.40574457  1  -0.010402  0  -0.090972  -0.13787  0  3.99073  0
C  C243  1  0.73591772  0.08997460  0.09425332  1  -0.010284  0  -0.090934  -0.137628  0  3.990472  0
C  C244  1  0.23591710  0.41002608  0.59425543  1  -0.010429  0  -0.090952  -0.137759  0  3.990737  0
C  C245  1  0.26407884  0.91002685  0.90574469  1  -0.010645  0  -0.090986  -0.137731  0  3.990639  0
C  C246  1  0.82588464  0.52813815  0.38352296  1  -0.024588  0  -0.07405  -0.035143  0  3.999183  0
C  C247  1  0.67411711  0.02814351  0.11647515  1  -0.024523  0  -0.074122  -0.035344  0  3.99906  0
C  C248  1  0.17411556  0.47185920  0.61647600  1  -0.024311  0  -0.074052  -0.035222  0  3.999129  0
C  C249  1  0.32588236  0.97185795  0.88352276  1  -0.024288  0  -0.074072  -0.035315  0  3.999078  0
C  C250  1  0.87454447  0.46300768  0.42586166  1  0.014627  0  -0.084526  -0.159044  0  3.947178  0
C  C251  1  0.62545594  0.96301159  0.07413822  1  0.014359  0  -0.084496  -0.158947  0  3.947026  0
C  C252  1  0.12545574  0.53699104  0.57413872  1  0.014283  0  -0.084488  -0.158939  0  3.947106  0
C  C253  1  0.37454353  0.03698987  0.92586112  1  0.014313  0  -0.084476  -0.158861  0  3.947028  0
C  C254  1  0.85982026  0.45866692  0.48955795  1  0.394602  0  0.111431  0.194201  0  3.953165  0
C  C255  1  0.64018016  0.95866985  0.01044194  1  0.394631  0  0.111485  0.194329  0  3.953  0
C  C256  1  0.14018140  0.54133248  0.51044262  1  0.394658  0  0.111395  0.194156  0  3.953112  0
C  C257  1  0.35981713  0.04133023  0.98955617  1  0.394635  0  0.111452  0.194221  0  3.95314  0
C  C258  1  0.91036700  0.39761630  0.53983079  1  -0.025401  0  -0.037325  -0.013864  0  4.054641  0
C  C259  1  0.58963144  0.89761773  0.96016962  1  -0.025251  0  -0.03731  -0.013919  0  4.054764  0
C  C260  1  0.08963175  0.60238448  0.46016892  1  -0.025345  0  -0.037336  -0.013906  0  4.054669  0
C  C261  1  0.41036730  0.10238305  0.03982915  1  -0.02523  0  -0.037323  -0.013932  0  4.054646  0
C  C262  1  0.89026960  0.41059331  0.60296381  1  -0.10424  0  -0.131145  -0.121892  0  3.961608  0
C  C263  1  0.60972807  0.91059512  0.89703552  1  -0.10433  0  -0.131157  -0.121938  0  3.961635  0
C  C264  1  0.10972915  0.58940609  0.39703638  1  -0.104336  0  -0.131162  -0.121865  0  3.961564  0
C  C265  1  0.39026994  0.08940565  0.10296269  1  -0.104176  0  -0.131185  -0.121902  0  3.961714  0
C  C266  1  0.94642670  0.35914610  0.65336077  1  -0.075306  0  -0.115832  -0.121112  0  4.053755  0
C  C267  1  0.55357186  0.85914493  0.84663978  1  -0.075278  0  -0.115817  -0.12108  0  4.053542  0
C  C268  1  0.05357205  0.64085399  0.34663895  1  -0.075337  0  -0.115866  -0.121175  0  4.053683  0
C  C269  1  0.44642688  0.14085447  0.15335804  1  -0.075352  0  -0.115791  -0.121047  0  4.053611  0
C  C270  1  0.01387913  0.29461473  0.64177462  1  -0.076126  0  -0.092193  -0.097916  0  4.003293  0
C  C271  1  0.48612080  0.79461266  0.85822592  1  -0.076201  0  -0.09221  -0.097937  0  4.003096  0
C  C272  1  0.98611962  0.70538536  0.35822462  1  -0.076126  0  -0.092182  -0.097911  0  4.003108  0
C  C273  1  0.51387794  0.20538675  0.14177191  1  -0.07633  0  -0.092219  -0.097968  0  4.003217  0
C  C274  1  0.02874493  0.27916297  0.57887112  1  -0.022291  0  -0.037063  -0.055641  0  4.033147  0
C  C275  1  0.47125505  0.77916188  0.92113090  1  -0.022272  0  -0.037003  -0.055449  0  4.03284  0
C  C276  1  0.97125382  0.72083712  0.42112955  1  -0.022255  0  -0.037006  -0.055471  0  4.032915  0
C  C277  1  0.52874515  0.22083616  0.07886806  1  -0.022206  0  -0.037027  -0.05552  0  4.033008  0
C  C278  1  0.97690910  0.33176004  0.52835584  1  -0.062384  0  -0.087952  -0.121216  0  3.958192  0
C  C279  1  0.52309101  0.83176016  0.97164642  1  -0.062459  0  -0.087982  -0.121318  0  3.958254  0
C  C280  1  0.02309038  0.66824073  0.47164539  1  -0.062435  0  -0.087943  -0.121244  0  3.958221  0
C  C281  1  0.47690991  0.16823925  0.02835216  1  -0.062496  0  -0.087979  -0.121312  0  3.958283  0
C  C282  1  0.10282596  0.21296325  0.56567766  1  1.523546  0  0.179869  0.549665  0  4.263438  0
C  C283  1  0.39717279  0.71296632  0.93432629  1  1.52371  0  0.179782  0.549543  0  4.263443  0
C  C284  1  0.89717207  0.78703547  0.43432338  1  1.523716  0  0.179738  0.549439  0  4.263563  0
C  C285  1  0.60282669  0.28703172  0.06567400  1  1.523694  0  0.179809  0.549504  0  4.263487  0
C  C286  1  0.64250621  0.66502876  0.60167486  1  0.397549  0  0.040698  0.069682  0  3.926596  0
C  C287  1  0.85749295  0.16503054  0.89832496  1  0.397256  0  0.040707  0.069653  0  3.926619  0
C  C288  1  0.35749544  0.33496927  0.39832523  1  0.397709  0  0.040696  0.06958  0  3.926691  0
C  C289  1  0.14250507  0.83497228  0.10167514  1  0.397531  0  0.040692  0.069571  0  3.926704  0
C  C290  1  0.55437176  0.71055685  0.59532663  1  -0.021998  0  -0.08978  -0.129219  0  3.971701  0
C  C291  1  0.94562726  0.21055842  0.90467208  1  -0.021764  0  -0.089804  -0.129293  0  3.971826  0
C  C292  1  0.44562916  0.28944324  0.40467195  1  -0.022284  0  -0.089818  -0.129249  0  3.971797  0
C  C293  1  0.05436859  0.78944646  0.09532820  1  -0.021934  0  -0.089807  -0.129313  0  3.971934  0
C  C294  1  0.46905473  0.65885751  0.58501077  1  -0.079396  0  -0.075072  -0.035793  0  4.001228  0
C  C295  1  0.03094126  0.15885774  0.91498826  1  -0.079368  0  -0.075086  -0.035743  0  4.001188  0
C  C296  1  0.53094473  0.34114395  0.41498620  1  -0.079353  0  -0.075111  -0.035777  0  4.001187  0
C  C297  1  0.96905533  0.84114782  0.08501497  1  -0.079308  0  -0.075007  -0.035537  0  4.001314  0
C  C298  1  0.47472927  0.56420197  0.58157541  1  -0.016087  0  -0.08516  -0.160036  0  3.945702  0
C  C299  1  0.02526774  0.06420220  0.91842500  1  -0.015982  0  -0.085117  -0.159889  0  3.945647  0
C  C300  1  0.52526946  0.43579948  0.41842099  1  -0.016086  0  -0.085187  -0.159977  0  3.945662  0
C  C301  1  0.97473322  0.93580405  0.08158068  1  -0.016692  0  -0.085186  -0.160097  0  3.945798  0
C  C302  1  0.56560586  0.52168778  0.58814118  1  0.465744  0  0.111459  0.186248  0  3.963757  0
C  C303  1  0.93439085  0.02169001  0.91185926  1  0.466276  0  0.111393  0.186066  0  3.963966  0
C  C304  1  0.43439142  0.47831094  0.41185598  1  0.466333  0  0.111459  0.186205  0  3.963818  0
C  C305  1  0.06560938  0.97831487  0.08814492  1  0.466544  0  0.111452  0.18624  0  3.963884  0
C  C306  1  0.58164799  0.42349630  0.58256007  1  -0.024576  0  -0.034791  -0.010846  0  4.048673  0
C  C307  1  0.91834821  0.92349944  0.91744187  1  -0.02508  0  -0.034793  -0.010767  0  4.048769  0
C  C308  1  0.41835002  0.57650173  0.41743766  1  -0.025134  0  -0.034806  -0.010879  0  4.048831  0
C  C309  1  0.08165347  0.07650544  0.08256202  1  -0.02466  0  -0.034797  -0.010891  0  4.048823  0
C  C310  1  0.67923586  0.39555762  0.58238363  1  -0.150791  0  -0.126669  -0.118779  0  3.933805  0
C  C311  1  0.82076115  0.89556094  0.91761803  1  -0.150782  0  -0.126671  -0.118825  0  3.93401  0
C  C312  1  0.32076217  0.60444110  0.41761599  1  -0.150714  0  -0.126629  -0.11872  0  3.933777  0
C  C313  1  0.17923979  0.10444257  0.08238387  1  -0.150868  0  -0.126716  -0.118846  0  3.933887  0
C  C314  1  0.69345752  0.30106494  0.57358548  1  0.00794  0  -0.112401  -0.112952  0  4.029773  0
C  C315  1  0.80653905  0.80106755  0.92641453  1  0.007659  0  -0.112382  -0.11289  0  4.029729  0
C  C316  1  0.30654051  0.69893378  0.42641462  1  0.007675  0  -0.112422  -0.112994  0  4.029841  0
C  C317  1  0.19346188  0.19893665  0.07358547  1  0.007878  0  -0.112341  -0.112892  0  4.029711  0
C  C318  1  0.61851532  0.23747076  0.56974706  1  -0.151849  0  -0.091113  -0.095453  0  3.972998  0
C  C319  1  0.88148071  0.73747251  0.93025213  1  -0.151786  0  -0.091113  -0.095411  0  3.973042  0
C  C320  1  0.38148197  0.76252728  0.43025200  1  -0.151783  0  -0.091106  -0.095416  0  3.973111  0
C  C321  1  0.11852094  0.26253168  0.06974749  1  -0.15186  0  -0.09121  -0.09546  0  3.973301  0
C  C322  1  0.52388065  0.26617847  0.57288474  1  0.069593  0  -0.039433  -0.069878  0  4.02993  0
C  C323  1  0.97611603  0.76618006  0.92711492  1  0.069278  0  -0.03939  -0.069873  0  4.029987  0
C  C324  1  0.47611664  0.73382025  0.42711242  1  0.069153  0  -0.039378  -0.069794  0  4.029989  0
C  C325  1  0.02388709  0.23382413  0.07288632  1  0.069191  0  -0.039443  -0.069997  0  4.030195  0
C  C326  1  0.50672578  0.35984055  0.57879245  1  -0.093995  0  -0.088098  -0.120492  0  3.956481  0
C  C327  1  0.99327061  0.85984352  0.92120924  1  -0.093368  0  -0.088088  -0.120521  0  3.95658  0
C  C328  1  0.49327077  0.64015817  0.42120414  1  -0.093205  0  -0.088115  -0.12052  0  3.956675  0
C  C329  1  0.00673179  0.14016341  0.07879474  1  -0.093092  0  -0.088115  -0.120441  0  3.956501  0
C  C330  1  0.44127621  0.20124943  0.56799933  1  1.499189  0  0.195593  0.569756  0  4.222257  0
C  C331  1  0.05872254  0.70125384  0.93199898  1  1.499115  0  0.195456  0.56951  0  4.22234  0
C  C332  1  0.55872398  0.79874587  0.43199820  1  1.499227  0  0.195477  0.569467  0  4.222409  0
C  C333  1  0.94127839  0.29875104  0.06800197  1  1.499121  0  0.195534  0.569658  0  4.222466  0
C  C334  1  0.13232122  0.37554009  0.92147730  1  1.350922  0  0.180008  0.316938  0  4.096837  0
C  C335  1  0.36768137  0.87553940  0.57852474  1  1.350976  0  0.180052  0.316999  0  4.096869  0
C  C336  1  0.86768262  0.62446137  0.07852450  1  1.350975  0  0.180083  0.317103  0  4.096879  0
C  C337  1  0.63232174  0.12445795  0.42147554  1  1.350739  0  0.180097  0.317125  0  4.096703  0
C  C338  1  0.25812055  0.32035059  0.86574860  1  0.295869  0  -0.056335  -0.01407  0  3.932718  0
C  C339  1  0.24187930  0.82034568  0.63425137  1  0.295676  0  -0.056427  -0.014138  0  3.932597  0
C  C340  1  0.74187747  0.67964949  0.13425102  1  0.295851  0  -0.056357  -0.014052  0  3.932583  0
C  C341  1  0.75812309  0.17965236  0.36574929  1  0.29566  0  -0.056369  -0.014036  0  3.932705  0
C  C342  1  0.25115395  0.22888765  0.83018129  1  -0.069303  0  -0.245356  -0.389965  0  3.948215  0
C  C343  1  0.24884835  0.72888249  0.66981691  1  -0.06973  0  -0.245373  -0.390041  0  3.947987  0
C  C344  1  0.74884408  0.77111312  0.16982023  1  -0.069182  0  -0.245322  -0.390032  0  3.948162  0
C  C345  1  0.75115621  0.27111555  0.33018261  1  -0.069347  0  -0.245311  -0.389902  0  3.948056  0
C  C346  1  0.10484070  0.39598506  0.80565130  1  0.256891  0  -0.059903  -0.008044  0  3.899344  0
C  C347  1  0.39515748  0.89598013  0.69435152  1  0.257316  0  -0.059985  -0.008145  0  3.899679  0
C  C348  1  0.89515807  0.60401709  0.19435078  1  0.256836  0  -0.059943  -0.008069  0  3.899585  0
C  C349  1  0.60484708  0.10401722  0.30564895  1  0.257301  0  -0.059976  -0.008117  0  3.89966  0
C  C350  1  0.12293146  0.49757633  0.79621278  1  -0.076405  0  -0.246822  -0.39135  0  3.923628  0
C  C351  1  0.37706785  0.99757001  0.70378940  1  -0.076635  0  -0.246779  -0.391206  0  3.923519  0
C  C352  1  0.87706948  0.50242717  0.20378959  1  -0.076415  0  -0.246828  -0.391306  0  3.923681  0
C  C353  1  0.62293599  0.00242665  0.29621097  1  -0.076542  0  -0.246817  -0.391231  0  3.923624  0
C  C354  1  0.90259273  0.11492028  0.73746970  1  0.293847  0  -0.061241  -0.005775  0  3.92409  0
C  C355  1  0.59740440  0.61492095  0.76252813  1  0.293863  0  -0.061297  -0.005886  0  3.923923  0
C  C356  1  0.09740312  0.88508049  0.26253107  1  0.293794  0  -0.061284  -0.005897  0  3.924024  0
C  C357  1  0.40259580  0.38507914  0.23747131  1  0.293835  0  -0.061293  -0.005817  0  3.9238  0
C  C358  1  0.90765407  0.07455221  0.62395798  1  1.387496  0  0.176249  0.318642  0  4.088487  0
C  C359  1  0.59234464  0.57455693  0.87603970  1  1.387221  0  0.176302  0.318795  0  4.088209  0
C  C360  1  0.09234178  0.92544651  0.37604278  1  1.387152  0  0.176338  0.318786  0  4.088286  0
C  C361  1  0.40765338  0.42544726  0.12395945  1  1.386965  0  0.176277  0.318694  0  4.088233  0
C  C362  1  0.00125260  0.98451515  0.71058373  1  0.284091  0  -0.06235  -0.015388  0  3.926385  0
C  C363  1  0.49874892  0.48451669  0.78941688  1  0.284027  0  -0.062352  -0.015376  0  3.92636  0
C  C364  1  0.99874688  0.01548699  0.28941703  1  0.284106  0  -0.062309  -0.015364  0  3.926352  0
C  C365  1  0.50125202  0.51548545  0.21058359  1  0.283987  0  -0.06241  -0.015564  0  3.926539  0
C  C366  1  0.10684493  0.01532834  0.73007503  1  -0.112612  0  -0.247741  -0.394668  0  3.940775  0
C  C367  1  0.39315441  0.51532840  0.76992442  1  -0.112647  0  -0.247752  -0.394711  0  3.940742  0
C  C368  1  0.89315455  0.98467380  0.26992526  1  -0.112601  0  -0.247722  -0.39471  0  3.940833  0
C  C369  1  0.60684508  0.48467169  0.23007729  1  -0.112618  0  -0.247699  -0.394568  0  3.940603  0
C  C370  1  0.82233440  0.18332188  0.71380310  1  -0.067722  0  -0.253175  -0.401901  0  3.955269  0
C  C371  1  0.67766470  0.68332155  0.78619476  1  -0.067658  0  -0.253098  -0.401799  0  3.955069  0
C  C372  1  0.17766291  0.81667958  0.28619880  1  -0.067676  0  -0.253149  -0.4019  0  3.955051  0
C  C373  1  0.32233623  0.31668059  0.21380477  1  -0.067704  0  -0.253122  -0.401828  0  3.955024  0
N  N374  1  0.87065207  0.60367898  0.65007756  1  -1.190026  0  -0.324619  -0.171586  0  3.605593  0
N  N375  1  0.62934581  0.10367741  0.84991755  1  -1.190009  0  -0.32465  -0.171492  0  3.605591  0
N  N376  1  0.12934449  0.39632179  0.34992140  1  -1.189933  0  -0.324622  -0.171632  0  3.605614  0
N  N377  1  0.37065366  0.89632131  0.15007989  1  -1.190101  0  -0.324642  -0.171611  0  3.60562  0
N  N378  1  0.79675639  0.51790625  0.50997896  1  -1.189233  0  -0.325106  -0.1739  0  3.601695  0
N  N379  1  0.70324323  0.01790840  0.99001996  1  -1.189297  0  -0.325113  -0.173965  0  3.601703  0
N  N380  1  0.20324381  0.48209384  0.49002047  1  -1.189229  0  -0.325081  -0.173857  0  3.601599  0
N  N381  1  0.29675480  0.98209374  0.00997919  1  -1.189279  0  -0.325179  -0.173992  0  3.601729  0
N  N382  1  0.64849045  0.57317160  0.59830947  1  -1.1654  0  -0.325139  -0.171946  0  3.606576  0
N  N383  1  0.85150683  0.07317337  0.90169040  1  -1.165458  0  -0.325102  -0.17183  0  3.606551  0
N  N384  1  0.35150830  0.42682780  0.40169025  1  -1.165404  0  -0.325131  -0.171893  0  3.606504  0
N  N385  1  0.14849193  0.92682945  0.09831074  1  -1.165582  0  -0.325117  -0.171879  0  3.606484  0
N  N386  1  0.16325252  0.36143000  0.86631728  1  -1.166124  0  -0.275375  -0.067677  0  3.645661  0
N  N387  1  0.33674938  0.86142764  0.63368472  1  -1.166243  0  -0.275258  -0.067635  0  3.645713  0
N  N388  1  0.83674841  0.63857145  0.13368414  1  -1.16612  0  -0.275361  -0.067726  0  3.645598  0
N  N389  1  0.66325373  0.13857039  0.36631557  1  -1.166136  0  -0.275436  -0.067838  0  3.645776  0
N  N390  1  0.93439531  0.05950507  0.68746981  1  -1.184801  0  -0.273724  -0.065162  0  3.637027  0
N  N391  1  0.56560418  0.55950547  0.81252944  1  -1.184547  0  -0.273764  -0.065225  0  3.637064  0
N  N392  1  0.06560272  0.94049571  0.31253123  1  -1.184443  0  -0.273757  -0.065145  0  3.636914  0
N  N393  1  0.43439674  0.44049668  0.18747009  1  -1.184472  0  -0.273754  -0.065151  0  3.636951  0
O  O394  1  0.76902294  0.36861811  0.92650761  1  -1.151595  0  -0.321235  -0.539526  0  2.261647  0
O  O395  1  0.73098579  0.86859993  0.57349945  1  -1.151913  0  -0.321401  -0.539791  0  2.261685  0
O  O396  1  0.23098091  0.63138951  0.07349562  1  -1.151777  0  -0.321325  -0.53965  0  2.261563  0
O  O397  1  0.26901225  0.13138785  0.42650397  1  -1.151785  0  -0.321299  -0.539659  0  2.261657  0
O  O398  1  0.84310940  0.50510203  0.94608220  1  -1.192853  0  -0.351132  -0.625059  0  2.311387  0
O  O399  1  0.65690116  0.00508252  0.55391771  1  -1.192706  0  -0.351097  -0.625073  0  2.310881  0
O  O400  1  0.15689588  0.49490558  0.05391552  1  -1.192649  0  -0.351183  -0.625182  0  2.311205  0
O  O401  1  0.34310632  0.99490731  0.44608409  1  -1.192593  0  -0.351149  -0.625115  0  2.311151  0
O  O402  1  0.11602876  0.20839571  0.50723871  1  -1.16237  0  -0.343006  -0.572579  0  2.224741  0
O  O403  1  0.38396855  0.70840253  0.99276460  1  -1.162583  0  -0.342984  -0.572619  0  2.224752  0
O  O404  1  0.88397218  0.79160232  0.49276272  1  -1.162422  0  -0.342939  -0.572521  0  2.224799  0
O  O405  1  0.61603457  0.29159414  0.00723615  1  -1.162607  0  -0.342981  -0.572534  0  2.224674  0
O  O406  1  0.15237989  0.16578478  0.61152776  1  -1.184532  0  -0.349039  -0.595982  0  2.141924  0
O  O407  1  0.34761683  0.66578756  0.88847750  1  -1.184406  0  -0.348976  -0.595855  0  2.141858  0
O  O408  1  0.84761524  0.83421189  0.38847433  1  -1.184547  0  -0.348977  -0.595844  0  2.141907  0
O  O409  1  0.65237974  0.33421458  0.11152194  1  -1.184366  0  -0.34904  -0.595883  0  2.141865  0
O  O410  1  0.35752213  0.23429153  0.56986247  1  -1.151567  0  -0.323114  -0.547473  0  2.260476  0
O  O411  1  0.14247726  0.73429853  0.93013771  1  -1.151643  0  -0.323059  -0.547361  0  2.260431  0
O  O412  1  0.64247880  0.76570171  0.43013706  1  -1.151687  0  -0.323073  -0.547362  0  2.260442  0
O  O413  1  0.85752586  0.26570361  0.06986541  1  -1.151555  0  -0.323073  -0.547406  0  2.260556  0
O  O414  1  0.45295234  0.11475160  0.56240751  1  -1.193649  0  -0.34258  -0.627103  0  2.358169  0
O  O415  1  0.04704812  0.61475463  0.93758846  1  -1.193554  0  -0.342551  -0.626992  0  2.358118  0
O  O416  1  0.54704930  0.88524575  0.43758927  1  -1.19354  0  -0.342563  -0.627001  0  2.358153  0
O  O417  1  0.95295208  0.38525093  0.06241098  1  -1.19364  0  -0.342559  -0.62707  0  2.358249  0
O  O418  1  0.05047589  0.40888530  0.92305400  1  -1.162237  0  -0.306285  -0.474684  0  2.368978  0
O  O419  1  0.44952951  0.90888515  0.57695020  1  -1.162345  0  -0.306392  -0.474787  0  2.369018  0
O  O420  1  0.94952651  0.59111753  0.07694951  1  -1.162281  0  -0.30636  -0.47479  0  2.369134  0
O  O421  1  0.55047505  0.09111083  0.42305027  1  -1.162166  0  -0.306344  -0.474799  0  2.3689  0
O  O422  1  0.16071483  0.98843808  0.53629495  1  -1.219762  0  -0.573541  -0.753392  0  2.056014  0
O  O423  1  0.33927797  0.48843741  0.96370689  1  -1.219739  0  -0.57363  -0.753486  0  2.055773  0
O  O424  1  0.83927958  0.01156132  0.46370704  1  -1.21956  0  -0.573636  -0.753503  0  2.055758  0
O  O425  1  0.66071932  0.51156131  0.03629217  1  -1.219888  0  -0.573662  -0.753533  0  2.0557  0
O  O426  1  0.93895793  0.02934317  0.58167590  1  -1.179674  0  -0.308904  -0.473789  0  2.230068  0
O  O427  1  0.56104094  0.52934836  0.91832431  1  -1.179807  0  -0.30894  -0.4739  0  2.229924  0
O  O428  1  0.06103721  0.97065623  0.41832619  1  -1.17975  0  -0.308962  -0.47385  0  2.229908  0
O  O429  1  0.43895709  0.47065789  0.08167626  1  -1.179622  0  -0.30891  -0.473814  0  2.229886  0
