# generated using pymatgen
data_CdH16C24S(N2O3)2
_symmetry_space_group_name_H-M   'P 1'
_cell_length_a   14.49018755
_cell_length_b   19.91242562
_cell_length_c   20.45706598
_cell_angle_alpha   89.99953152
_cell_angle_beta   95.46759333
_cell_angle_gamma   90.00005420
_symmetry_Int_Tables_number   1
_chemical_formula_structural   CdH16C24S(N2O3)2
_chemical_formula_sum   'Cd8 H128 C192 S8 N32 O48'
_cell_volume   5875.71982792
_cell_formula_units_Z   8
loop_
 _symmetry_equiv_pos_site_id
 _symmetry_equiv_pos_as_xyz
  1  'x, y, z'
loop_
 _atom_site_type_symbol
 _atom_site_label
 _atom_site_symmetry_multiplicity
 _atom_site_fract_x
 _atom_site_fract_y
 _atom_site_fract_z
 _atom_site_occupancy
 _atom_site_pbe_bader_charge
 _atom_site_pbe_bader_spin_density
 _atom_site_pbe_cm5_charge
 _atom_site_pbe_ddec_charge
 _atom_site_pbe_ddec_spin_density
 _atom_site_pbe_ddec_sum_bond_order
 _atom_site_pbe_magmom
Cd  Cd0  1  0.37626003  0.45480679  0.66651077  1  1.282033  0  0.77375  0.880805  0  2.191877  0
Cd  Cd1  1  0.13884179  0.54518393  0.67171561  1  1.299756  0  0.77221  0.880475  0  2.187733  0
Cd  Cd2  1  0.12372809  0.95481250  0.33348568  1  1.282169  0  0.7738  0.880896  0  2.19179  0
Cd  Cd3  1  0.36116223  0.04518208  0.32829387  1  1.29971  0  0.772177  0.880486  0  2.187842  0
Cd  Cd4  1  0.62372110  0.54518350  0.33348554  1  1.282299  0  0.773739  0.880824  0  2.191764  0
Cd  Cd5  1  0.86115683  0.45482093  0.32829547  1  1.299577  0  0.772164  0.880425  0  2.187842  0
Cd  Cd6  1  0.87627305  0.04518935  0.66650355  1  1.282152  0  0.773772  0.880889  0  2.191678  0
Cd  Cd7  1  0.63882312  0.95482329  0.67170758  1  1.299578  0  0.772195  0.880492  0  2.187905  0
H  H8  1  0.39146509  0.52749647  0.33675546  1  0.539594  0  0.310114  0.290975  0  0.998508  0
H  H9  1  0.33705017  0.41214477  0.00156542  1  0.465515  0  0.321962  0.271878  0  0.942718  0
H  H10  1  0.09645172  0.47286766  0.33903744  1  0.536739  0  0.310583  0.290871  0  0.99696  0
H  H11  1  0.17065535  0.58385252  0.01393703  1  0.454489  0  0.322444  0.272973  0  0.943462  0
H  H12  1  0.34820090  0.56591205  0.24472914  1  0.121296  0  0.111226  0.117792  0  1.008602  0
H  H13  1  0.36073080  0.59085326  0.12728333  1  0.119951  0  0.106854  0.108593  0  0.99508  0
H  H14  1  0.38408491  0.37901435  0.08782492  1  0.064932  0  0.103155  0.095011  0  1.003766  0
H  H15  1  0.36632347  0.35435488  0.20444617  1  0.116  0  0.10735  0.109376  0  1.010062  0
H  H16  1  0.40404373  0.56346454  0.55679208  1  0.099911  0  0.11531  0.088448  0  1.013381  0
H  H17  1  0.40010253  0.57665682  0.43568326  1  0.1326  0  0.114567  0.138042  0  0.998601  0
H  H18  1  0.32353367  0.36726751  0.41719564  1  0.140543  0  0.112336  0.137713  0  1.026703  0
H  H19  1  0.32978909  0.36298826  0.53947828  1  0.072162  0  0.120482  0.094719  0  0.977162  0
H  H20  1  0.42511987  0.55111601  0.78811057  1  0.099704  0  0.116055  0.089137  0  1.014489  0
H  H21  1  0.41334581  0.56024196  0.90879702  1  0.146261  0  0.109739  0.134576  0  1.027337  0
H  H22  1  0.31961957  0.35401846  0.90369348  1  0.060358  0  0.110804  0.123355  0  0.985337  0
H  H23  1  0.33181539  0.35490987  0.78257596  1  0.127879  0  0.122551  0.097994  0  0.98275  0
H  H24  1  0.11943135  0.64614897  0.20769407  1  0.112653  0  0.109134  0.112408  0  1.00244  0
H  H25  1  0.10528781  0.62030078  0.08843736  1  0.050281  0  0.104288  0.098668  0  1.00056  0
H  H26  1  0.12095160  0.40880954  0.13314861  1  0.087399  0  0.108568  0.111845  0  0.989129  0
H  H27  1  0.12926861  0.43452465  0.25188866  1  0.110062  0  0.11072  0.116618  0  1.016835  0
H  H28  1  0.16521459  0.63872455  0.54829016  1  0.100118  0  0.118326  0.09208  0  0.981969  0
H  H29  1  0.16489506  0.63420376  0.42627578  1  0.144505  0  0.112065  0.138825  0  1.025809  0
H  H30  1  0.09299406  0.42421572  0.43722863  1  0.101857  0  0.113487  0.136054  0  1.001255  0
H  H31  1  0.09403576  0.43783032  0.55801070  1  0.100964  0  0.114455  0.086688  0  1.017316  0
H  H32  1  0.20018456  0.64076545  0.79776175  1  0.113376  0  0.123618  0.098968  0  0.972347  0
H  H33  1  0.20067642  0.64153280  0.91988064  1  0.058528  0  0.111523  0.124445  0  0.984345  0
H  H34  1  0.09605355  0.43820400  0.90708401  1  0.133388  0  0.109379  0.134411  0  1.030457  0
H  H35  1  0.09901468  0.44659073  0.78564757  1  0.156017  0  0.116207  0.090556  0  1.021009  0
H  H36  1  0.24582490  0.71067816  0.66311178  1  0.147514  0  0.106831  0.138876  0  1.023377  0
H  H37  1  0.31726346  0.83304097  0.66243998  1  0.142386  0  0.103789  0.12841  0  1.042867  0
H  H38  1  0.26681002  0.28920014  0.66054821  1  0.15944  0  0.106983  0.139627  0  1.023698  0
H  H39  1  0.19511905  0.16704424  0.65891956  1  0.152021  0  0.103238  0.128935  0  1.046874  0
H  H40  1  0.10852771  0.02749866  0.66324271  1  0.539492  0  0.310144  0.291095  0  0.998471  0
H  H41  1  0.16295251  0.91214439  0.99843374  1  0.465502  0  0.32199  0.271936  0  0.942592  0
H  H42  1  0.40354969  0.97286375  0.66096996  1  0.528857  0  0.310543  0.290773  0  0.996918  0
H  H43  1  0.32934585  0.08384862  0.98606562  1  0.454577  0  0.322503  0.273054  0  0.943327  0
H  H44  1  0.15180299  0.06591249  0.75526795  1  0.121048  0  0.111247  0.117792  0  1.008557  0
H  H45  1  0.13927379  0.09085371  0.87271409  1  0.119964  0  0.106835  0.108561  0  0.99511  0
H  H46  1  0.11592263  0.87901567  0.91217675  1  0.064807  0  0.10314  0.095007  0  1.003838  0
H  H47  1  0.13368546  0.85435719  0.79555627  1  0.11604  0  0.107364  0.109378  0  1.010092  0
H  H48  1  0.09594698  0.06346557  0.44320372  1  0.100422  0  0.115358  0.088428  0  1.013449  0
H  H49  1  0.09988682  0.07665682  0.56431382  1  0.132439  0  0.114632  0.138104  0  0.998578  0
H  H50  1  0.17647453  0.86727667  0.58280324  1  0.140813  0  0.112351  0.137794  0  1.026736  0
H  H51  1  0.17022122  0.86299493  0.46052320  1  0.072148  0  0.120421  0.094671  0  0.977023  0
H  H52  1  0.07487847  0.05112299  0.21188629  1  0.099976  0  0.116086  0.089126  0  1.01436  0
H  H53  1  0.08665602  0.06024243  0.09120194  1  0.146646  0  0.109744  0.134586  0  1.027435  0
H  H54  1  0.18038172  0.85401715  0.09630752  1  0.060381  0  0.110796  0.123331  0  0.985265  0
H  H55  1  0.16817831  0.85491407  0.21742701  1  0.127924  0  0.122519  0.09798  0  0.982954  0
H  H56  1  0.38056431  0.14614322  0.79230774  1  0.112681  0  0.109101  0.112362  0  1.002476  0
H  H57  1  0.39471338  0.12029554  0.91156353  1  0.050486  0  0.1043  0.098674  0  1.000532  0
H  H58  1  0.37905113  0.90880488  0.86685449  1  0.087774  0  0.108557  0.111829  0  0.989299  0
H  H59  1  0.37072997  0.93452299  0.74811495  1  0.110038  0  0.110769  0.116705  0  1.016825  0
H  H60  1  0.33477903  0.13872515  0.45171500  1  0.100095  0  0.118386  0.092203  0  0.982009  0
H  H61  1  0.33509509  0.13420083  0.57372823  1  0.144499  0  0.112134  0.138866  0  1.025813  0
H  H62  1  0.40701563  0.92421766  0.56277722  1  0.101807  0  0.113461  0.136079  0  1.001225  0
H  H63  1  0.40597324  0.93783479  0.44199500  1  0.1009  0  0.114384  0.086593  0  1.017351  0
H  H64  1  0.29981588  0.14076009  0.20223404  1  0.113571  0  0.123596  0.098891  0  0.972311  0
H  H65  1  0.29932752  0.14152546  0.08011781  1  0.058724  0  0.111514  0.124461  0  0.984405  0
H  H66  1  0.40396726  0.93820035  0.09292437  1  0.133426  0  0.109401  0.134461  0  1.03031  0
H  H67  1  0.40099921  0.94659159  0.21436129  1  0.155892  0  0.116216  0.090568  0  1.021036  0
H  H68  1  0.25417147  0.21068168  0.33688858  1  0.147592  0  0.106833  0.138883  0  1.023425  0
H  H69  1  0.18273643  0.33304395  0.33756061  1  0.142413  0  0.103818  0.128414  0  1.042985  0
H  H70  1  0.23318918  0.78919782  0.33945464  1  0.159448  0  0.107007  0.139549  0  1.023757  0
H  H71  1  0.30487927  0.66704497  0.34107100  1  0.15203  0  0.103207  0.128854  0  1.04699  0
H  H72  1  0.60852430  0.47249734  0.66323598  1  0.539442  0  0.310131  0.291013  0  0.998572  0
H  H73  1  0.66295310  0.58786160  0.99842835  1  0.465358  0  0.322021  0.272013  0  0.942553  0
H  H74  1  0.90354893  0.52713217  0.66096936  1  0.528967  0  0.310538  0.290811  0  0.997006  0
H  H75  1  0.82934946  0.41614932  0.98606954  1  0.454642  0  0.322518  0.273029  0  0.943414  0
H  H76  1  0.65180448  0.43408728  0.75526720  1  0.120989  0  0.111208  0.117724  0  1.008608  0
H  H77  1  0.63927876  0.40914859  0.87271522  1  0.120025  0  0.106787  0.108549  0  0.995105  0
H  H78  1  0.61593080  0.62098649  0.91216619  1  0.065051  0  0.103199  0.095101  0  1.003855  0
H  H79  1  0.63368809  0.64564395  0.79554517  1  0.115881  0  0.107383  0.109459  0  1.010043  0
H  H80  1  0.59594361  0.43653429  0.44320168  1  0.100316  0  0.115377  0.088459  0  1.013465  0
H  H81  1  0.59988760  0.42334151  0.56431214  1  0.132337  0  0.114634  0.138076  0  0.998582  0
H  H82  1  0.67645641  0.63272630  0.58279536  1  0.140654  0  0.112347  0.137779  0  1.026685  0
H  H83  1  0.67020101  0.63700956  0.46051467  1  0.072166  0  0.120506  0.094771  0  0.977228  0
H  H84  1  0.57488062  0.44888081  0.21188205  1  0.100136  0  0.116093  0.089169  0  1.01452  0
H  H85  1  0.58665608  0.43976139  0.09119666  1  0.146676  0  0.109731  0.134604  0  1.027381  0
H  H86  1  0.68037822  0.64598439  0.09630533  1  0.060213  0  0.110814  0.123404  0  0.985319  0
H  H87  1  0.66817545  0.64508946  0.21742095  1  0.127954  0  0.12255  0.098036  0  0.982839  0
H  H88  1  0.88056928  0.35385388  0.79231127  1  0.112623  0  0.109097  0.112343  0  1.002437  0
H  H89  1  0.89471419  0.37970006  0.91156659  1  0.050467  0  0.104249  0.098612  0  1.000566  0
H  H90  1  0.87905247  0.59118879  0.86685449  1  0.087301  0  0.108573  0.111818  0  0.989156  0
H  H91  1  0.87073478  0.56547821  0.74811586  1  0.110062  0  0.110706  0.116601  0  1.016759  0
H  H92  1  0.83478810  0.36127378  0.45171335  1  0.100091  0  0.118358  0.092203  0  0.981873  0
H  H93  1  0.83510556  0.36579658  0.57372760  1  0.14438  0  0.112095  0.138824  0  1.025794  0
H  H94  1  0.90701143  0.57578362  0.56277749  1  0.101798  0  0.1135  0.136076  0  1.001238  0
H  H95  1  0.90596628  0.56217002  0.44199619  1  0.10098  0  0.114429  0.086655  0  1.017281  0
H  H96  1  0.79981119  0.35923389  0.20224084  1  0.113304  0  0.12359  0.098977  0  0.972372  0
H  H97  1  0.79933112  0.35846554  0.08012268  1  0.05865  0  0.111547  0.124512  0  0.984285  0
H  H98  1  0.90395890  0.56179182  0.09292498  1  0.133696  0  0.109348  0.13437  0  1.030487  0
H  H99  1  0.90098667  0.55340459  0.21435977  1  0.156481  0  0.116237  0.090615  0  1.020926  0
H  H100  1  0.75416873  0.28931867  0.33688676  1  0.147298  0  0.106836  0.138908  0  1.023417  0
H  H101  1  0.68274061  0.16695736  0.33756263  1  0.142354  0  0.103822  0.128413  0  1.042958  0
H  H102  1  0.73318987  0.71080020  0.33945268  1  0.159429  0  0.106999  0.139577  0  1.023717  0
H  H103  1  0.80487737  0.83295610  0.34108062  1  0.151922  0  0.103229  0.128896  0  1.046924  0
H  H104  1  0.89147075  0.97250871  0.33675418  1  0.53919  0  0.310112  0.290927  0  0.998592  0
H  H105  1  0.83705636  0.08785043  0.00156477  1  0.46553  0  0.322022  0.271968  0  0.942618  0
H  H106  1  0.59645092  0.02713609  0.33903342  1  0.536617  0  0.31051  0.290772  0  0.997008  0
H  H107  1  0.67064639  0.91614971  0.01393236  1  0.454622  0  0.322528  0.273106  0  0.943436  0
H  H108  1  0.84820726  0.93408986  0.24473016  1  0.121356  0  0.11126  0.117815  0  1.008545  0
H  H109  1  0.86073649  0.90914764  0.12728744  1  0.119992  0  0.106857  0.10857  0  0.99518  0
H  H110  1  0.88409594  0.12098015  0.08782187  1  0.064513  0  0.103173  0.095037  0  1.003738  0
H  H111  1  0.86633100  0.14564465  0.20443928  1  0.116098  0  0.107404  0.109512  0  1.010054  0
H  H112  1  0.90404037  0.93653728  0.55679150  1  0.100001  0  0.115323  0.088468  0  1.013336  0
H  H113  1  0.90010540  0.92334753  0.43568317  1  0.132373  0  0.114626  0.138087  0  0.998571  0
H  H114  1  0.82353847  0.13273673  0.41719357  1  0.140382  0  0.112389  0.137859  0  1.02666  0
H  H115  1  0.82978557  0.13701193  0.53947469  1  0.083405  0  0.120477  0.094684  0  0.977181  0
H  H116  1  0.92512206  0.94888237  0.78811024  1  0.09964  0  0.116031  0.08907  0  1.014464  0
H  H117  1  0.91335147  0.93975439  0.90879697  1  0.146369  0  0.109755  0.134566  0  1.027364  0
H  H118  1  0.81961886  0.14597716  0.90369292  1  0.060518  0  0.110786  0.123393  0  0.985287  0
H  H119  1  0.83181188  0.14508677  0.78257377  1  0.128013  0  0.122543  0.09802  0  0.982784  0
H  H120  1  0.61943563  0.85384909  0.20769804  1  0.112581  0  0.109108  0.11244  0  1.002405  0
H  H121  1  0.60529071  0.87969727  0.08844104  1  0.050307  0  0.104299  0.098645  0  1.000604  0
H  H122  1  0.62094943  0.09118843  0.13314449  1  0.087335  0  0.108563  0.111853  0  0.989158  0
H  H123  1  0.62927062  0.06547534  0.25188696  1  0.110061  0  0.110732  0.116644  0  1.016809  0
H  H124  1  0.66521956  0.86128222  0.54829314  1  0.099772  0  0.118341  0.092127  0  0.981973  0
H  H125  1  0.66491111  0.86579951  0.42627941  1  0.144612  0  0.112127  0.138823  0  1.025896  0
H  H126  1  0.59299259  0.07578369  0.43722467  1  0.101898  0  0.1135  0.136057  0  1.001342  0
H  H127  1  0.59402942  0.06217359  0.55800557  1  0.100819  0  0.11446  0.086709  0  1.017308  0
H  H128  1  0.70016798  0.85923472  0.79775803  1  0.113568  0  0.12368  0.0989  0  0.97242  0
H  H129  1  0.70066331  0.85846685  0.91987861  1  0.05821  0  0.111568  0.12454  0  0.98419  0
H  H130  1  0.59604031  0.06179798  0.90708140  1  0.133431  0  0.109396  0.134384  0  1.030435  0
H  H131  1  0.59900420  0.05341026  0.78564470  1  0.155979  0  0.116209  0.090527  0  1.021094  0
H  H132  1  0.74582433  0.78931765  0.66311841  1  0.147489  0  0.106834  0.138886  0  1.023388  0
H  H133  1  0.81726351  0.66695489  0.66244468  1  0.142143  0  0.103795  0.128399  0  1.042958  0
H  H134  1  0.76681010  0.21080452  0.66055354  1  0.159475  0  0.106981  0.139584  0  1.023811  0
H  H135  1  0.69511777  0.33295738  0.65892287  1  0.15187  0  0.103226  0.128902  0  1.046919  0
C  C136  1  0.33982476  0.43669049  0.30030647  1  1.416216  0  0.248958  0.485108  0  4.099385  0
C  C137  1  0.37628043  0.50743692  0.02920228  1  1.365547  0  0.240363  0.475591  0  4.116255  0
C  C138  1  0.35538887  0.45781478  0.23189340  1  -0.068369  0  0.000913  -0.005736  0  3.942602  0
C  C139  1  0.35495880  0.52469321  0.21050162  1  0.00598  0  -0.074348  -0.086641  0  3.929706  0
C  C140  1  0.36161937  0.53910208  0.14458876  1  -0.013107  0  -0.07795  -0.081561  0  3.959658  0
C  C141  1  0.36949142  0.48742952  0.09892804  1  -0.110878  0  -0.021307  -0.053749  0  4.030511  0
C  C142  1  0.37283017  0.42053401  0.12102101  1  -0.056949  0  -0.089124  -0.115762  0  4.00727  0
C  C143  1  0.36515368  0.40595992  0.18666436  1  -0.020282  0  -0.077295  -0.086911  0  3.962069  0
C  C144  1  0.38527456  0.52135881  0.52427792  1  0.439901  0  0.040124  0.10118  0  3.985794  0
C  C145  1  0.38323632  0.52860030  0.45700089  1  0.043896  0  -0.088719  -0.226964  0  3.927514  0
C  C146  1  0.36030622  0.47309592  0.41601387  1  0.305309  0  0.125168  0.305286  0  3.982149  0
C  C147  1  0.34085438  0.41182852  0.44630208  1  0.020765  0  -0.091642  -0.232806  0  3.924037  0
C  C148  1  0.34453414  0.40960801  0.51439024  1  0.515266  0  0.044036  0.100667  0  3.980184  0
C  C149  1  0.40086726  0.50883826  0.81564487  1  0.466421  0  0.04905  0.115984  0  3.962436  0
C  C150  1  0.39539233  0.51391973  0.88278404  1  0.043851  0  -0.094959  -0.234221  0  3.940676  0
C  C151  1  0.36605621  0.45759495  0.91642942  1  0.351251  0  0.118364  0.294274  0  4.02563  0
C  C152  1  0.34320601  0.39905376  0.87983912  1  -0.049907  0  -0.094982  -0.245708  0  3.963005  0
C  C153  1  0.34979808  0.39910477  0.81267603  1  0.526693  0  0.048563  0.110752  0  3.971267  0
C  C154  1  0.14292767  0.56450707  0.30775439  1  1.391426  0  0.246855  0.482767  0  4.100287  0
C  C155  1  0.11538516  0.49205447  0.03259922  1  1.393974  0  0.240981  0.479435  0  4.110529  0
C  C156  1  0.12655576  0.54278324  0.23743816  1  -0.021019  0  -0.002236  -0.012466  0  3.945751  0
C  C157  1  0.11954661  0.59436680  0.19045152  1  -0.012665  0  -0.077766  -0.088122  0  3.964641  0
C  C158  1  0.11417595  0.57930613  0.12393283  1  -0.025069  0  -0.089011  -0.118627  0  4.013429  0
C  C159  1  0.11686374  0.51215368  0.10300148  1  -0.086086  0  -0.016492  -0.04396  0  4.016856  0
C  C160  1  0.12038466  0.46072530  0.14991158  1  -0.015103  0  -0.075614  -0.078872  0  3.947449  0
C  C161  1  0.12496824  0.47565840  0.21660067  1  -0.032859  0  -0.07465  -0.087886  0  3.928189  0
C  C162  1  0.14948952  0.59198198  0.52166097  1  0.439929  0  0.044444  0.104478  0  3.979078  0
C  C163  1  0.14964547  0.58965407  0.45380329  1  0.043399  0  -0.09372  -0.237889  0  3.930486  0
C  C164  1  0.12989380  0.52807155  0.42157465  1  0.362103  0  0.125674  0.30545  0  3.984864  0
C  C165  1  0.11016574  0.47244179  0.46033164  1  0.042587  0  -0.090276  -0.229157  0  3.935656  0
C  C166  1  0.11089704  0.47997349  0.52745410  1  0.446825  0  0.039156  0.101788  0  3.992185  0
C  C167  1  0.17794880  0.59683196  0.82405621  1  0.505864  0  0.049036  0.106561  0  3.977177  0
C  C168  1  0.17750392  0.59703556  0.89184913  1  -0.03556  0  -0.093898  -0.241481  0  3.954243  0
C  C169  1  0.14735200  0.53953615  0.92377865  1  0.351006  0  0.11798  0.295567  0  4.016063  0
C  C170  1  0.11971636  0.48371638  0.88486271  1  0.02775  0  -0.094961  -0.232812  0  3.936639  0
C  C171  1  0.12220811  0.48840871  0.81740929  1  0.45446  0  0.047142  0.112185  0  3.958961  0
C  C172  1  0.37768360  0.59895094  0.67207902  1  1.568246  0  0.186873  0.567266  0  4.288063  0
C  C173  1  0.99709824  0.15527542  0.66719888  1  1.565667  0  0.185488  0.570796  0  4.272724  0
C  C174  1  0.38775427  0.67258387  0.66986276  1  -0.242543  0  -0.034805  -0.143244  0  4.01462  0
C  C175  1  0.31969925  0.72194902  0.66526479  1  -0.080771  0  -0.099347  -0.10349  0  3.960546  0
C  C176  1  0.35795191  0.78709429  0.66471523  1  0.003172  0  -0.10298  -0.112195  0  3.982164  0
C  C177  1  0.45413495  0.78657302  0.66894813  1  -0.179579  0  -0.033573  -0.131814  0  4.010055  0
C  C178  1  0.13769729  0.40092476  0.67153308  1  1.567639  0  0.186155  0.56474  0  4.289167  0
C  C179  1  0.51726842  0.84491549  0.67106938  1  1.535606  0  0.185315  0.568654  0  4.275503  0
C  C180  1  0.12688941  0.32733906  0.66840426  1  -0.230573  0  -0.035478  -0.144207  0  4.019683  0
C  C181  1  0.19358699  0.27800207  0.66314201  1  -0.052532  0  -0.100474  -0.106969  0  3.964943  0
C  C182  1  0.15504045  0.21288895  0.66205975  1  -0.030249  0  -0.103834  -0.111929  0  3.985094  0
C  C183  1  0.06003632  0.21348150  0.66638599  1  -0.207298  0  -0.034154  -0.135643  0  4.016587  0
C  C184  1  0.16017241  0.93669112  0.69969508  1  1.416051  0  0.248955  0.485136  0  4.09926  0
C  C185  1  0.12371307  0.00743703  0.97079708  1  1.365527  0  0.24035  0.475551  0  4.116109  0
C  C186  1  0.14461870  0.95781533  0.76810765  1  -0.067847  0  0.000885  -0.005847  0  3.942611  0
C  C187  1  0.14504650  0.02469386  0.78949980  1  0.006159  0  -0.074432  -0.086684  0  3.929643  0
C  C188  1  0.13838316  0.03910217  0.85541139  1  -0.013015  0  -0.07789  -0.081478  0  3.959764  0
C  C189  1  0.13050575  0.98742944  0.90107116  1  -0.111018  0  -0.021335  -0.053758  0  4.030559  0
C  C190  1  0.12716975  0.92053461  0.87897889  1  -0.056483  0  -0.089056  -0.115694  0  4.00727  0
C  C191  1  0.13485592  0.90596259  0.81333479  1  -0.021053  0  -0.077291  -0.08688  0  3.96207  0
C  C192  1  0.11471683  0.02135957  0.47571875  1  0.4392  0  0.040129  0.101349  0  3.985948  0
C  C193  1  0.11674885  0.02860200  0.54299631  1  0.043918  0  -0.088801  -0.227147  0  3.927789  0
C  C194  1  0.13968400  0.97309902  0.58398403  1  0.305259  0  0.125188  0.305339  0  3.982253  0
C  C195  1  0.15914620  0.91183439  0.55369549  1  0.020864  0  -0.091569  -0.232876  0  3.924028  0
C  C196  1  0.15546991  0.90961396  0.48560755  1  0.51522  0  0.044123  0.100833  0  3.979897  0
C  C197  1  0.09912552  0.00883846  0.18435198  1  0.466093  0  0.04904  0.116049  0  3.962464  0
C  C198  1  0.10459975  0.01392200  0.11721225  1  0.043429  0  -0.094971  -0.234178  0  3.94055  0
C  C199  1  0.13393749  0.95759322  0.08357078  1  0.351225  0  0.118347  0.294211  0  4.02555  0
C  C200  1  0.15679253  0.89905475  0.12016184  1  -0.049888  0  -0.094933  -0.245528  0  3.962995  0
C  C201  1  0.15019560  0.89910519  0.18732463  1  0.526779  0  0.048487  0.110516  0  3.971343  0
C  C202  1  0.35707007  0.06449762  0.69225015  1  1.392371  0  0.246824  0.482607  0  4.10009  0
C  C203  1  0.38461966  0.99205148  0.96740237  1  1.394388  0  0.241013  0.479648  0  4.110492  0
C  C204  1  0.37343643  0.04277873  0.76256670  1  -0.02075  0  -0.002244  -0.012424  0  3.945843  0
C  C205  1  0.38045182  0.09436291  0.80955185  1  -0.012587  0  -0.077662  -0.088112  0  3.964696  0
C  C206  1  0.38582663  0.07930269  0.87607042  1  -0.025399  0  -0.088953  -0.118395  0  4.013392  0
C  C207  1  0.38313742  0.01214855  0.89700124  1  -0.08604  0  -0.016483  -0.044123  0  4.016749  0
C  C208  1  0.37961530  0.96071877  0.85009093  1  -0.015493  0  -0.07552  -0.078725  0  3.947529  0
C  C209  1  0.37503245  0.97565194  0.78340323  1  -0.0332  0  -0.07488  -0.08818  0  3.928427  0
C  C210  1  0.35050825  0.09198538  0.47834531  1  0.440106  0  0.044247  0.104018  0  3.979479  0
C  C211  1  0.35035091  0.08965288  0.54620195  1  0.043538  0  -0.093762  -0.237702  0  3.930388  0
C  C212  1  0.37010947  0.02806960  0.57843052  1  0.361873  0  0.125646  0.305267  0  3.98466  0
C  C213  1  0.38984120  0.97244291  0.53967415  1  0.043367  0  -0.090207  -0.229148  0  3.935671  0
C  C214  1  0.38910852  0.97997718  0.47255154  1  0.446268  0  0.039214  0.10191  0  3.992233  0
C  C215  1  0.32205720  0.09682785  0.17594272  1  0.505223  0  0.049071  0.106716  0  3.977167  0
C  C216  1  0.32250141  0.09703253  0.10815122  1  -0.035889  0  -0.093829  -0.241403  0  3.954211  0
C  C217  1  0.35265818  0.03953139  0.07622441  1  0.350454  0  0.118027  0.295708  0  4.015991  0
C  C218  1  0.38029959  0.98371304  0.11514354  1  0.028499  0  -0.095034  -0.233124  0  3.936792  0
C  C219  1  0.37780229  0.98840731  0.18259560  1  0.454423  0  0.047259  0.112516  0  3.959116  0
C  C220  1  0.12232039  0.09895345  0.32792514  1  1.567558  0  0.186883  0.567377  0  4.287737  0
C  C221  1  0.50289723  0.65527553  0.33277964  1  1.565494  0  0.18527  0.570165  0  4.273358  0
C  C222  1  0.11224631  0.17258586  0.33014354  1  -0.242557  0  -0.034825  -0.143283  0  4.014619  0
C  C223  1  0.18029922  0.22195152  0.33473708  1  -0.080483  0  -0.09937  -0.103546  0  3.960559  0
C  C224  1  0.14204796  0.28709776  0.33528474  1  0.002763  0  -0.102953  -0.112113  0  3.982167  0
C  C225  1  0.04586419  0.28657646  0.33104936  1  -0.179527  0  -0.033623  -0.131868  0  4.010126  0
C  C226  1  0.36229494  0.90092664  0.32846161  1  1.567622  0  0.18628  0.564847  0  4.288807  0
C  C227  1  0.98273294  0.34491873  0.32893195  1  1.535771  0  0.185222  0.56864  0  4.275756  0
C  C228  1  0.37310543  0.82733891  0.33157993  1  -0.230942  0  -0.035569  -0.144411  0  4.019587  0
C  C229  1  0.30640999  0.77800033  0.33684857  1  -0.052432  0  -0.100424  -0.106724  0  3.964769  0
C  C230  1  0.34495649  0.71289024  0.33793037  1  0.030013  0  -0.103762  -0.111918  0  3.985136  0
C  C231  1  0.43995851  0.71348037  0.33360106  1  -0.267983  0  -0.034126  -0.135336  0  4.016357  0
C  C232  1  0.66016951  0.56330533  0.69968820  1  1.416072  0  0.248908  0.484857  0  4.099547  0
C  C233  1  0.62372080  0.49257045  0.97079478  1  1.364846  0  0.240417  0.475678  0  4.116288  0
C  C234  1  0.64461718  0.54218405  0.76810102  1  -0.067747  0  0.000947  -0.005698  0  3.942638  0
C  C235  1  0.64505214  0.47530662  0.78949702  1  0.006214  0  -0.074352  -0.086526  0  3.929483  0
C  C236  1  0.63838742  0.46089876  0.85540962  1  -0.012959  0  -0.077893  -0.081444  0  3.959472  0
C  C237  1  0.63051740  0.51257534  0.90106656  1  -0.110584  0  -0.021393  -0.054037  0  4.030484  0
C  C238  1  0.62718068  0.57946985  0.87896981  1  -0.057131  0  -0.08901  -0.115614  0  4.007004  0
C  C239  1  0.63485716  0.59404193  0.81332548  1  -0.020861  0  -0.077492  -0.0872  0  3.961899  0
C  C240  1  0.61470444  0.47864204  0.47571385  1  0.438883  0  0.040115  0.101318  0  3.985961  0
C  C241  1  0.61674130  0.47139804  0.54299129  1  0.044028  0  -0.088776  -0.227046  0  3.927989  0
C  C242  1  0.63967487  0.52690191  0.58397901  1  0.30474  0  0.125156  0.305112  0  3.982348  0
C  C243  1  0.65913847  0.58816680  0.55368958  1  0.021718  0  -0.091516  -0.232643  0  3.92397  0
C  C244  1  0.65545179  0.59039082  0.48560099  1  0.515231  0  0.044068  0.100573  0  3.980111  0
C  C245  1  0.59912907  0.49116358  0.18434798  1  0.466372  0  0.048982  0.115965  0  3.962576  0
C  C246  1  0.60460333  0.48608412  0.11721024  1  0.043222  0  -0.094977  -0.234303  0  3.940722  0
C  C247  1  0.63394153  0.54241142  0.08356547  1  0.350454  0  0.118448  0.294412  0  4.025341  0
C  C248  1  0.65679107  0.60094859  0.12015817  1  -0.049384  0  -0.094956  -0.245753  0  3.963022  0
C  C249  1  0.65019413  0.60089708  0.18731999  1  0.526575  0  0.048577  0.110675  0  3.971203  0
C  C250  1  0.85707710  0.43549277  0.69224924  1  1.391788  0  0.246893  0.48271  0  4.100356  0
C  C251  1  0.88462447  0.50794085  0.96740472  1  1.394259  0  0.241067  0.479729  0  4.11028  0
C  C252  1  0.87344485  0.45721810  0.76256571  1  -0.020944  0  -0.0022  -0.012515  0  3.945828  0
C  C253  1  0.88046166  0.40563504  0.80955526  1  -0.012443  0  -0.077727  -0.088163  0  3.964707  0
C  C254  1  0.88583092  0.42069521  0.87607240  1  -0.025443  0  -0.08894  -0.118364  0  4.013506  0
C  C255  1  0.88313757  0.48784716  0.89700292  1  -0.086329  0  -0.016566  -0.04423  0  4.017107  0
C  C256  1  0.87961803  0.53927404  0.85009242  1  -0.014958  0  -0.075585  -0.078788  0  3.947638  0
C  C257  1  0.87503583  0.52434244  0.78340243  1  -0.032966  0  -0.074695  -0.087851  0  3.928137  0
C  C258  1  0.85051527  0.40801434  0.47834462  1  0.440285  0  0.044401  0.104251  0  3.979118  0
C  C259  1  0.85036001  0.41034576  0.54620137  1  0.043369  0  -0.093839  -0.237881  0  3.930362  0
C  C260  1  0.87010889  0.47192979  0.57842886  1  0.361931  0  0.125634  0.3053  0  3.984706  0
C  C261  1  0.88983628  0.52755855  0.53967378  1  0.043324  0  -0.09019  -0.229085  0  3.935484  0
C  C262  1  0.88910498  0.52002484  0.47255132  1  0.446342  0  0.03913  0.101789  0  3.992034  0
C  C263  1  0.82205183  0.40316687  0.17594912  1  0.505387  0  0.049173  0.10666  0  3.97723  0
C  C264  1  0.82250224  0.40296025  0.10815508  1  -0.035703  0  -0.094003  -0.241682  0  3.953958  0
C  C265  1  0.85266111  0.46046269  0.07622696  1  0.349963  0  0.118079  0.295864  0  4.015876  0
C  C266  1  0.88029400  0.51627893  0.11514518  1  0.02885  0  -0.094835  -0.232876  0  3.937052  0
C  C267  1  0.87779392  0.51158811  0.18259711  1  0.453302  0  0.047144  0.112284  0  3.95887  0
C  C268  1  0.62231214  0.40104689  0.32792259  1  1.568115  0  0.18678  0.567137  0  4.288098  0
C  C269  1  0.00289879  0.84472693  0.33279450  1  1.565839  0  0.185428  0.570755  0  4.272695  0
C  C270  1  0.61224085  0.32741346  0.33014468  1  -0.242663  0  -0.034855  -0.143275  0  4.014473  0
C  C271  1  0.68029651  0.27805031  0.33473878  1  -0.080246  0  -0.099318  -0.103476  0  3.960439  0
C  C272  1  0.64204870  0.21290354  0.33528766  1  0.002999  0  -0.103032  -0.112202  0  3.982316  0
C  C273  1  0.54586707  0.21342330  0.33105729  1  -0.179816  0  -0.033557  -0.131837  0  4.010295  0
C  C274  1  0.86230051  0.59907407  0.32846719  1  1.567542  0  0.186207  0.564959  0  4.289129  0
C  C275  1  0.48273634  0.15508083  0.32893327  1  1.535938  0  0.185156  0.568551  0  4.275815  0
C  C276  1  0.87310836  0.67266178  0.33159357  1  -0.23049  0  -0.035541  -0.144222  0  4.01956  0
C  C277  1  0.80641292  0.72199877  0.33686084  1  -0.052714  0  -0.100464  -0.106908  0  3.964898  0
C  C278  1  0.84495668  0.78711239  0.33794244  1  -0.0302  0  -0.103845  -0.111914  0  3.985075  0
C  C279  1  0.93996006  0.78651934  0.33361127  1  -0.207275  0  -0.034167  -0.135664  0  4.016639  0
C  C280  1  0.83983367  0.06331675  0.30030228  1  1.416273  0  0.248796  0.484807  0  4.09984  0
C  C281  1  0.87629373  0.99255929  0.02920228  1  1.365495  0  0.240398  0.475739  0  4.116075  0
C  C282  1  0.85539018  0.04219003  0.23189184  1  -0.068448  0  0.000942  -0.005617  0  3.94275  0
C  C283  1  0.85496450  0.97530999  0.21050373  1  0.006363  0  -0.074335  -0.086696  0  3.929405  0
C  C284  1  0.86162714  0.96089767  0.14459161  1  -0.013491  0  -0.077981  -0.081469  0  3.959755  0
C  C285  1  0.86950658  0.01256437  0.09892708  1  -0.110745  0  -0.021418  -0.053984  0  4.030573  0
C  C286  1  0.87284881  0.07946070  0.12101875  1  -0.05622  0  -0.089097  -0.115754  0  4.00691  0
C  C287  1  0.86516817  0.09403976  0.18666222  1  -0.020515  0  -0.077378  -0.087102  0  3.962119  0
C  C288  1  0.88527744  0.97864429  0.52427544  1  0.439933  0  0.040026  0.100967  0  3.9857  0
C  C289  1  0.88324820  0.97140437  0.45699805  1  0.044214  0  -0.088733  -0.226839  0  3.927842  0
C  C290  1  0.86032278  0.02690986  0.41601386  1  0.305263  0  0.125233  0.305207  0  3.9825  0
C  C291  1  0.84086194  0.08817699  0.44629956  1  0.020809  0  -0.091749  -0.233129  0  3.924292  0
C  C292  1  0.84453821  0.09039542  0.51438651  1  0.503969  0  0.044107  0.100797  0  3.980274  0
C  C293  1  0.90087086  0.99116088  0.81564478  1  0.466954  0  0.049137  0.116141  0  3.962594  0
C  C294  1  0.89540079  0.98607532  0.88278526  1  0.043259  0  -0.094985  -0.234169  0  3.94053  0
C  C295  1  0.86606584  0.04240109  0.91642837  1  0.351697  0  0.118352  0.294236  0  4.025485  0
C  C296  1  0.84320871  0.10094207  0.87983571  1  -0.050464  0  -0.094942  -0.245697  0  3.96301  0
C  C297  1  0.84979802  0.10089264  0.81267343  1  0.526552  0  0.048406  0.110467  0  3.971221  0
C  C298  1  0.64292710  0.93549769  0.30775497  1  1.39227  0  0.246838  0.482709  0  4.100306  0
C  C299  1  0.61537397  0.00794485  0.03259715  1  1.394551  0  0.240999  0.479687  0  4.1104  0
C  C300  1  0.62655589  0.95721809  0.23743861  1  -0.021102  0  -0.002199  -0.012422  0  3.945715  0
C  C301  1  0.61954670  0.90563241  0.19045042  1  -0.012592  0  -0.077813  -0.088301  0  3.964577  0
C  C302  1  0.61417606  0.92069112  0.12393259  1  -0.025261  0  -0.088989  -0.118456  0  4.013658  0
C  C303  1  0.61686527  0.98784325  0.10300226  1  -0.086163  0  -0.016451  -0.043996  0  4.016822  0
C  C304  1  0.62038806  0.03927303  0.14991066  1  -0.015032  0  -0.075653  -0.078943  0  3.947598  0
C  C305  1  0.62496678  0.02434238  0.21660006  1  -0.032871  0  -0.074692  -0.087929  0  3.928361  0
C  C306  1  0.64949585  0.90802098  0.52166023  1  0.440163  0  0.044377  0.104387  0  3.979377  0
C  C307  1  0.64965874  0.91034997  0.45380443  1  0.043609  0  -0.093737  -0.237816  0  3.930807  0
C  C308  1  0.62989600  0.97193225  0.42157413  1  0.362208  0  0.125614  0.305399  0  3.984703  0
C  C309  1  0.61016216  0.02756044  0.46032744  1  0.042764  0  -0.090233  -0.229083  0  3.935717  0
C  C310  1  0.61089345  0.02003069  0.52744948  1  0.446635  0  0.039179  0.101779  0  3.992239  0
C  C311  1  0.67792530  0.90316647  0.82405221  1  0.505594  0  0.049106  0.106987  0  3.976965  0
C  C312  1  0.67748250  0.90296229  0.89184526  1  -0.035472  0  -0.093918  -0.241689  0  3.953815  0
C  C313  1  0.64733267  0.96046443  0.92377396  1  0.350503  0  0.11812  0.295977  0  4.015852  0
C  C314  1  0.61970031  0.01628328  0.88485882  1  0.028574  0  -0.095074  -0.233116  0  3.93685  0
C  C315  1  0.62219274  0.01159152  0.81740450  1  0.454375  0  0.047213  0.112517  0  3.95893  0
C  C316  1  0.87767261  0.90104689  0.67207874  1  1.567642  0  0.186913  0.567293  0  4.287928  0
C  C317  1  0.49709973  0.34472782  0.66720738  1  1.565683  0  0.185406  0.570564  0  4.272835  0
C  C318  1  0.88774745  0.82741348  0.66986626  1  -0.242493  0  -0.034698  -0.143093  0  4.014824  0
C  C319  1  0.81969870  0.77804631  0.66527298  1  -0.081107  0  -0.099441  -0.103618  0  3.960729  0
C  C320  1  0.85795272  0.71290107  0.66472402  1  0.003605  0  -0.102929  -0.112055  0  3.98227  0
C  C321  1  0.95413505  0.71342438  0.66895491  1  -0.179583  0  -0.033672  -0.132013  0  4.010415  0
C  C322  1  0.63769940  0.09907521  0.67153894  1  1.567511  0  0.186222  0.564689  0  4.289069  0
C  C323  1  0.01726980  0.65508412  0.67107498  1  1.535801  0  0.185381  0.568879  0  4.275399  0
C  C324  1  0.62689021  0.17266143  0.66841336  1  -0.230751  0  -0.035561  -0.144188  0  4.019561  0
C  C325  1  0.69358637  0.22200051  0.66314672  1  -0.052563  0  -0.100445  -0.106873  0  3.96491  0
C  C326  1  0.65503915  0.28711362  0.66206292  1  0.030356  0  -0.103765  -0.111899  0  3.985188  0
C  C327  1  0.56003782  0.28652148  0.66639178  1  -0.267732  0  -0.034207  -0.135657  0  4.016767  0
S  S328  1  0.01765956  0.29374642  0.67135907  1  0.288188  0  0.095964  0.169597  0  2.938489  0
S  S329  1  0.49781802  0.70623675  0.67300644  1  0.291068  0  0.095541  0.166848  0  2.932147  0
S  S330  1  0.48233027  0.79374737  0.32861139  1  0.289042  0  0.095883  0.169515  0  2.938453  0
S  S331  1  0.00218117  0.20623969  0.32699804  1  0.291036  0  0.095545  0.166874  0  2.932202  0
S  S332  1  0.98233539  0.70625342  0.32863418  1  0.288285  0  0.096007  0.169587  0  2.938498  0
S  S333  1  0.50217773  0.29375807  0.32699517  1  0.291099  0  0.095542  0.166858  0  2.932271  0
S  S334  1  0.51766104  0.20625699  0.67136649  1  0.288347  0  0.096028  0.169643  0  2.938401  0
S  S335  1  0.99781333  0.79376265  0.67301571  1  0.291142  0  0.095536  0.166821  0  2.932302  0
N  N336  1  0.36028226  0.48317132  0.34889444  1  -1.302313  0  -0.390957  -0.371898  0  3.553476  0
N  N337  1  0.36583497  0.46295444  0.55340733  1  -1.223378  0  -0.339526  -0.258158  0  3.525859  0
N  N338  1  0.35874270  0.45637281  0.98368925  1  -1.243802  0  -0.393562  -0.36971  0  3.56597  0
N  N339  1  0.37832640  0.45319425  0.78064530  1  -1.225846  0  -0.332449  -0.245477  0  3.505217  0
N  N340  1  0.12704037  0.51765974  0.35437446  1  -1.308838  0  -0.391464  -0.370439  0  3.559038  0
N  N341  1  0.13078324  0.53860711  0.55855645  1  -1.225632  0  -0.34225  -0.262528  0  3.536469  0
N  N342  1  0.14620354  0.54100027  0.99165425  1  -1.242994  0  -0.392673  -0.375469  0  3.575621  0
N  N343  1  0.15060955  0.54337905  0.78680939  1  -1.231748  0  -0.330979  -0.246129  0  3.494891  0
N  N344  1  0.13970728  0.98317285  0.65110432  1  -1.302192  0  -0.391014  -0.372068  0  3.553427  0
N  N345  1  0.13415731  0.96295669  0.44658980  1  -1.223381  0  -0.339675  -0.258367  0  3.525893  0
N  N346  1  0.14125447  0.95637266  0.01631117  1  -1.243733  0  -0.393591  -0.369805  0  3.565941  0
N  N347  1  0.12166311  0.95319690  0.21935174  1  -1.225872  0  -0.332375  -0.245378  0  3.505118  0
N  N348  1  0.37296152  0.01765622  0.64563169  1  -1.300958  0  -0.391317  -0.370106  0  3.55884  0
N  N349  1  0.36921936  0.03861183  0.44145055  1  -1.225683  0  -0.342121  -0.262292  0  3.536526  0
N  N350  1  0.35380663  0.04099609  0.00834783  1  -1.243497  0  -0.392884  -0.375763  0  3.575728  0
N  N351  1  0.34940065  0.04337615  0.21319511  1  -1.23135  0  -0.331121  -0.24648  0  3.495021  0
N  N352  1  0.63970437  0.51682400  0.65109879  1  -1.30215  0  -0.390911  -0.371738  0  3.55349  0
N  N353  1  0.63414472  0.53704489  0.44658449  1  -1.223419  0  -0.339771  -0.258357  0  3.525778  0
N  N354  1  0.64125711  0.54363305  0.01630479  1  -1.2433  0  -0.393568  -0.369828  0  3.565876  0
N  N355  1  0.62166856  0.54680659  0.21934844  1  -1.225674  0  -0.332447  -0.245432  0  3.505098  0
N  N356  1  0.87296232  0.48234010  0.64562954  1  -1.301446  0  -0.391325  -0.370215  0  3.558892  0
N  N357  1  0.86922156  0.46139022  0.44145012  1  -1.225775  0  -0.342151  -0.262332  0  3.536416  0
N  N358  1  0.85380611  0.45899806  0.00835213  1  -1.243223  0  -0.392895  -0.375805  0  3.575821  0
N  N359  1  0.84938764  0.45662028  0.21319768  1  -1.231043  0  -0.331126  -0.246315  0  3.494861  0
N  N360  1  0.86029050  0.01683703  0.34889399  1  -1.301871  0  -0.390902  -0.371622  0  3.553622  0
N  N361  1  0.86583902  0.03704868  0.55340354  1  -1.223332  0  -0.339536  -0.258019  0  3.525691  0
N  N362  1  0.85875442  0.04362265  0.98368930  1  -1.243773  0  -0.393569  -0.369847  0  3.566111  0
N  N363  1  0.87832979  0.04680143  0.78064383  1  -1.225967  0  -0.33234  -0.245316  0  3.50506  0
N  N364  1  0.62704186  0.98234512  0.35437186  1  -1.309527  0  -0.391329  -0.370218  0  3.55882  0
N  N365  1  0.63078055  0.96139754  0.55855229  1  -1.225587  0  -0.342271  -0.262593  0  3.536671  0
N  N366  1  0.64618977  0.95899823  0.99165138  1  -1.243331  0  -0.392906  -0.375986  0  3.575749  0
N  N367  1  0.65058953  0.95662118  0.78680420  1  -1.231808  0  -0.331155  -0.246611  0  3.494968  0
O  O368  1  0.30794089  0.38022017  0.30986950  1  -1.135572  0  -0.277673  -0.472856  0  2.184194  0
O  O369  1  0.39512080  0.56550626  0.01356319  1  -1.127821  0  -0.296849  -0.475046  0  2.08843  0
O  O370  1  0.17227337  0.62181697  0.32086077  1  -1.130298  0  -0.274495  -0.468616  0  2.196371  0
O  O371  1  0.09032290  0.43556820  0.01302884  1  -1.134775  0  -0.294951  -0.473706  0  2.090418  0
O  O372  1  0.21740830  0.42778993  0.66968345  1  -1.190258  0  -0.340094  -0.579822  0  2.335818  0
O  O373  1  0.06475252  0.43620872  0.67572529  1  -1.167367  0  -0.330386  -0.556296  0  2.228041  0
O  O374  1  0.91014701  0.16511498  0.66717245  1  -1.174219  0  -0.333959  -0.564076  0  2.190971  0
O  O375  1  0.03229903  0.09616680  0.66789344  1  -1.194766  0  -0.331841  -0.580828  0  2.268434  0
O  O376  1  0.29741565  0.57210989  0.66991605  1  -1.188234  0  -0.340665  -0.579849  0  2.33335  0
O  O377  1  0.45163379  0.56357002  0.67552012  1  -1.172879  0  -0.331934  -0.560474  0  2.227282  0
O  O378  1  0.60445254  0.83516382  0.67260508  1  -1.147916  0  -0.334748  -0.564261  0  2.188773  0
O  O379  1  0.48201656  0.90393491  0.67141656  1  -1.190215  0  -0.331186  -0.578672  0  2.262432  0
O  O380  1  0.19205350  0.88022542  0.69013233  1  -1.135322  0  -0.277673  -0.472835  0  2.184111  0
O  O381  1  0.10486787  0.06550824  0.98643590  1  -1.127836  0  -0.296848  -0.475052  0  2.088411  0
O  O382  1  0.32772581  0.12181515  0.67914634  1  -1.131122  0  -0.274587  -0.468672  0  2.19584  0
O  O383  1  0.40968539  0.93556506  0.98697585  1  -1.134848  0  -0.294929  -0.473794  0  2.090287  0
O  O384  1  0.28258385  0.92779024  0.33030320  1  -1.190534  0  -0.340058  -0.57976  0  2.33588  0
O  O385  1  0.43524267  0.93621219  0.32428445  1  -1.167077  0  -0.330505  -0.556442  0  2.22798  0
O  O386  1  0.58984836  0.66511363  0.33279719  1  -1.174209  0  -0.333805  -0.563715  0  2.191001  0
O  O387  1  0.46769438  0.59616821  0.33209493  1  -1.19475  0  -0.33177  -0.580664  0  2.268689  0
O  O388  1  0.20258617  0.07211344  0.33008184  1  -1.18758  0  -0.340688  -0.579911  0  2.333324  0
O  O389  1  0.04836956  0.06357252  0.32449016  1  -1.172821  0  -0.331979  -0.560599  0  2.227091  0
O  O390  1  0.89555086  0.33516199  0.32739353  1  -1.14799  0  -0.334707  -0.564244  0  2.18873  0
O  O391  1  0.01798342  0.40393836  0.32858983  1  -1.190303  0  -0.331092  -0.578652  0  2.262561  0
O  O392  1  0.69205479  0.61977163  0.69012673  1  -1.135346  0  -0.277724  -0.47277  0  2.184193  0
O  O393  1  0.60488321  0.43449508  0.98643404  1  -1.127507  0  -0.296938  -0.475118  0  2.088406  0
O  O394  1  0.82773769  0.37818036  0.67914814  1  -1.130014  0  -0.274616  -0.468643  0  2.196447  0
O  O395  1  0.90970057  0.56442410  0.98697497  1  -1.134759  0  -0.294974  -0.473803  0  2.090265  0
O  O396  1  0.78259096  0.57220639  0.33032326  1  -1.19041  0  -0.340036  -0.57992  0  2.335775  0
O  O397  1  0.93524669  0.56379413  0.32427653  1  -1.16731  0  -0.330405  -0.556384  0  2.228265  0
O  O398  1  0.08984997  0.83488787  0.33281652  1  -1.174228  0  -0.333915  -0.563966  0  2.190816  0
O  O399  1  0.96769385  0.90383405  0.33210017  1  -1.19492  0  -0.331829  -0.580837  0  2.268381  0
O  O400  1  0.70257659  0.42789145  0.33008242  1  -1.188082  0  -0.340544  -0.579713  0  2.333467  0
O  O401  1  0.54835843  0.43642630  0.32447590  1  -1.172778  0  -0.331998  -0.560537  0  2.227297  0
O  O402  1  0.39555216  0.16483552  0.32739220  1  -1.147998  0  -0.334597  -0.564144  0  2.188711  0
O  O403  1  0.51799033  0.09606241  0.32859063  1  -1.190317  0  -0.331131  -0.578641  0  2.262572  0
O  O404  1  0.80794565  0.11978546  0.30986412  1  -1.13574  0  -0.277609  -0.472731  0  2.184246  0
O  O405  1  0.89513481  0.93448809  0.01356712  1  -1.128069  0  -0.296871  -0.475073  0  2.088329  0
O  O406  1  0.67227207  0.87818569  0.32086029  1  -1.130368  0  -0.274504  -0.468653  0  2.196172  0
O  O407  1  0.59030139  0.06442624  0.01303009  1  -1.134848  0  -0.294932  -0.473739  0  2.090543  0
O  O408  1  0.71740981  0.07221010  0.66969780  1  -1.190314  0  -0.340112  -0.579818  0  2.335812  0
O  O409  1  0.56475033  0.06379167  0.67571943  1  -1.167097  0  -0.330388  -0.556284  0  2.228075  0
O  O410  1  0.41014779  0.33488670  0.66717952  1  -1.174202  0  -0.333897  -0.563907  0  2.190916  0
O  O411  1  0.53229928  0.40383665  0.66790704  1  -1.194865  0  -0.331832  -0.580779  0  2.268393  0
O  O412  1  0.79740609  0.92788840  0.66991809  1  -1.187456  0  -0.340676  -0.579847  0  2.333266  0
O  O413  1  0.95162345  0.93642832  0.67551520  1  -1.172974  0  -0.332008  -0.560559  0  2.227165  0
O  O414  1  0.10445399  0.66483936  0.67261696  1  -1.148125  0  -0.334727  -0.564335  0  2.188727  0
O  O415  1  0.98201934  0.59606399  0.67142003  1  -1.190243  0  -0.331224  -0.578739  0  2.262311  0
