# generated using pymatgen
data_ZnH22C24(NO)4
_symmetry_space_group_name_H-M   'P 1'
_cell_length_a   18.50313193
_cell_length_b   18.50280841
_cell_length_c   20.11275423
_cell_angle_alpha   109.19339939
_cell_angle_beta   109.19371845
_cell_angle_gamma   106.58181822
_symmetry_Int_Tables_number   1
_chemical_formula_structural   ZnH22C24(NO)4
_chemical_formula_sum   'Zn8 H176 C192 N32 O32'
_cell_volume   5511.64488908
_cell_formula_units_Z   8
loop_
 _symmetry_equiv_pos_site_id
 _symmetry_equiv_pos_as_xyz
  1  'x, y, z'
loop_
 _atom_site_type_symbol
 _atom_site_label
 _atom_site_symmetry_multiplicity
 _atom_site_fract_x
 _atom_site_fract_y
 _atom_site_fract_z
 _atom_site_occupancy
 _atom_site_pbe_bader_charge
 _atom_site_pbe_bader_spin_density
 _atom_site_pbe_cm5_charge
 _atom_site_pbe_ddec_charge
 _atom_site_pbe_ddec_spin_density
 _atom_site_pbe_ddec_sum_bond_order
 _atom_site_pbe_magmom
Zn  Zn0  1  0.88410847  0.88413345  0.76824662  1  1.267689  0  0.715986  0.790611  0  2.367278  0
Zn  Zn1  1  0.13413162  0.63410786  0.26824272  1  1.26766  0  0.715909  0.790473  0  2.367213  0
Zn  Zn2  1  0.50070721  0.50063636  0.00142044  1  1.25564  0  0.72069  0.767763  0  2.496771  0
Zn  Zn3  1  0.75064391  0.25070493  0.50143335  1  1.25549  0  0.720708  0.76785  0  2.496537  0
Zn  Zn4  1  0.43983724  0.43039307  0.37516255  1  1.266891  0  0.72152  0.785056  0  2.438693  0
Zn  Zn5  1  0.93516755  0.94480083  0.37508630  1  1.26342  0  0.721004  0.783742  0  2.440073  0
Zn  Zn6  1  0.19479700  0.68516551  0.87508926  1  1.263424  0  0.721002  0.783739  0  2.440041  0
Zn  Zn7  1  0.68040012  0.18984019  0.87516299  1  1.266846  0  0.721526  0.785077  0  2.438823  0
H  H8  1  0.06352912  0.99870987  0.84645533  1  0.562846  0  0.310867  0.272005  0  1.015675  0
H  H9  1  0.78305770  0.84785663  0.84661033  1  0.562744  0  0.310923  0.272393  0  1.014396  0
H  H10  1  0.09785151  0.53305031  0.34660506  1  0.562818  0  0.310881  0.272266  0  1.014569  0
H  H11  1  0.24871204  0.81353952  0.34645970  1  0.562808  0  0.31081  0.271983  0  1.01564  0
H  H12  1  0.02184677  0.40499875  0.05207861  1  0.102048  0  0.108586  0.117382  0  0.99763  0
H  H13  1  0.03032060  0.64681404  0.05168387  1  0.121836  0  0.108739  0.116897  0  0.996934  0
H  H14  1  0.89680244  0.78030827  0.55166848  1  0.122436  0  0.108744  0.116873  0  0.996952  0
H  H15  1  0.65499831  0.77185276  0.55206377  1  0.101846  0  0.10858  0.117392  0  0.997636  0
H  H16  1  0.99233632  0.27021293  0.94241274  1  0.049083  0  0.099667  0.102092  0  1.017898  0
H  H17  1  0.95012589  0.67213810  0.94210695  1  0.060682  0  0.09983  0.102431  0  1.016439  0
H  H18  1  0.92213414  0.70011575  0.44209543  1  0.060505  0  0.099845  0.102464  0  1.016447  0
H  H19  1  0.52020797  0.74234766  0.44240648  1  0.048905  0  0.099642  0.102065  0  1.017925  0
H  H20  1  0.08632102  0.18419433  0.11286823  1  0.069315  0  0.103554  0.109491  0  0.999522  0
H  H21  1  0.02671861  0.92852366  0.11285890  1  0.058999  0  0.103607  0.109722  0  0.999475  0
H  H22  1  0.17851223  0.77671462  0.61285728  1  0.058953  0  0.103597  0.109759  0  0.999597  0
H  H23  1  0.43419867  0.83631134  0.61286658  1  0.069149  0  0.103598  0.109568  0  0.999479  0
H  H24  1  0.10916086  0.31553224  0.22077978  1  0.084445  0  0.105623  0.105929  0  1.011483  0
H  H25  1  0.11180157  0.90492737  0.22065974  1  0.080349  0  0.105805  0.106078  0  1.0111  0
H  H26  1  0.15491349  0.86180213  0.72065406  1  0.079455  0  0.105767  0.10601  0  1.011162  0
H  H27  1  0.56553997  0.85915216  0.72077709  1  0.084542  0  0.105604  0.105866  0  1.011585  0
H  H28  1  0.81464436  0.03608629  0.81082566  1  0.048355  0  0.095256  0.137379  0  1.022673  0
H  H29  1  0.99643324  0.77524513  0.81091836  1  0.073892  0  0.095393  0.13759  0  1.023427  0
H  H30  1  0.02524490  0.74642963  0.31092112  1  0.07394  0  0.095432  0.137637  0  1.023392  0
H  H31  1  0.28609129  0.56465330  0.31082127  1  0.048192  0  0.095276  0.137419  0  1.022654  0
H  H32  1  0.85768469  0.12569729  0.90476606  1  0.077816  0  0.094761  0.1396  0  1.012309  0
H  H33  1  0.04744989  0.77949642  0.90477984  1  0.061639  0  0.095073  0.140267  0  1.011794  0
H  H34  1  0.02949969  0.79744789  0.40478414  1  0.061554  0  0.095054  0.140212  0  1.011849  0
H  H35  1  0.37569713  0.60769051  0.40476191  1  0.077983  0  0.094766  0.139653  0  1.012285  0
H  H36  1  0.82513057  0.02143475  0.89560665  1  0.06733  0  0.094542  0.138811  0  1.007634  0
H  H37  1  0.07066842  0.87466462  0.89575275  1  0.074223  0  0.09477  0.139419  0  1.007857  0
H  H38  1  0.12465890  0.82067119  0.39574960  1  0.074239  0  0.094777  0.139381  0  1.007911  0
H  H39  1  0.27143577  0.57512334  0.39559699  1  0.067641  0  0.094551  0.138804  0  1.00764  0
H  H40  1  0.20260066  0.12828576  0.02706999  1  0.079779  0  0.093681  0.136392  0  1.040134  0
H  H41  1  0.82476050  0.89874929  0.02723489  1  0.092365  0  0.093698  0.135916  0  1.03988  0
H  H42  1  0.14874880  0.57475286  0.52723161  1  0.092323  0  0.093688  0.135918  0  1.039831  0
H  H43  1  0.37829806  0.95261714  0.52708421  1  0.07986  0  0.093672  0.136358  0  1.040041  0
H  H44  1  0.20014310  0.22497994  0.03233809  1  0.072624  0  0.099957  0.145041  0  1.003203  0
H  H45  1  0.83249852  0.80727554  0.03240583  1  0.052283  0  0.099968  0.144741  0  1.00298  0
H  H46  1  0.05726956  0.58248769  0.53239907  1  0.052843  0  0.099937  0.14468  0  1.003049  0
H  H47  1  0.47498337  0.95014090  0.53233950  1  0.07253  0  0.09999  0.145095  0  1.003154  0
H  H48  1  0.20940872  0.15695410  0.95252390  1  0.04234  0  0.101302  0.143938  0  0.979117  0
H  H49  1  0.74333587  0.79549809  0.95270084  1  0.034965  0  0.100879  0.142912  0  0.97948  0
H  H50  1  0.04550035  0.49332315  0.45269939  1  0.034708  0  0.100845  0.14287  0  0.979478  0
H  H51  1  0.40695306  0.95940910  0.45252563  1  0.042207  0  0.101281  0.143911  0  0.979045  0
H  H52  1  0.65356353  0.61185213  0.00703732  1  0.571908  0  0.306543  0.268481  0  1.037997  0
H  H53  1  0.35333174  0.39489909  0.00686393  1  0.570494  0  0.306498  0.268616  0  1.037514  0
H  H54  1  0.64490394  0.10332275  0.50687168  1  0.570363  0  0.306523  0.268617  0  1.037513  0
H  H55  1  0.86185526  0.40356336  0.50703643  1  0.571792  0  0.30652  0.268403  0  1.03811  0
H  H56  1  0.66076534  0.39537000  0.63223504  1  0.100895  0  0.100961  0.100921  0  1.051106  0
H  H57  1  0.97101658  0.23707066  0.63252068  1  0.123555  0  0.101031  0.100924  0  1.05303  0
H  H58  1  0.48705644  0.72101445  0.13250318  1  0.124087  0  0.101056  0.100929  0  1.053059  0
H  H59  1  0.64536899  0.41076779  0.13224426  1  0.101114  0  0.100954  0.100879  0  1.051213  0
H  H60  1  0.64019349  0.48321033  0.74118594  1  0.061126  0  0.100221  0.101335  0  0.999484  0
H  H61  1  0.10052680  0.25792136  0.74129584  1  0.037359  0  0.100401  0.101922  0  0.998305  0
H  H62  1  0.50791450  0.85052647  0.24129362  1  0.037307  0  0.100338  0.101863  0  0.998254  0
H  H63  1  0.73321172  0.39019009  0.24119516  1  0.061086  0  0.10019  0.101226  0  0.99964  0
H  H64  1  0.60695577  0.28774990  0.81532363  1  0.0909  0  0.099366  0.103906  0  1.052848  0
H  H65  1  0.20880933  0.52740473  0.81478377  1  0.101716  0  0.099561  0.103845  0  1.052627  0
H  H66  1  0.77740480  0.95879271  0.31478999  1  0.101708  0  0.099562  0.103835  0  1.052767  0
H  H67  1  0.53774874  0.35695495  0.31532537  1  0.090748  0  0.099338  0.103857  0  1.052937  0
H  H68  1  0.62194274  0.19795412  0.70249357  1  0.093186  0  0.101724  0.101653  0  1.038138  0
H  H69  1  0.08099040  0.50454008  0.70217351  1  0.108345  0  0.101784  0.101691  0  1.037634  0
H  H70  1  0.75453111  0.83098031  0.20217012  1  0.108529  0  0.10178  0.101771  0  1.03748  0
H  H71  1  0.44796295  0.37194762  0.20249967  1  0.09326  0  0.101706  0.101619  0  1.038192  0
H  H72  1  0.48956465  0.28217272  0.82170323  1  0.074327  0  0.100456  0.14857  0  1.005957  0
H  H73  1  0.33252187  0.53961084  0.82200414  1  0.050364  0  0.100098  0.148391  0  1.005951  0
H  H74  1  0.78960633  0.08251332  0.32200524  1  0.049903  0  0.100078  0.148345  0  1.005897  0
H  H75  1  0.53217229  0.23956255  0.32171157  1  0.074581  0  0.100438  0.148562  0  1.005941  0
H  H76  1  0.42331231  0.32470875  0.78007747  1  0.051464  0  0.097937  0.138462  0  0.980132  0
H  H77  1  0.35714889  0.45554092  0.78017693  1  0.044095  0  0.098195  0.138934  0  0.980494  0
H  H78  1  0.70553251  0.10714242  0.28018348  1  0.044084  0  0.098202  0.138893  0  0.98045  0
H  H79  1  0.57471084  0.17331496  0.28008632  1  0.051747  0  0.09793  0.138378  0  0.980082  0
H  H80  1  0.44433760  0.33320911  0.87581137  1  0.036351  0  0.098215  0.137539  0  1.000964  0
H  H81  1  0.43172862  0.54249743  0.87613486  1  0.051867  0  0.09807  0.137101  0  1.002595  0
H  H82  1  0.79249516  0.18172279  0.37613319  1  0.051518  0  0.09807  0.137084  0  1.002626  0
H  H83  1  0.58320433  0.19433026  0.37581844  1  0.054774  0  0.098287  0.137649  0  1.000921  0
H  H84  1  0.73912510  0.62349624  0.88232184  1  0.041337  0  0.096654  0.135511  0  0.991589  0
H  H85  1  0.14309204  0.25861478  0.88208268  1  0.043758  0  0.096788  0.135072  0  0.991127  0
H  H86  1  0.50863007  0.89307845  0.38209499  1  0.044231  0  0.096784  0.135078  0  0.991213  0
H  H87  1  0.87349178  0.48911621  0.38232103  1  0.041438  0  0.096669  0.135499  0  0.991683  0
H  H88  1  0.78473158  0.55647312  0.90379878  1  0.056737  0  0.099781  0.140616  0  1.006291  0
H  H89  1  0.11897433  0.34711193  0.90358017  1  0.050995  0  0.099808  0.140034  0  1.007045  0
H  H90  1  0.59711854  0.86895754  0.40358877  1  0.051287  0  0.099748  0.140029  0  1.006929  0
H  H91  1  0.80647113  0.53473030  0.40379412  1  0.056698  0  0.099754  0.140609  0  1.00634  0
H  H92  1  0.78780955  0.64006245  0.98175619  1  0.055293  0  0.101167  0.145065  0  0.991291  0
H  H93  1  0.19384899  0.34146904  0.98153460  1  0.051876  0  0.101395  0.145402  0  0.992017  0
H  H94  1  0.59147880  0.94383951  0.48154595  1  0.051917  0  0.101342  0.145347  0  0.992002  0
H  H95  1  0.89005819  0.53780860  0.48175617  1  0.055161  0  0.101179  0.145082  0  0.991317  0
H  H96  1  0.26671247  0.33732832  0.34537017  1  0.557904  0  0.306301  0.267707  0  1.033316  0
H  H97  1  0.07856716  0.00815422  0.34557943  1  0.558797  0  0.306169  0.268383  0  1.033368  0
H  H98  1  0.25815045  0.82857158  0.84557985  1  0.558878  0  0.306202  0.268442  0  1.033284  0
H  H99  1  0.58732352  0.01671033  0.84536914  1  0.557916  0  0.30631  0.267695  0  1.033221  0
H  H100  1  0.55510679  0.58236936  0.38381750  1  0.565297  0  0.307594  0.270505  0  1.037513  0
H  H101  1  0.82843437  0.80152701  0.38366821  1  0.56797  0  0.307751  0.270658  0  1.038194  0
H  H102  1  0.05151896  0.57842390  0.88366156  1  0.567998  0  0.307714  0.270642  0  1.038211  0
H  H103  1  0.83237257  0.30510973  0.88381877  1  0.565238  0  0.307573  0.270424  0  1.037656  0
H  H104  1  0.22338321  0.53286390  0.70053882  1  0.088692  0  0.100602  0.100715  0  1.055648  0
H  H105  1  0.47720042  0.16789074  0.70041359  1  0.126644  0  0.100574  0.102234  0  1.053784  0
H  H106  1  0.41788636  0.22721405  0.20040240  1  0.126473  0  0.10062  0.100758  0  1.055348  0
H  H107  1  0.78286041  0.97338626  0.20054539  1  0.088695  0  0.100572  0.100696  0  1.055506  0
H  H108  1  0.35469688  0.61634410  0.01791829  1  0.091246  0  0.104579  0.11001  0  1.003395  0
H  H109  1  0.66333080  0.40145914  0.01790190  1  0.099989  0  0.104271  0.109051  0  1.003635  0
H  H110  1  0.65146048  0.41332876  0.51790303  1  0.099952  0  0.104252  0.109013  0  1.003657  0
H  H111  1  0.86634833  0.10470602  0.51792463  1  0.091214  0  0.104538  0.109928  0  1.003312  0
H  H112  1  0.24257601  0.44619352  0.58988200  1  0.069286  0  0.103595  0.10646  0  0.993075  0
H  H113  1  0.34719873  0.14355441  0.58969675  1  0.066016  0  0.103676  0.106405  0  0.994262  0
H  H114  1  0.39354874  0.09719769  0.08969035  1  0.065954  0  0.103677  0.106459  0  0.994338  0
H  H115  1  0.69619147  0.99257833  0.08988169  1  0.069345  0  0.103633  0.106537  0  0.993001  0
H  H116  1  0.44056668  0.58937199  0.12222348  1  0.099113  0  0.099069  0.103669  0  1.042903  0
H  H117  1  0.68156126  0.53270148  0.12210263  1  0.074221  0  0.09902  0.10402  0  1.042348  0
H  H118  1  0.78269997  0.43155127  0.62208765  1  0.074447  0  0.099057  0.104062  0  1.042385  0
H  H119  1  0.83936794  0.19056427  0.62223037  1  0.09933  0  0.099075  0.103689  0  1.043032  0
H  H120  1  0.35735981  0.67099028  0.56992556  1  0.04341  0  0.096973  0.099145  0  1.034883  0
H  H121  1  0.21257076  0.89918552  0.57045351  1  0.057637  0  0.096845  0.099123  0  1.035188  0
H  H122  1  0.14919002  0.96257248  0.07045377  1  0.057663  0  0.096849  0.099131  0  1.03524  0
H  H123  1  0.92098206  0.10736030  0.06992619  1  0.043602  0  0.097002  0.099214  0  1.034892  0
H  H124  1  0.23295553  0.52609426  0.17942179  1  0.084429  0  0.094697  0.094976  0  1.051066  0
H  H125  1  0.94644048  0.65337667  0.17956259  1  0.0699  0  0.094745  0.095807  0  1.050364  0
H  H126  1  0.90337596  0.69644493  0.67956357  1  0.070019  0  0.094767  0.095882  0  1.05035  0
H  H127  1  0.77609866  0.98294417  0.67942292  1  0.084882  0  0.094728  0.095085  0  1.050924  0
H  H128  1  0.33701223  0.75714304  0.68079388  1  0.090011  0  0.103216  0.104945  0  1.007797  0
H  H129  1  0.34391557  0.92421022  0.68134976  1  0.083646  0  0.103542  0.105866  0  1.008992  0
H  H130  1  0.17420894  0.09392224  0.18134048  1  0.083284  0  0.103562  0.105858  0  1.009107  0
H  H131  1  0.00713031  0.08701692  0.18079280  1  0.089909  0  0.10315  0.104895  0  1.007822  0
H  H132  1  0.14715842  0.54984801  0.07307987  1  0.102409  0  0.104094  0.110299  0  1.011142  0
H  H133  1  0.92606995  0.52331739  0.07329358  1  0.116301  0  0.103786  0.109747  0  1.011338  0
H  H134  1  0.77332010  0.67607548  0.57330016  1  0.116441  0  0.103781  0.109727  0  1.011332  0
H  H135  1  0.79986223  0.89716278  0.57308374  1  0.102478  0  0.104047  0.110274  0  1.011327  0
H  H136  1  0.49639952  0.59201154  0.61481333  1  0.039975  0  0.100883  0.147599  0  0.968835  0
H  H137  1  0.11809990  0.02253548  0.61492963  1  0.049777  0  0.101003  0.147475  0  0.96957  0
H  H138  1  0.27253374  0.86810212  0.11493284  1  0.049704  0  0.101013  0.147491  0  0.969513  0
H  H139  1  0.84200825  0.24639674  0.11481300  1  0.040038  0  0.100874  0.147565  0  0.968771  0
H  H140  1  0.47518146  0.64881497  0.56133326  1  0.060515  0  0.090841  0.129318  0  1.049171  0
H  H141  1  0.08591604  0.91227609  0.56132174  1  0.059186  0  0.090615  0.128908  0  1.049781  0
H  H142  1  0.16227637  0.83592491  0.06132002  1  0.059269  0  0.090562  0.128908  0  1.049748  0
H  H143  1  0.89881011  0.22517767  0.06133300  1  0.060384  0  0.090846  0.129297  0  1.049135  0
H  H144  1  0.52050448  0.57866993  0.53411940  1  0.069617  0  0.096722  0.141072  0  1.021298  0
H  H145  1  0.01333157  0.95516363  0.53412690  1  0.059142  0  0.096803  0.140883  0  1.022164  0
H  H146  1  0.20515686  0.76332696  0.03412437  1  0.059173  0  0.096827  0.140889  0  1.021975  0
H  H147  1  0.82867144  0.27050410  0.03411689  1  0.069581  0  0.096724  0.141046  0  1.021333  0
H  H148  1  0.24792920  0.40149846  0.23106942  1  0.041421  0  0.093727  0.134798  0  1.021424  0
H  H149  1  0.98375812  0.82946123  0.23176468  1  0.091864  0  0.093818  0.135231  0  1.021268  0
H  H150  1  0.07945069  0.73375421  0.73176058  1  0.092036  0  0.09381  0.135207  0  1.021298  0
H  H151  1  0.65150408  0.99792404  0.73107462  1  0.041071  0  0.093714  0.134725  0  1.021643  0
H  H152  1  0.29443083  0.34197253  0.18763562  1  0.062354  0  0.097606  0.141978  0  1.009026  0
H  H153  1  0.89414960  0.84591595  0.18812631  1  0.056259  0  0.097446  0.142319  0  1.008567  0
H  H154  1  0.09590569  0.64414317  0.68812644  1  0.056296  0  0.097422  0.142331  0  1.008525  0
H  H155  1  0.59197729  0.04442165  0.68763959  1  0.062146  0  0.097584  0.141973  0  1.008988  0
H  H156  1  0.24594998  0.39388043  0.14034788  1  0.076239  0  0.096059  0.138902  0  1.014955  0
H  H157  1  0.89513457  0.74663693  0.14081809  1  0.061222  0  0.095917  0.138879  0  1.015626  0
H  H158  1  0.99662739  0.64512781  0.64081457  1  0.061342  0  0.09598  0.13897  0  1.015384  0
H  H159  1  0.64388737  0.99594554  0.64035418  1  0.076114  0  0.095942  0.138789  0  1.014974  0
H  H160  1  0.13827301  0.30762631  0.39675224  1  0.064606  0  0.103523  0.148061  0  0.972571  0
H  H161  1  0.25823209  0.08943427  0.39703976  1  0.061807  0  0.103636  0.148785  0  0.97331  0
H  H162  1  0.33943803  0.00823469  0.89703939  1  0.061728  0  0.103575  0.148709  0  0.973247  0
H  H163  1  0.55762939  0.88827129  0.89674608  1  0.064512  0  0.103508  0.148021  0  0.972719  0
H  H164  1  0.11976433  0.37596382  0.35497367  1  0.084171  0  0.098697  0.150555  0  1.014223  0
H  H165  1  0.23504171  0.97933318  0.35509467  1  0.107651  0  0.099061  0.151244  0  1.012456  0
H  H166  1  0.22934367  0.98504913  0.85509762  1  0.107229  0  0.099034  0.151235  0  1.012547  0
H  H167  1  0.62596316  0.86975695  0.85496889  1  0.084055  0  0.098674  0.150494  0  1.014179  0
H  H168  1  0.13802343  0.40382984  0.45447663  1  0.058721  0  0.097829  0.13816  0  1.014158  0
H  H169  1  0.31630731  0.05092600  0.45460369  1  0.057273  0  0.098057  0.138026  0  1.014034  0
H  H170  1  0.30093146  0.06631419  0.95459846  1  0.057191  0  0.098075  0.138121  0  1.013874  0
H  H171  1  0.65382830  0.88801645  0.95447198  1  0.058692  0  0.097839  0.13811  0  1.014196  0
H  H172  1  0.56885963  0.66648122  0.25189359  1  0.061558  0  0.101133  0.148939  0  0.991775  0
H  H173  1  0.68248141  0.58567214  0.25155290  1  0.059866  0  0.100677  0.147944  0  0.991243  0
H  H174  1  0.83566074  0.43247194  0.75155681  1  0.059579  0  0.100694  0.147991  0  0.991445  0
H  H175  1  0.91648471  0.31886225  0.75189954  1  0.061668  0  0.101162  0.148954  0  0.991763  0
H  H176  1  0.60002943  0.70981397  0.35532541  1  0.045683  0  0.103664  0.148207  0  0.976263  0
H  H177  1  0.75460126  0.64565048  0.35501367  1  0.065713  0  0.103539  0.147752  0  0.97658  0
H  H178  1  0.89564958  0.50459849  0.85501842  1  0.065573  0  0.103482  0.147729  0  0.976668  0
H  H179  1  0.95981681  0.35002763  0.85532992  1  0.045618  0  0.103681  0.148198  0  0.976188  0
H  H180  1  0.51701366  0.72187007  0.29020702  1  0.067669  0  0.097486  0.138176  0  1.011779  0
H  H181  1  0.77243155  0.56830105  0.28995507  1  0.064628  0  0.097285  0.137246  0  1.012284  0
H  H182  1  0.81830164  0.52243107  0.78995923  1  0.064541  0  0.097246  0.137215  0  1.012214  0
H  H183  1  0.97186997  0.26700987  0.79021430  1  0.068051  0  0.097465  0.138104  0  1.0119  0
C  C184  1  0.06833343  0.36957212  0.14381510  1  -0.011501  0  -0.019161  -0.046201  0  3.971752  0
C  C185  1  0.07554258  0.77395320  0.14352218  1  -0.053205  0  -0.018909  -0.045939  0  3.970577  0
C  C186  1  0.02393389  0.82553560  0.64351373  1  -0.05314  0  -0.018733  -0.045822  0  3.97051  0
C  C187  1  0.61957631  0.81832993  0.64381000  1  -0.011357  0  -0.019168  -0.046219  0  3.971712  0
C  C188  1  0.03524435  0.35610955  0.06492155  1  -0.01322  0  -0.078317  -0.081017  0  3.964498  0
C  C189  1  0.02972066  0.70855078  0.06461628  1  -0.055353  0  -0.077863  -0.079959  0  3.960913  0
C  C190  1  0.95854001  0.77971491  0.56460884  1  -0.055446  0  -0.07794  -0.079985  0  3.960879  0
C  C191  1  0.60610865  0.78524194  0.56491398  1  -0.013025  0  -0.078199  -0.080939  0  3.964497  0
C  C192  1  0.94302396  0.07190165  0.89161977  1  0.476388  0  0.100325  0.224325  0  4.003544  0
C  C193  1  0.94882531  0.81995080  0.89173087  1  0.441097  0  0.100409  0.225289  0  4.002876  0
C  C194  1  0.06995522  0.69882589  0.39173331  1  0.441021  0  0.100288  0.225207  0  4.003025  0
C  C195  1  0.32189607  0.69302476  0.39161837  1  0.476341  0  0.100376  0.224507  0  4.003266  0
C  C196  1  0.01871405  0.28053026  0.00365402  1  -0.050882  0  -0.09097  -0.142067  0  3.975955  0
C  C197  1  0.98494897  0.72295727  0.00342263  1  -0.070209  0  -0.091067  -0.142319  0  3.973588  0
C  C198  1  0.97295099  0.73494336  0.50341335  1  -0.070805  0  -0.09106  -0.142366  0  3.973405  0
C  C199  1  0.53052521  0.76871187  0.50364846  1  -0.05068  0  -0.090988  -0.142027  0  3.976043  0
C  C200  1  0.02236049  0.13871688  0.95500952  1  -0.019927  0  -0.034745  -0.185342  0  4.016166  0
C  C201  1  0.93276312  0.81624958  0.95499620  1  0.002871  0  -0.034647  -0.185767  0  4.015981  0
C  C202  1  0.06624988  0.68276233  0.45499368  1  0.002879  0  -0.034641  -0.185917  0  4.016069  0
C  C203  1  0.38871380  0.77235855  0.45500662  1  -0.020099  0  -0.034709  -0.185365  0  4.016146  0
C  C204  1  0.03731525  0.21759182  0.01958586  1  -0.034894  0  -0.004504  0.104358  0  4.032701  0
C  C205  1  0.98233491  0.80186370  0.01950571  1  -0.034258  0  -0.004462  0.104691  0  4.032851  0
C  C206  1  0.05185545  0.73233365  0.51949965  1  -0.034659  0  -0.004436  0.104891  0  4.032709  0
C  C207  1  0.46758867  0.78730755  0.51958137  1  -0.035311  0  -0.004619  0.104154  0  4.032858  0
C  C208  1  0.08444885  0.11398670  0.94431036  1  0.436013  0  0.106651  0.217493  0  3.983826  0
C  C209  1  0.85996984  0.83023188  0.94433359  1  0.406374  0  0.106797  0.218079  0  3.983629  0
C  C210  1  0.08023352  0.60996639  0.44433250  1  0.406468  0  0.106766  0.218083  0  3.98372  0
C  C211  1  0.36398263  0.83445331  0.44431562  1  0.436211  0  0.106636  0.217624  0  3.983712  0
C  C212  1  0.07062170  0.23167278  0.09884557  1  0.009755  0  -0.08892  -0.139521  0  3.96757  0
C  C213  1  0.02832624  0.86700524  0.09880096  1  -0.002141  0  -0.088597  -0.140532  0  3.968672  0
C  C214  1  0.11699718  0.77832276  0.59879658  1  -0.00179  0  -0.088597  -0.140653  0  3.968781  0
C  C215  1  0.48167288  0.82061167  0.59884340  1  0.010452  0  -0.088889  -0.139613  0  3.967614  0
C  C216  1  0.08418474  0.30579416  0.15974646  1  -0.08338  0  -0.08019  -0.087599  0  3.989626  0
C  C217  1  0.07568292  0.85370917  0.15959558  1  -0.005469  0  -0.08114  -0.087318  0  3.990004  0
C  C218  1  0.10369275  0.82567700  0.65958458  1  -0.004  0  -0.081221  -0.087398  0  3.989824  0
C  C219  1  0.55579326  0.83417328  0.65974083  1  -0.083983  0  -0.080229  -0.087493  0  3.989634  0
C  C220  1  0.09004187  0.45204631  0.21118119  1  1.542518  0  0.213205  0.574562  0  4.202098  0
C  C221  1  0.12120178  0.75892928  0.21093211  1  1.542603  0  0.212868  0.574614  0  4.204882  0
C  C222  1  0.00891073  0.87119342  0.71092439  1  1.542759  0  0.212761  0.574675  0  4.204903  0
C  C223  1  0.70204762  0.84003996  0.71117941  1  1.542619  0  0.213104  0.574492  0  4.202248  0
C  C224  1  0.85559508  0.06328138  0.87486538  1  -0.084716  0  -0.238614  -0.42848  0  3.946266  0
C  C225  1  0.01954566  0.81202592  0.87496672  1  -0.079419  0  -0.238914  -0.430253  0  3.94759  0
C  C226  1  0.06202467  0.76954345  0.37496810  1  -0.079362  0  -0.23897  -0.430232  0  3.947921  0
C  C227  1  0.31327948  0.60559598  0.37485646  1  -0.085108  0  -0.238686  -0.428625  0  3.946288  0
C  C228  1  0.17909328  0.15825769  0.99131336  1  -0.061817  0  -0.23067  -0.428797  0  3.959831  0
C  C229  1  0.81246037  0.83299838  0.99144394  1  -0.01267  0  -0.230304  -0.426964  0  3.956703  0
C  C230  1  0.08299565  0.56245053  0.49143983  1  -0.012961  0  -0.230199  -0.426837  0  3.956602  0
C  C231  1  0.40826357  0.92909794  0.49132085  1  -0.061815  0  -0.230652  -0.428792  0  3.959626  0
C  C232  1  0.64370221  0.29147637  0.66111100  1  0.029448  0  -0.026317  -0.052761  0  3.997362  0
C  C233  1  0.01738956  0.36974788  0.66113917  1  -0.09966  0  -0.026376  -0.053091  0  3.998018  0
C  C234  1  0.61973626  0.76738669  0.16113010  1  -0.099047  0  -0.026447  -0.053234  0  3.998169  0
C  C235  1  0.54147257  0.39370265  0.16111595  1  0.028471  0  -0.026308  -0.052797  0  3.9973  0
C  C236  1  0.64848998  0.37186756  0.67220559  1  -0.047905  0  -0.087956  -0.092695  0  4.001196  0
C  C237  1  0.02348974  0.30043206  0.67231980  1  -0.035429  0  -0.08859  -0.092551  0  4.004176  0
C  C238  1  0.55041898  0.77348755  0.17231197  1  -0.035892  0  -0.088514  -0.092513  0  4.004165  0
C  C239  1  0.62186978  0.39849226  0.17221653  1  -0.047758  0  -0.087969  -0.09271  0  4.00077  0
C  C240  1  0.54832143  0.41917041  0.87372621  1  0.453435  0  0.104057  0.220752  0  3.996979  0
C  C241  1  0.32545843  0.45424286  0.87358897  1  0.458346  0  0.103641  0.221527  0  3.998291  0
C  C242  1  0.70424625  0.07545071  0.37359540  1  0.458974  0  0.103574  0.221395  0  3.998069  0
C  C243  1  0.66916750  0.29831913  0.37373341  1  0.453936  0  0.104109  0.220858  0  3.99759  0
C  C244  1  0.63768825  0.42125799  0.73377288  1  -0.106161  0  -0.095268  -0.146252  0  3.991131  0
C  C245  1  0.09583651  0.31248150  0.73379102  1  -0.011447  0  -0.095059  -0.147159  0  3.991656  0
C  C246  1  0.56248080  0.84583607  0.23379149  1  -0.011789  0  -0.095103  -0.147136  0  3.991616  0
C  C247  1  0.67126538  0.38769630  0.23378906  1  -0.106507  0  -0.094996  -0.145757  0  3.99078  0
C  C248  1  0.61326034  0.44426914  0.85225740  1  0.044725  0  -0.032783  -0.179712  0  4.027831  0
C  C249  1  0.23901368  0.40768396  0.85202054  1  0.015157  0  -0.032533  -0.179626  0  4.027462  0
C  C250  1  0.65768536  0.98900259  0.35202640  1  0.015032  0  -0.032509  -0.17954  0  4.027349  0
C  C251  1  0.69426022  0.36325592  0.35226304  1  0.044027  0  -0.032821  -0.179704  0  4.027792  0
C  C252  1  0.62284015  0.39179861  0.78635269  1  0.024212  0  -0.005093  0.118546  0  4.03093  0
C  C253  1  0.16353891  0.39442580  0.78618679  1  -0.081498  0  -0.005061  0.118013  0  4.031017  0
C  C254  1  0.64442807  0.91353468  0.28619013  1  -0.081083  0  -0.004921  0.118057  0  4.031255  0
C  C255  1  0.64179448  0.37284041  0.28636011  1  0.024831  0  -0.0053  0.118115  0  4.031113  0
C  C256  1  0.66661229  0.53085117  0.90718841  1  0.425427  0  0.108833  0.217841  0  3.977096  0
C  C257  1  0.24050191  0.37605983  0.90696182  1  0.44875  0  0.109289  0.219173  0  3.975573  0
C  C258  1  0.62606804  0.99049505  0.40697134  1  0.447544  0  0.109395  0.219378  0  3.975373  0
C  C259  1  0.78084678  0.41660975  0.40719201  1  0.425758  0  0.108881  0.217973  0  3.977179  0
C  C260  1  0.61697552  0.31066432  0.77418155  1  -0.093448  0  -0.095269  -0.145361  0  3.967904  0
C  C261  1  0.15749228  0.46339114  0.77386149  1  -0.010101  0  -0.095746  -0.144281  0  3.965614  0
C  C262  1  0.71338891  0.90748578  0.27386443  1  -0.009953  0  -0.095773  -0.144246  0  3.966142  0
C  C263  1  0.56066395  0.36697859  0.27418953  1  -0.093979  0  -0.095217  -0.145058  0  3.967812  0
C  C264  1  0.62629007  0.26071846  0.71178371  1  -0.045127  0  -0.087485  -0.087822  0  3.992123  0
C  C265  1  0.08575467  0.45105532  0.71155531  1  -0.030561  0  -0.087146  -0.087847  0  3.992259  0
C  C266  1  0.70104486  0.83574605  0.21155339  1  -0.031242  0  -0.087137  -0.087914  0  3.992446  0
C  C267  1  0.51071760  0.37628733  0.21178534  1  -0.044396  0  -0.087493  -0.087728  0  3.992194  0
C  C268  1  0.66033444  0.23980927  0.59840611  1  1.541105  0  0.211397  0.581666  0  4.201182  0
C  C269  1  0.93793884  0.35867694  0.59852439  1  1.540417  0  0.211931  0.582219  0  4.200534  0
C  C270  1  0.60867229  0.68793822  0.09851733  1  1.540624  0  0.211993  0.582346  0  4.201051  0
C  C271  1  0.48980908  0.41033454  0.09840763  1  1.541483  0  0.211468  0.581759  0  4.201014  0
C  C272  1  0.47265202  0.33544434  0.83598250  1  -0.046206  0  -0.230011  -0.421549  0  3.949016  0
C  C273  1  0.36359495  0.50047118  0.83613106  1  -0.029905  0  -0.229735  -0.422297  0  3.951334  0
C  C274  1  0.75047084  0.11359080  0.33613614  1  -0.028866  0  -0.229666  -0.422116  0  3.951081  0
C  C275  1  0.58544824  0.22265619  0.33599482  1  -0.065173  0  -0.23007  -0.421607  0  3.94923  0
C  C276  1  0.74861780  0.59106690  0.91925732  1  -0.031362  0  -0.227266  -0.425843  0  3.969316  0
C  C277  1  0.17055568  0.32798544  0.91905352  1  -0.035811  0  -0.228444  -0.426051  0  3.968796  0
C  C278  1  0.57799680  0.92054549  0.41906263  1  -0.035981  0  -0.228342  -0.426073  0  3.968842  0
C  C279  1  0.84106419  0.49861583  0.41925713  1  -0.031429  0  -0.22727  -0.425893  0  3.969567  0
C  C280  1  0.27892527  0.65038428  0.69764879  1  -0.045112  0  -0.024227  -0.051738  0  3.996406  0
C  C281  1  0.41883148  0.04760652  0.69787061  1  -0.068776  0  -0.024984  -0.050377  0  3.992264  0
C  C282  1  0.29759769  0.16883891  0.19785526  1  -0.067925  0  -0.024993  -0.050361  0  3.992128  0
C  C283  1  0.90038314  0.02892639  0.19764573  1  -0.045227  0  -0.024283  -0.051783  0  3.996556  0
C  C284  1  0.24568327  0.58517375  0.03895258  1  -0.059071  0  -0.026133  -0.051145  0  3.992718  0
C  C285  1  0.79339648  0.45377582  0.03906468  1  -0.03155  0  -0.026215  -0.053147  0  3.993943  0
C  C286  1  0.70377342  0.54339711  0.53906988  1  -0.031466  0  -0.026233  -0.053235  0  3.994061  0
C  C287  1  0.83518246  0.99568370  0.53895779  1  -0.059065  0  -0.025975  -0.050887  0  3.992274  0
C  C288  1  0.25248124  0.56271685  0.67157818  1  -0.038804  0  -0.086184  -0.086106  0  3.98779  0
C  C289  1  0.41914946  0.10903200  0.67156543  1  -0.07805  0  -0.085686  -0.087754  0  3.98636  0
C  C290  1  0.35902205  0.16915966  0.17154981  1  -0.07943  0  -0.085667  -0.0865  0  3.986587  0
C  C291  1  0.81271770  0.00248248  0.17157755  1  -0.038713  0  -0.086109  -0.086064  0  3.987598  0
C  C292  1  0.32870145  0.59656300  0.05379033  1  -0.090177  0  -0.08704  -0.086968  0  3.984174  0
C  C293  1  0.72516238  0.45714991  0.05380147  1  -0.057573  0  -0.087134  -0.08506  0  3.982993  0
C  C294  1  0.70714986  0.47515922  0.55380216  1  -0.057306  0  -0.087105  -0.085009  0  3.982977  0
C  C295  1  0.84656510  0.07870467  0.55379645  1  -0.090324  0  -0.087088  -0.086957  0  3.983945  0
C  C296  1  0.38769973  0.51549904  0.49959693  1  0.449106  0  0.103803  0.224267  0  4.011074  0
C  C297  1  0.11172355  0.98407558  0.49977302  1  0.463494  0  0.103706  0.223778  0  4.009332  0
C  C298  1  0.23407641  0.86172880  0.99977439  1  0.463048  0  0.10372  0.223734  0  4.009853  0
C  C299  1  0.76549623  0.13769912  0.99959553  1  0.449175  0  0.103787  0.224246  0  4.011039  0
C  C300  1  0.36773495  0.47708277  0.24199595  1  0.436853  0  0.102167  0.220673  0  4.010598  0
C  C301  1  0.87437312  0.76491800  0.24210822  1  0.477939  0  0.10212  0.220692  0  4.00695  0
C  C302  1  0.01491206  0.62436963  0.74210801  1  0.477985  0  0.102157  0.220762  0  4.006995  0
C  C303  1  0.72707871  0.11773392  0.74199634  1  0.436728  0  0.102181  0.220654  0  4.010399  0
C  C304  1  0.26278588  0.51425761  0.60921759  1  -0.024667  0  -0.092884  -0.147074  0  3.990596  0
C  C305  1  0.34639208  0.09492056  0.60912986  1  -0.032869  0  -0.093057  -0.146973  0  3.991228  0
C  C306  1  0.34491954  0.09639849  0.10912409  1  -0.032649  0  -0.093139  -0.147174  0  3.990869  0
C  C307  1  0.76425425  0.01278283  0.10921233  1  -0.024707  0  -0.092934  -0.147197  0  3.990604  0
C  C308  1  0.37688078  0.58187992  0.11284641  1  -0.011025  0  -0.095622  -0.144355  0  3.970256  0
C  C309  1  0.73594467  0.53087379  0.11281825  1  -0.015152  0  -0.09584  -0.145582  0  3.970024  0
C  C310  1  0.78087214  0.48593659  0.61281482  1  -0.015532  0  -0.095844  -0.145546  0  3.970211  0
C  C311  1  0.83187985  0.12688007  0.61284867  1  -0.011238  0  -0.095552  -0.144285  0  3.970421  0
C  C312  1  0.31151472  0.50006951  0.50625232  1  0.00654  0  -0.036381  -0.190966  0  4.03037  0
C  C313  1  0.19456169  0.00618091  0.50641522  1  0.043329  0  -0.035063  -0.189534  0  4.029162  0
C  C314  1  0.25618050  0.94456597  0.00641552  1  0.043476  0  -0.035099  -0.189494  0  4.029354  0
C  C315  1  0.75006430  0.06151163  0.00625013  1  0.006732  0  -0.036389  -0.191036  0  4.030434  0
C  C316  1  0.39517662  0.54417273  0.22376338  1  0.013313  0  -0.030375  -0.16861  0  4.005688  0
C  C317  1  0.82847396  0.67955863  0.22375278  1  0.019233  0  -0.030186  -0.167912  0  4.004271  0
C  C318  1  0.92955881  0.57846605  0.72374507  1  0.018877  0  -0.030174  -0.1679  0  4.00428  0
C  C319  1  0.79416956  0.14517489  0.72376133  1  0.014204  0  -0.030432  -0.168684  0  4.005676  0
C  C320  1  0.30068582  0.55225174  0.57156629  1  -0.055867  0  -0.003724  0.11348  0  4.035787  0
C  C321  1  0.27079256  0.01936461  0.57170383  1  -0.030351  0  -0.003962  0.113402  0  4.033844  0
C  C322  1  0.26936771  0.02079826  0.07170305  1  -0.03014  0  -0.003913  0.113559  0  4.033882  0
C  C323  1  0.80225038  0.05068401  0.07156359  1  -0.056265  0  -0.003653  0.113708  0  4.035866  0
C  C324  1  0.34379996  0.55656806  0.15942804  1  -0.021399  0  -0.005133  0.115559  0  4.020209  0
C  C325  1  0.81558426  0.60281203  0.15947798  1  -0.033034  0  -0.00469  0.115458  0  4.020361  0
C  C326  1  0.85280879  0.56557820  0.65947696  1  -0.032898  0  -0.004686  0.115446  0  4.020268  0
C  C327  1  0.80656803  0.09379820  0.65942962  1  -0.021719  0  -0.005088  0.115635  0  4.020114  0
C  C328  1  0.24937773  0.42228230  0.43895617  1  0.465943  0  0.109979  0.223844  0  3.9729  0
C  C329  1  0.18941358  0.01680355  0.43917167  1  0.41814  0  0.109228  0.223676  0  3.974145  0
C  C330  1  0.26680444  0.93941722  0.93917160  1  0.418255  0  0.10921  0.223506  0  3.974133  0
C  C331  1  0.67227688  0.99937515  0.93895602  1  0.465901  0  0.109953  0.223788  0  3.972911  0
C  C332  1  0.48080327  0.59748586  0.28224907  1  0.456814  0  0.108871  0.218539  0  3.965852  0
C  C333  1  0.80107399  0.68478949  0.28206742  1  0.410943  0  0.109251  0.218526  0  3.9674  0
C  C334  1  0.93478581  0.55106671  0.78206657  1  0.411474  0  0.109267  0.218401  0  3.967239  0
C  C335  1  0.84748135  0.23079961  0.78224529  1  0.455752  0  0.108933  0.218676  0  3.965665  0
C  C336  1  0.32799568  0.64050881  0.59854851  1  0.007567  0  -0.09306  -0.142359  0  3.967606  0
C  C337  1  0.27056070  0.95826186  0.59888863  1  -0.107962  0  -0.093484  -0.142683  0  3.968263  0
C  C338  1  0.20826280  0.02056444  0.09888618  1  -0.10799  0  -0.093468  -0.14273  0  3.968527  0
C  C339  1  0.89050497  0.07800113  0.09854693  1  0.007388  0  -0.093087  -0.142516  0  3.967775  0
C  C340  1  0.26004273  0.54446091  0.14361578  1  -0.04263  0  -0.096177  -0.145883  0  3.980462  0
C  C341  1  0.88360191  0.59915592  0.14377081  1  -0.070057  0  -0.096602  -0.146892  0  3.980953  0
C  C342  1  0.84915583  0.63360420  0.64377407  1  -0.070193  0  -0.09664  -0.147077  0  3.98101  0
C  C343  1  0.79447012  0.01004217  0.64362399  1  -0.043223  0  -0.096179  -0.145945  0  3.980639  0
C  C344  1  0.31670945  0.68892110  0.66044638  1  -0.058832  0  -0.085444  -0.092652  0  3.994388  0
C  C345  1  0.34382060  0.97191728  0.66082495  1  0.027734  0  -0.08567  -0.094437  0  3.996559  0
C  C346  1  0.22191169  0.09382515  0.16081441  1  0.028347  0  -0.085729  -0.094495  0  3.997003  0
C  C347  1  0.93891018  0.06670857  0.16043977  1  -0.058632  0  -0.085443  -0.092654  0  3.994503  0
C  C348  1  0.21142919  0.55814686  0.08400449  1  -0.03768  0  -0.086629  -0.088193  0  3.982724  0
C  C349  1  0.87267935  0.52590620  0.08416148  1  -0.050345  0  -0.085648  -0.086046  0  3.982362  0
C  C350  1  0.77590693  0.62268282  0.58416728  1  -0.050498  0  -0.08558  -0.085836  0  3.982191  0
C  C351  1  0.80816281  0.96143398  0.58401575  1  -0.037194  0  -0.086771  -0.088472  0  3.983355  0
C  C352  1  0.26462362  0.70097968  0.76317447  1  1.538096  0  0.209814  0.574067  0  4.217832  0
C  C353  1  0.49866800  0.06251193  0.76334886  1  1.564201  0  0.211089  0.573573  0  4.216337  0
C  C354  1  0.31251264  0.24867683  0.26334446  1  1.564618  0  0.211117  0.573462  0  4.216781  0
C  C355  1  0.95097931  0.01462727  0.26317230  1  1.538474  0  0.209875  0.574178  0  4.218139  0
C  C356  1  0.19441182  0.60345285  0.97754701  1  1.532812  0  0.210794  0.57528  0  4.207266  0
C  C357  1  0.78334035  0.37408880  0.97773209  1  1.556085  0  0.211588  0.577182  0  4.208071  0
C  C358  1  0.62409293  0.53334218  0.47773881  1  1.556068  0  0.211483  0.577124  0  4.208159  0
C  C359  1  0.85345682  0.94440836  0.47754904  1  1.532971  0  0.210671  0.575012  0  4.207587  0
C  C360  1  0.47440753  0.58736589  0.55504786  1  -0.04583  0  -0.234628  -0.429877  0  3.954915  0
C  C361  1  0.08038083  0.96746828  0.55510982  1  -0.037903  0  -0.234712  -0.429345  0  3.956074  0
C  C362  1  0.21746805  0.83038522  0.05511051  1  -0.037876  0  -0.234682  -0.429351  0  3.955945  0
C  C363  1  0.83736260  0.22440824  0.05504691  1  -0.045703  0  -0.234626  -0.429796  0  3.954736  0
C  C364  1  0.28480925  0.39972632  0.19803332  1  -0.046237  0  -0.238503  -0.439958  0  3.970996  0
C  C365  1  0.91384941  0.79839066  0.19847940  1  -0.0943  0  -0.238565  -0.441385  0  3.971105  0
C  C366  1  0.04838043  0.66384213  0.69847802  1  -0.094473  0  -0.238631  -0.441496  0  3.971055  0
C  C367  1  0.64972926  0.03480181  0.69803951  1  -0.045615  0  -0.238377  -0.439762  0  3.971032  0
C  C368  1  0.15630850  0.37459028  0.40979989  1  -0.082554  0  -0.230955  -0.433893  0  3.957257  0
C  C369  1  0.25329842  0.03547061  0.40997612  1  -0.081815  0  -0.231428  -0.435085  0  3.956494  0
C  C370  1  0.28547364  0.00330484  0.90997581  1  -0.081355  0  -0.231391  -0.43508  0  3.956268  0
C  C371  1  0.62458811  0.90630305  0.90979702  1  -0.082406  0  -0.230854  -0.433638  0  3.957288  0
C  C372  1  0.54505133  0.67798981  0.29589045  1  -0.038857  0  -0.228951  -0.432303  0  3.965129  0
C  C373  1  0.75024397  0.61800288  0.29563021  1  -0.0483  0  -0.228565  -0.429872  0  3.963866  0
C  C374  1  0.86799798  0.50022941  0.79563005  1  -0.048569  0  -0.228471  -0.429821  0  3.963976  0
C  C375  1  0.92798946  0.29504507  0.79589015  1  -0.039079  0  -0.229013  -0.432285  0  3.965092  0
N  N376  1  0.04223363  0.03744978  0.87852296  1  -0.857116  0  -0.28179  -0.146045  0  3.66682  0
N  N377  1  0.83642449  0.84114982  0.87864112  1  -0.86281  0  -0.281555  -0.146472  0  3.668648  0
N  N378  1  0.09115225  0.58642229  0.37864269  1  -0.863081  0  -0.281497  -0.146252  0  3.668854  0
N  N379  1  0.28744598  0.79223911  0.37852935  1  -0.856947  0  -0.281718  -0.146094  0  3.666732  0
N  N380  1  0.95655564  0.01087083  0.84568089  1  -0.777136  0  -0.265153  -0.260467  0  3.487255  0
N  N381  1  0.88932179  0.83505732  0.84584925  1  -0.768022  0  -0.265948  -0.261295  0  3.490098  0
N  N382  1  0.08506266  0.63931923  0.34585029  1  -0.767901  0  -0.265845  -0.261302  0  3.48994  0
N  N383  1  0.26086708  0.70656175  0.34568086  1  -0.777049  0  -0.26515  -0.260467  0  3.487049  0
N  N384  1  0.63296034  0.55352185  0.95600961  1  -0.855444  0  -0.278027  -0.144695  0  3.680801  0
N  N385  1  0.32295576  0.40220587  0.95584765  1  -0.843948  0  -0.277618  -0.146864  0  3.683358  0
N  N386  1  0.65221299  0.07294981  0.45585868  1  -0.843085  0  -0.277629  -0.146875  0  3.683214  0
N  N387  1  0.80352296  0.38295999  0.45601214  1  -0.855282  0  -0.278024  -0.144753  0  3.680786  0
N  N388  1  0.56162045  0.48706899  0.93668033  1  -0.790813  0  -0.271613  -0.255566  0  3.562456  0
N  N389  1  0.37503555  0.44929773  0.93656755  1  -0.782401  0  -0.271002  -0.253258  0  3.562936  0
N  N390  1  0.69929908  0.12502606  0.43657323  1  -0.783658  0  -0.271178  -0.25343  0  3.56292  0
N  N391  1  0.73706624  0.31161567  0.43668158  1  -0.791032  0  -0.271652  -0.255635  0  3.562312  0
N  N392  1  0.28828644  0.39563849  0.39659836  1  -0.849145  0  -0.279678  -0.145156  0  3.652299  0
N  N393  1  0.10815875  0.00113032  0.39685842  1  -0.848691  0  -0.279881  -0.147133  0  3.658539  0
N  N394  1  0.25113322  0.85816308  0.89686099  1  -0.84752  0  -0.279878  -0.146997  0  3.658574  0
N  N395  1  0.64564162  0.03828495  0.89659605  1  -0.849128  0  -0.279684  -0.145111  0  3.652216  0
N  N396  1  0.49927520  0.56300875  0.33125759  1  -0.860575  0  -0.278946  -0.150063  0  3.685426  0
N  N397  1  0.83163027  0.76827757  0.33106990  1  -0.84993  0  -0.280456  -0.152291  0  3.687166  0
N  N398  1  0.01827128  0.58162181  0.83106760  1  -0.849769  0  -0.28039  -0.152126  0  3.687118  0
N  N399  1  0.81300926  0.24927645  0.83125629  1  -0.860441  0  -0.278948  -0.150027  0  3.685334  0
N  N400  1  0.37202699  0.45073118  0.43286308  1  -0.779262  0  -0.269391  -0.25532  0  3.529846  0
N  N401  1  0.06066802  0.98218860  0.43307264  1  -0.799997  0  -0.268525  -0.253138  0  3.53004  0
N  N402  1  0.23218838  0.81067225  0.93307442  1  -0.801112  0  -0.268485  -0.253141  0  3.530306  0
N  N403  1  0.70073333  0.12202647  0.93286279  1  -0.779294  0  -0.269435  -0.255404  0  3.530071  0
N  N404  1  0.43198080  0.49017031  0.30788397  1  -0.799099  0  -0.272309  -0.262566  0  3.542983  0
N  N405  1  0.87584409  0.81773943  0.30787112  1  -0.801014  0  -0.271387  -0.260538  0  3.541081  0
N  N406  1  0.06773372  0.62584005  0.80787499  1  -0.80091  0  -0.271463  -0.26064  0  3.540892  0
N  N407  1  0.74017197  0.18198339  0.80788854  1  -0.799172  0  -0.272263  -0.262544  0  3.542927  0
O  O408  1  0.10106985  0.45544111  0.27764959  1  -1.177642  0  -0.318035  -0.556158  0  2.18676  0
O  O409  1  0.17667099  0.82208851  0.27736129  1  -1.188594  0  -0.318312  -0.556586  0  2.187225  0
O  O410  1  0.07207355  0.92666330  0.77735899  1  -1.188514  0  -0.318381  -0.556763  0  2.18709  0
O  O411  1  0.70543280  0.85106621  0.77764927  1  -1.177347  0  -0.317932  -0.556144  0  2.186611  0
O  O412  1  0.09789542  0.51515780  0.19499613  1  -1.173363  0  -0.326832  -0.539884  0  2.339473  0
O  O413  1  0.09710613  0.67967111  0.19487906  1  -1.157145  0  -0.326916  -0.540398  0  2.342488  0
O  O414  1  0.92965932  0.84710540  0.69487602  1  -1.157706  0  -0.326826  -0.540359  0  2.3427  0
O  O415  1  0.76516523  0.84789495  0.69500367  1  -1.173467  0  -0.326859  -0.539927  0  2.3397  0
O  O416  1  0.69736369  0.28151973  0.56906982  1  -1.18584  0  -0.336231  -0.563266  0  2.377969  0
O  O417  1  0.87154713  0.28768612  0.56936497  1  -1.190478  0  -0.336472  -0.56377  0  2.377693  0
O  O418  1  0.53768391  0.62154663  0.06934575  1  -1.190604  0  -0.336507  -0.563767  0  2.378007  0
O  O419  1  0.53152258  0.44737236  0.06907360  1  -1.18587  0  -0.336217  -0.563286  0  2.377733  0
O  O420  1  0.63938833  0.16209414  0.57963088  1  -1.176888  0  -0.316789  -0.530886  0  2.181396  0
O  O421  1  0.94007182  0.41756102  0.57968060  1  -1.177202  0  -0.316671  -0.530665  0  2.18354  0
O  O422  1  0.66756220  0.69007293  0.07968409  1  -1.177266  0  -0.316743  -0.530795  0  2.18351  0
O  O423  1  0.41209303  0.38938377  0.07962413  1  -1.176877  0  -0.316836  -0.53089  0  2.1815  0
O  O424  1  0.24516015  0.66301012  0.80282289  1  -1.182982  0  -0.334137  -0.557063  0  2.368385  0
O  O425  1  0.55777690  0.14013248  0.80307325  1  -1.192823  0  -0.334722  -0.556525  0  2.366914  0
O  O426  1  0.39012976  0.30777530  0.30307035  1  -1.192979  0  -0.334717  -0.556307  0  2.366969  0
O  O427  1  0.91301802  0.99517545  0.30282603  1  -1.183085  0  -0.334054  -0.557013  0  2.368668  0
O  O428  1  0.11738881  0.58507173  0.96102317  1  -1.1804  0  -0.320798  -0.547567  0  2.188998  0
O  O429  1  0.84374388  0.37606150  0.96104302  1  -1.18207  0  -0.321441  -0.548683  0  2.189368  0
O  O430  1  0.62606221  0.59374534  0.46104395  1  -1.182115  0  -0.321484  -0.548761  0  2.189139  0
O  O431  1  0.83507019  0.86738532  0.46102682  1  -1.180379  0  -0.320684  -0.54738  0  2.189196  0
O  O432  1  0.27063414  0.77408371  0.77416194  1  -1.173532  0  -0.319384  -0.541168  0  2.170185  0
O  O433  1  0.50361480  0.00031966  0.77417275  1  -1.169995  0  -0.319962  -0.541227  0  2.171238  0
O  O434  1  0.25031598  0.25362299  0.27416503  1  -1.170053  0  -0.319982  -0.541241  0  2.17139  0
O  O435  1  0.02408176  0.02064043  0.27416183  1  -1.173675  0  -0.31945  -0.541235  0  2.170232  0
O  O436  1  0.23487687  0.63917019  0.94662366  1  -1.179509  0  -0.334494  -0.554977  0  2.355801  0
O  O437  1  0.71209600  0.30733744  0.94702525  1  -1.189625  0  -0.335097  -0.555955  0  2.357276  0
O  O438  1  0.55733939  0.46209993  0.44703064  1  -1.189796  0  -0.335002  -0.555896  0  2.357166  0
O  O439  1  0.88916871  0.98486984  0.44662139  1  -1.179456  0  -0.334517  -0.554961  0  2.355985  0
