# generated using pymatgen
data_Cd3Ag2H50C60(S4N)2
_symmetry_space_group_name_H-M   'P 1'
_cell_length_a   18.17662371
_cell_length_b   18.17625705
_cell_length_c   25.67903970
_cell_angle_alpha   110.72333238
_cell_angle_beta   110.72015305
_cell_angle_gamma   90.01004824
_symmetry_Int_Tables_number   1
_chemical_formula_structural   Cd3Ag2H50C60(S4N)2
_chemical_formula_sum   'Cd12 Ag8 H200 C240 S32 N8'
_cell_volume   7345.15728949
_cell_formula_units_Z   4
loop_
 _symmetry_equiv_pos_site_id
 _symmetry_equiv_pos_as_xyz
  1  'x, y, z'
loop_
 _atom_site_type_symbol
 _atom_site_label
 _atom_site_symmetry_multiplicity
 _atom_site_fract_x
 _atom_site_fract_y
 _atom_site_fract_z
 _atom_site_occupancy
 _atom_site_pbe_bader_charge
 _atom_site_pbe_bader_spin_density
 _atom_site_pbe_cm5_charge
 _atom_site_pbe_ddec_charge
 _atom_site_pbe_ddec_spin_density
 _atom_site_pbe_ddec_sum_bond_order
 _atom_site_pbe_magmom
Cd  Cd0  1  0.39416084  0.70198953  0.13134506  1  0.868804  0  0.527706  0.492191  0  2.600805  0
Cd  Cd1  1  0.73730820  0.92952575  0.13139684  1  0.869843  0  0.527416  0.491767  0  2.600164  0
Cd  Cd2  1  0.42951367  0.89410327  0.63138330  1  0.869808  0  0.527481  0.491723  0  2.600062  0
Cd  Cd3  1  0.20180759  0.23715875  0.63127168  1  0.868179  0  0.527432  0.49108  0  2.602184  0
Cd  Cd4  1  0.60584500  0.29801646  0.86865891  1  0.868791  0  0.527727  0.492238  0  2.600829  0
Cd  Cd5  1  0.26269078  0.07046398  0.86859782  1  0.870023  0  0.527381  0.491698  0  2.599942  0
Cd  Cd6  1  0.57048627  0.10589916  0.36861471  1  0.869867  0  0.527479  0.491712  0  2.600051  0
Cd  Cd7  1  0.79818711  0.76283746  0.36872705  1  0.868257  0  0.527449  0.491158  0  2.602162  0
Cd  Cd8  1  0.55418405  0.80436696  0.10843952  1  0.825563  0  0.475841  0.498517  0  2.557622  0
Cd  Cd9  1  0.30427976  0.05423295  0.60845764  1  0.826596  0  0.475983  0.498554  0  2.557455  0
Cd  Cd10  1  0.44581982  0.19563816  0.89156067  1  0.825681  0  0.475799  0.498449  0  2.557601  0
Cd  Cd11  1  0.69571458  0.94576881  0.39154251  1  0.826563  0  0.47597  0.498533  0  2.557617  0
Ag  Ag12  1  0.78215208  0.84523384  0.24899633  1  0.351789  0  0.27521  0.197348  0  2.536593  0
Ag  Ag13  1  0.46673116  0.90399480  0.24910723  1  0.35167  0  0.275113  0.197814  0  2.533348  0
Ag  Ag14  1  0.40376701  0.28226119  0.74885833  1  0.35298  0  0.275357  0.198177  0  2.53426  0
Ag  Ag15  1  0.34519623  0.96664058  0.74907707  1  0.352418  0  0.275445  0.197805  0  2.535247  0
Ag  Ag16  1  0.21784769  0.15476042  0.75101406  1  0.351916  0  0.275209  0.197284  0  2.536383  0
Ag  Ag17  1  0.53327192  0.09599439  0.75089574  1  0.351543  0  0.275113  0.197824  0  2.533402  0
Ag  Ag18  1  0.59621863  0.71773246  0.25113425  1  0.352898  0  0.275322  0.198073  0  2.534339  0
Ag  Ag19  1  0.65479565  0.03335298  0.25092896  1  0.352338  0  0.275435  0.197796  0  2.53533  0
H  H20  1  0.22071000  0.66740339  0.01351602  1  0.111638  0  0.11355  0.083453  0  1.023563  0
H  H21  1  0.79281816  0.84630746  0.01360087  1  0.12297  0  0.113717  0.08374  0  1.024286  0
H  H22  1  0.34626835  0.72065950  0.51354042  1  0.108769  0  0.113727  0.084167  0  1.023369  0
H  H23  1  0.16688073  0.29239563  0.51328711  1  0.093243  0  0.113881  0.083807  0  1.02371  0
H  H24  1  0.77929577  0.33260184  0.98648669  1  0.111611  0  0.113583  0.083505  0  1.023479  0
H  H25  1  0.20717849  0.15369531  0.98640041  1  0.122914  0  0.113786  0.083834  0  1.024318  0
H  H26  1  0.65373983  0.27934748  0.48646052  1  0.108666  0  0.113785  0.084261  0  1.023321  0
H  H27  1  0.83311576  0.70760094  0.48671580  1  0.093166  0  0.11392  0.083907  0  1.023698  0
H  H28  1  0.08313665  0.60039082  0.97590593  1  0.076913  0  0.109189  0.113837  0  0.996938  0
H  H29  1  0.89271237  0.87568189  0.97590884  1  0.08008  0  0.109146  0.114339  0  0.996733  0
H  H30  1  0.37569678  0.58310040  0.47591920  1  0.089967  0  0.108854  0.113398  0  0.997812  0
H  H31  1  0.09967114  0.39210359  0.47547106  1  0.073601  0  0.109245  0.114079  0  0.99619  0
H  H32  1  0.91686900  0.39961473  0.02409485  1  0.076902  0  0.109206  0.113835  0  0.996905  0
H  H33  1  0.10727864  0.12432883  0.02408915  1  0.079601  0  0.109134  0.114316  0  0.996689  0
H  H34  1  0.62430512  0.41690480  0.52407960  1  0.08972  0  0.108864  0.113418  0  0.997762  0
H  H35  1  0.90032932  0.60789096  0.52452988  1  0.073514  0  0.109225  0.11407  0  0.996115  0
H  H36  1  0.16497048  0.50081494  0.11346926  1  0.072471  0  0.109828  0.112527  0  0.987753  0
H  H37  1  0.94863304  0.11283738  0.11348093  1  0.08453  0  0.109799  0.112492  0  0.989154  0
H  H38  1  0.61294267  0.66506255  0.61335221  1  0.092499  0  0.110115  0.113119  0  0.988579  0
H  H39  1  0.00060573  0.44840024  0.61339628  1  0.083924  0  0.109981  0.112859  0  0.988036  0
H  H40  1  0.83503011  0.49919060  0.88653060  1  0.072312  0  0.109828  0.112516  0  0.987809  0
H  H41  1  0.05135287  0.88717149  0.88651969  1  0.084439  0  0.109807  0.112554  0  0.989119  0
H  H42  1  0.38705524  0.33493436  0.38665035  1  0.092626  0  0.110119  0.113091  0  0.988555  0
H  H43  1  0.99938998  0.55159824  0.38660286  1  0.083986  0  0.109976  0.112916  0  0.987894  0
H  H44  1  0.30112749  0.57101509  0.14421005  1  0.134046  0  0.108217  0.081981  0  1.027337  0
H  H45  1  0.84316411  0.07342305  0.14425989  1  0.124614  0  0.107995  0.081539  0  1.026896  0
H  H46  1  0.57339147  0.80115828  0.64417385  1  0.128008  0  0.108014  0.081466  0  1.027703  0
H  H47  1  0.07087629  0.34307142  0.64420832  1  0.120885  0  0.108465  0.081644  0  1.026653  0
H  H48  1  0.69887781  0.42899124  0.85579576  1  0.134144  0  0.108189  0.081987  0  1.027421  0
H  H49  1  0.15682851  0.92657906  0.85574509  1  0.12455  0  0.107986  0.081533  0  1.026866  0
H  H50  1  0.42661111  0.19883493  0.35582803  1  0.127869  0  0.10802  0.081449  0  1.027569  0
H  H51  1  0.92911484  0.65692588  0.35579039  1  0.120893  0  0.108438  0.081608  0  1.026548  0
H  H52  1  0.02925469  0.46918218  0.05145572  1  0.054833  0  0.105399  0.100505  0  1.001712  0
H  H53  1  0.02215195  0.08239075  0.05137138  1  0.104671  0  0.105465  0.100646  0  1.000998  0
H  H54  1  0.58240536  0.52920643  0.55130174  1  0.067247  0  0.105692  0.101014  0  1.001479  0
H  H55  1  0.96868733  0.52172951  0.55117775  1  0.061062  0  0.10546  0.100393  0  1.001939  0
H  H56  1  0.97075070  0.53082681  0.94854421  1  0.055229  0  0.105416  0.100533  0  1.001508  0
H  H57  1  0.97783412  0.91761684  0.94862463  1  0.105187  0  0.105513  0.100655  0  1.000943  0
H  H58  1  0.41759424  0.47079114  0.44869893  1  0.067277  0  0.105704  0.101028  0  1.001465  0
H  H59  1  0.03130930  0.47826678  0.44881933  1  0.061161  0  0.105444  0.100359  0  1.001974  0
H  H60  1  0.36210637  0.83826562  0.07424880  1  0.10611  0  0.086318  0.097538  0  1.067635  0
H  H61  1  0.71207482  0.73603567  0.07420814  1  0.093707  0  0.086432  0.097787  0  1.068044  0
H  H62  1  0.23611363  0.86204844  0.57420233  1  0.096519  0  0.086226  0.097512  0  1.067617  0
H  H63  1  0.33836176  0.21193466  0.57433143  1  0.046515  0  0.086406  0.097533  0  1.067963  0
H  H64  1  0.63790060  0.16173861  0.92575630  1  0.106237  0  0.086293  0.097455  0  1.067831  0
H  H65  1  0.28792360  0.26396759  0.92579013  1  0.093643  0  0.086474  0.097944  0  1.06801  0
H  H66  1  0.76389123  0.13795619  0.42579945  1  0.096607  0  0.086247  0.097494  0  1.067497  0
H  H67  1  0.66163824  0.78806661  0.42567084  1  0.046555  0  0.086389  0.097504  0  1.067997  0
H  H68  1  0.24260616  0.87865560  0.01442916  1  0.077059  0  0.09537  0.09173  0  1.017323  0
H  H69  1  0.77174996  0.63586831  0.01436968  1  0.068722  0  0.095501  0.091522  0  1.016031  0
H  H70  1  0.13593769  0.74253742  0.51431118  1  0.060312  0  0.095694  0.092274  0  1.016305  0
H  H71  1  0.37887142  0.27160784  0.51455175  1  0.059794  0  0.095454  0.091413  0  1.017542  0
H  H72  1  0.75740337  0.12134998  0.98557553  1  0.076806  0  0.095317  0.091639  0  1.017352  0
H  H73  1  0.22824703  0.36413461  0.98562895  1  0.068626  0  0.095462  0.091521  0  1.015953  0
H  H74  1  0.86406643  0.25746521  0.48569225  1  0.060448  0  0.095701  0.092259  0  1.016263  0
H  H75  1  0.62113121  0.72839369  0.48545078  1  0.059865  0  0.095427  0.091413  0  1.017561  0
H  H76  1  0.16397147  0.79040975  0.90750525  1  0.046733  0  0.091142  0.084519  0  1.021902  0
H  H77  1  0.74347373  0.61720943  0.90746078  1  0.052647  0  0.091112  0.084219  0  1.02175  0
H  H78  1  0.11722953  0.66408269  0.40735148  1  0.037961  0  0.091134  0.084067  0  1.021763  0
H  H79  1  0.29069291  0.24345773  0.40766522  1  0.035066  0  0.091252  0.084543  0  1.02252  0
H  H80  1  0.83603856  0.20959365  0.09250115  1  0.04687  0  0.091129  0.084515  0  1.021755  0
H  H81  1  0.25652432  0.38278812  0.09253833  1  0.052653  0  0.091135  0.084208  0  1.021754  0
H  H82  1  0.88277382  0.33591993  0.59265117  1  0.03794  0  0.091119  0.084067  0  1.02169  0
H  H83  1  0.70931229  0.75654045  0.59233691  1  0.035049  0  0.091256  0.0846  0  1.022462  0
H  H84  1  0.20989254  0.66306642  0.86144445  1  0.043544  0  0.097288  0.092645  0  1.027883  0
H  H85  1  0.65148624  0.69852519  0.86142814  1  0.033308  0  0.0973  0.092609  0  1.027854  0
H  H86  1  0.19857219  0.71019960  0.36138705  1  0.035211  0  0.097219  0.092474  0  1.028432  0
H  H87  1  0.16330153  0.15150528  0.36154086  1  0.053571  0  0.097139  0.092236  0  1.027729  0
H  H88  1  0.79011046  0.33693698  0.13856323  1  0.043411  0  0.097308  0.092695  0  1.027751  0
H  H89  1  0.34850974  0.30146798  0.13856710  1  0.03338  0  0.097328  0.09269  0  1.027837  0
H  H90  1  0.80142761  0.28980217  0.63861441  1  0.03516  0  0.097204  0.092468  0  1.02845  0
H  H91  1  0.83670511  0.84849229  0.63845853  1  0.053531  0  0.097134  0.092225  0  1.02774  0
H  H92  1  0.33129824  0.62340578  0.92093743  1  0.101544  0  0.101035  0.1086  0  1.026051  0
H  H93  1  0.58969716  0.79776842  0.92097955  1  0.089003  0  0.101163  0.10892  0  1.027618  0
H  H94  1  0.29782379  0.83151619  0.42100432  1  0.090809  0  0.101256  0.109183  0  1.026783  0
H  H95  1  0.12347028  0.08962039  0.42099796  1  0.069939  0  0.101311  0.109192  0  1.026413  0
H  H96  1  0.66870458  0.37659434  0.07906768  1  0.101521  0  0.101066  0.10873  0  1.025925  0
H  H97  1  0.41029812  0.20222927  0.07901378  1  0.08875  0  0.101163  0.108928  0  1.027647  0
H  H98  1  0.70217608  0.16848732  0.57899304  1  0.090865  0  0.101285  0.109255  0  1.026841  0
H  H99  1  0.87653207  0.91037809  0.57899951  1  0.070034  0  0.101317  0.109171  0  1.026427  0
H  H100  1  0.79684896  0.70087737  0.16938478  1  0.104261  0  0.079614  0.095756  0  1.074337  0
H  H101  1  0.37241432  0.96893803  0.16944550  1  0.069583  0  0.079881  0.096123  0  1.074792  0
H  H102  1  0.46890628  0.29694956  0.66927219  1  0.101938  0  0.080123  0.095885  0  1.073694  0
H  H103  1  0.20097044  0.87236154  0.66941758  1  0.096924  0  0.079752  0.095726  0  1.074826  0
H  H104  1  0.20314819  0.29912236  0.83061222  1  0.104065  0  0.079631  0.095837  0  1.074289  0
H  H105  1  0.62759002  0.03106595  0.83055934  1  0.069693  0  0.079924  0.096187  0  1.074737  0
H  H106  1  0.53109215  0.70304800  0.33072730  1  0.101958  0  0.08011  0.095849  0  1.073733  0
H  H107  1  0.79902828  0.12763813  0.33058458  1  0.096825  0  0.079735  0.095691  0  1.074898  0
H  H108  1  0.82582467  0.57512821  0.10588608  1  0.047535  0  0.095758  0.088872  0  0.997236  0
H  H109  1  0.27990228  0.03121833  0.10599442  1  0.034054  0  0.095723  0.088824  0  0.997001  0
H  H110  1  0.53107629  0.32585292  0.60566138  1  0.019886  0  0.095755  0.088959  0  0.998054  0
H  H111  1  0.07525666  0.77975121  0.60596102  1  0.034123  0  0.095841  0.088913  0  0.997757  0
H  H112  1  0.17417176  0.42487042  0.89411080  1  0.047482  0  0.095765  0.088915  0  0.997181  0
H  H113  1  0.72009993  0.96878607  0.89401126  1  0.03409  0  0.095703  0.088851  0  0.996988  0
H  H114  1  0.46891954  0.67414245  0.39433669  1  0.019796  0  0.095802  0.089069  0  0.997915  0
H  H115  1  0.92474213  0.22024829  0.39404003  1  0.033749  0  0.095825  0.088877  0  0.997785  0
H  H116  1  0.71650631  0.46170416  0.03731879  1  0.059557  0  0.088461  0.080364  0  1.05914  0
H  H117  1  0.32046224  0.07575681  0.03720541  1  0.050247  0  0.088266  0.079868  0  1.060745  0
H  H118  1  0.57560297  0.21640283  0.53695937  1  0.048782  0  0.08858  0.080592  0  1.06094  0
H  H119  1  0.96176910  0.82044734  0.53738328  1  0.059951  0  0.088443  0.080334  0  1.060097  0
H  H120  1  0.28348835  0.53829498  0.96267988  1  0.059474  0  0.088516  0.080452  0  1.059098  0
H  H121  1  0.67953952  0.92424397  0.96279923  1  0.050147  0  0.088229  0.079784  0  1.060786  0
H  H122  1  0.42439196  0.78359564  0.46303899  1  0.048638  0  0.088574  0.080584  0  1.060872  0
H  H123  1  0.03822984  0.17955181  0.46261553  1  0.059997  0  0.088441  0.08033  0  1.060072  0
H  H124  1  0.57943546  0.47478600  0.03543650  1  0.100483  0  0.092831  0.091315  0  1.045199  0
H  H125  1  0.45558304  0.06066716  0.03517614  1  0.077417  0  0.092859  0.091553  0  1.045627  0
H  H126  1  0.56068084  0.07937722  0.53515792  1  0.081265  0  0.092667  0.091516  0  1.046066  0
H  H127  1  0.97472729  0.95562987  0.53549152  1  0.094652  0  0.092797  0.091221  0  1.045748  0
H  H128  1  0.42055984  0.52521441  0.96456341  1  0.100352  0  0.092834  0.091297  0  1.045248  0
H  H129  1  0.54441665  0.93933394  0.96482462  1  0.077407  0  0.0929  0.091634  0  1.045617  0
H  H130  1  0.43931801  0.92062311  0.46484079  1  0.081317  0  0.092649  0.091514  0  1.045912  0
H  H131  1  0.02527301  0.04436979  0.46450805  1  0.092759  0  0.092785  0.091171  0  1.045755  0
H  H132  1  0.55051820  0.59990993  0.09921932  1  0.091212  0  0.088724  0.100035  0  1.049558  0
H  H133  1  0.54837079  0.99939995  0.09899557  1  0.071514  0  0.089326  0.100535  0  1.048966  0
H  H134  1  0.49950146  0.05057302  0.59908115  1  0.053533  0  0.088965  0.099903  0  1.050135  0
H  H135  1  0.09977379  0.04846153  0.59926645  1  0.070353  0  0.08889  0.099766  0  1.049367  0
H  H136  1  0.44948012  0.40009259  0.90078185  1  0.091214  0  0.088728  0.100038  0  1.049569  0
H  H137  1  0.45163472  0.00060216  0.90100568  1  0.071549  0  0.08923  0.100471  0  1.049125  0
H  H138  1  0.50050151  0.94942866  0.40091873  1  0.053522  0  0.088991  0.099924  0  1.050116  0
H  H139  1  0.90022617  0.95153705  0.40073339  1  0.07032  0  0.088885  0.099738  0  1.049371  0
H  H140  1  0.97352222  0.84579030  0.14018157  1  0.048799  0  0.091587  0.096  0  1.008959  0
H  H141  1  0.16670320  0.79400913  0.14006906  1  0.052879  0  0.091582  0.09556  0  1.008985  0
H  H142  1  0.29374396  0.47339937  0.64000074  1  0.055428  0  0.091574  0.09571  0  1.008942  0
H  H143  1  0.34606461  0.66663579  0.64003592  1  0.051508  0  0.091426  0.095851  0  1.008651  0
H  H144  1  0.02646618  0.15420791  0.85981678  1  0.04876  0  0.09163  0.09609  0  1.008947  0
H  H145  1  0.83330288  0.20599443  0.85993454  1  0.052798  0  0.091607  0.095611  0  1.008916  0
H  H146  1  0.70624955  0.52660068  0.35999498  1  0.055196  0  0.091581  0.09579  0  1.00882  0
H  H147  1  0.65393862  0.33336246  0.35996481  1  0.051436  0  0.09143  0.095784  0  1.008623  0
H  H148  1  0.09991899  0.93824123  0.18381417  1  0.033065  0  0.096826  0.094698  0  1.002564  0
H  H149  1  0.08371213  0.74533224  0.18364076  1  0.011449  0  0.096495  0.09422  0  1.00271  0
H  H150  1  0.24502691  0.59985291  0.68370298  1  0.045526  0  0.096787  0.094753  0  1.002413  0
H  H151  1  0.43845310  0.58375286  0.68363866  1  0.013761  0  0.09657  0.094177  0  1.002831  0
H  H152  1  0.90007339  0.06175217  0.81617922  1  0.033564  0  0.096846  0.094722  0  1.002574  0
H  H153  1  0.91629014  0.25467205  0.81636020  1  0.011708  0  0.096532  0.094283  0  1.002709  0
H  H154  1  0.75497382  0.40015043  0.31629404  1  0.045556  0  0.096784  0.094827  0  1.002163  0
H  H155  1  0.56155109  0.41624775  0.31636305  1  0.013716  0  0.096588  0.094204  0  1.00297  0
H  H156  1  0.12283080  0.06476927  0.27081307  1  0.069997  0  0.09298  0.087737  0  1.027073  0
H  H157  1  0.14767513  0.70602481  0.27079141  1  0.039021  0  0.093048  0.088083  0  1.027373  0
H  H158  1  0.20588092  0.62288640  0.77092333  1  0.042808  0  0.093181  0.087784  0  1.027733  0
H  H159  1  0.56482332  0.64787852  0.77088428  1  0.048653  0  0.093182  0.088024  0  1.027588  0
H  H160  1  0.87717027  0.93522483  0.72918130  1  0.069828  0  0.093003  0.087773  0  1.027224  0
H  H161  1  0.85232371  0.29397646  0.72920969  1  0.039031  0  0.093061  0.088143  0  1.02738  0
H  H162  1  0.79412386  0.37712032  0.22907658  1  0.04301  0  0.093149  0.087752  0  1.027551  0
H  H163  1  0.43518105  0.35211789  0.22911702  1  0.048787  0  0.093143  0.087981  0  1.027648  0
H  H164  1  0.01772474  0.09848072  0.31470644  1  0.055468  0  0.094377  0.089046  0  1.021407  0
H  H165  1  0.29665071  0.71605378  0.31472803  1  0.073243  0  0.094519  0.089171  0  1.02053  0
H  H166  1  0.21620278  0.51780353  0.81484343  1  0.051019  0  0.094385  0.089248  0  1.020353  0
H  H167  1  0.59849981  0.79687321  0.81484444  1  0.07287  0  0.094576  0.089234  0  1.021876  0
H  H168  1  0.98228134  0.90151726  0.68529120  1  0.055349  0  0.094383  0.089035  0  1.021424  0
H  H169  1  0.70334979  0.28394539  0.68527235  1  0.073133  0  0.094522  0.089152  0  1.020493  0
H  H170  1  0.78379359  0.48219811  0.18514981  1  0.050897  0  0.094407  0.089297  0  1.020342  0
H  H171  1  0.40150839  0.20312807  0.18515772  1  0.072938  0  0.094569  0.089279  0  1.022031  0
H  H172  1  0.89396876  0.00541562  0.27247938  1  0.076596  0  0.089488  0.102463  0  1.043882  0
H  H173  1  0.37833931  0.76665844  0.27249143  1  0.06717  0  0.08965  0.102792  0  1.04353  0
H  H174  1  0.26681530  0.39398342  0.77247688  1  0.079642  0  0.089659  0.102602  0  1.043198  0
H  H175  1  0.50558604  0.87842644  0.77252882  1  0.063653  0  0.089562  0.102669  0  1.044234  0
H  H176  1  0.10603409  0.99458910  0.72752516  1  0.076488  0  0.089501  0.102487  0  1.043928  0
H  H177  1  0.62166413  0.23334116  0.72751071  1  0.067264  0  0.089646  0.102801  0  1.043435  0
H  H178  1  0.73317179  0.60601802  0.22751417  1  0.079653  0  0.089632  0.102521  0  1.043194  0
H  H179  1  0.49441778  0.12157507  0.22747072  1  0.063687  0  0.089543  0.102614  0  1.044111  0
H  H180  1  0.97258346  0.81829489  0.26246451  1  0.052468  0  0.088156  0.101397  0  1.034142  0
H  H181  1  0.28980390  0.94431950  0.26252092  1  0.050998  0  0.088108  0.101326  0  1.033345  0
H  H182  1  0.44422120  0.47250352  0.76260404  1  0.059761  0  0.0879  0.100605  0  1.033944  0
H  H183  1  0.31836157  0.78987564  0.76251761  1  0.0044  0  0.087999  0.100957  0  1.034111  0
H  H184  1  0.02742011  0.18169690  0.73753657  1  0.052456  0  0.088126  0.101336  0  1.034128  0
H  H185  1  0.71019680  0.05567638  0.73747727  1  0.051101  0  0.088063  0.101235  0  1.033452  0
H  H186  1  0.55578908  0.52749749  0.23739424  1  0.059772  0  0.087935  0.100637  0  1.033989  0
H  H187  1  0.68163678  0.21011468  0.23747642  1  0.006387  0  0.087914  0.100831  0  1.034069  0
H  H188  1  0.10048764  0.90813453  0.31805895  1  0.069715  0  0.094948  0.091613  0  1.032742  0
H  H189  1  0.21774518  0.90999374  0.31824146  1  0.052783  0  0.095123  0.091828  0  1.032649  0
H  H190  1  0.41009310  0.60035898  0.81841104  1  0.059423  0  0.095051  0.091668  0  1.03201  0
H  H191  1  0.40834058  0.71780657  0.81826075  1  0.05364  0  0.095244  0.09171  0  1.031966  0
H  H192  1  0.89951306  0.09186414  0.68194223  1  0.069755  0  0.094907  0.091572  0  1.032744  0
H  H193  1  0.78224806  0.09000883  0.68175518  1  0.052816  0  0.095088  0.091806  0  1.032652  0
H  H194  1  0.58991756  0.39964489  0.18158703  1  0.059452  0  0.095066  0.091696  0  1.031952  0
H  H195  1  0.59166144  0.28218897  0.18173638  1  0.053534  0  0.095281  0.091777  0  1.031979  0
H  H196  1  0.16156812  0.95644671  0.43063063  1  0.031022  0  0.087311  0.082808  0  1.060064  0
H  H197  1  0.26926783  0.97444068  0.43081079  1  0.043221  0  0.08777  0.083345  0  1.060508  0
H  H198  1  0.47467659  0.66132312  0.93095497  1  0.055174  0  0.087588  0.083173  0  1.059347  0
H  H199  1  0.45636171  0.76931788  0.93079903  1  0.054269  0  0.087676  0.083361  0  1.059902  0
H  H200  1  0.83842889  0.04355800  0.56937221  1  0.031225  0  0.087346  0.082896  0  1.059956  0
H  H201  1  0.73072605  0.02556316  0.56918710  1  0.043915  0  0.087766  0.083323  0  1.060556  0
H  H202  1  0.52533069  0.33867663  0.06904389  1  0.055102  0  0.087583  0.083069  0  1.059419  0
H  H203  1  0.54363773  0.23067447  0.06919789  1  0.054302  0  0.087616  0.083206  0  1.059997  0
H  H204  1  0.09381209  0.91210773  0.48511044  1  0.050043  0  0.089783  0.087104  0  1.045691  0
H  H205  1  0.39137739  0.07340251  0.48516330  1  0.113541  0  0.089605  0.087048  0  1.046852  0
H  H206  1  0.57367144  0.59354466  0.98524072  1  0.045522  0  0.089934  0.087773  0  1.046138  0
H  H207  1  0.41174570  0.89140015  0.98516361  1  0.113781  0  0.089663  0.087077  0  1.046059  0
H  H208  1  0.90618215  0.08789335  0.51488901  1  0.050223  0  0.089828  0.087108  0  1.045649  0
H  H209  1  0.60862117  0.92659664  0.51483512  1  0.113447  0  0.089628  0.087077  0  1.046953  0
H  H210  1  0.42633249  0.40645190  0.01475715  1  0.045479  0  0.089896  0.087717  0  1.046153  0
H  H211  1  0.58824890  0.10859068  0.01483442  1  0.113677  0  0.089683  0.087099  0  1.046118  0
H  H212  1  0.96543656  0.82407883  0.43006685  1  0.05104  0  0.082852  0.082502  0  1.068547  0
H  H213  1  0.46461672  0.10631596  0.43001291  1  0.031221  0  0.082442  0.082224  0  1.068622  0
H  H214  1  0.60658857  0.46522503  0.92999680  1  0.055396  0  0.082753  0.081792  0  1.070298  0
H  H215  1  0.32363532  0.96456642  0.92999093  1  0.053717  0  0.082779  0.082539  0  1.068509  0
H  H216  1  0.03456094  0.17591722  0.56993349  1  0.05113  0  0.08284  0.082484  0  1.068588  0
H  H217  1  0.53538779  0.89367918  0.56998792  1  0.031055  0  0.082443  0.082248  0  1.068589  0
H  H218  1  0.39341329  0.53477086  0.07000257  1  0.055543  0  0.082761  0.081808  0  1.070345  0
H  H219  1  0.67635823  0.03541945  0.07000425  1  0.053483  0  0.08275  0.082402  0  1.068403  0
C  C220  1  0.20600699  0.62884674  0.03385263  1  0.475174  0  0.04883  0.095152  0  3.957556  0
C  C221  1  0.82787584  0.90518042  0.03391797  1  0.503047  0  0.048985  0.095532  0  3.959218  0
C  C222  1  0.40515571  0.70595211  0.53386402  1  0.537727  0  0.048388  0.09456  0  3.960499  0
C  C223  1  0.12840926  0.32751777  0.53365021  1  0.479018  0  0.048215  0.094261  0  3.958302  0
C  C224  1  0.79400005  0.37115454  0.96614836  1  0.47531  0  0.048739  0.095097  0  3.957554  0
C  C225  1  0.17211620  0.09482502  0.96608105  1  0.503433  0  0.048973  0.095473  0  3.959291  0
C  C226  1  0.59485018  0.29405007  0.46613402  1  0.53734  0  0.048341  0.094463  0  3.960505  0
C  C227  1  0.87158441  0.67247810  0.46634926  1  0.47926  0  0.048099  0.093968  0  3.958272  0
C  C228  1  0.12898171  0.59133267  0.01324633  1  -0.02984  0  -0.080563  -0.173903  0  3.922844  0
C  C229  1  0.88425754  0.92207345  0.01327976  1  -0.116605  0  -0.080864  -0.174927  0  3.922787  0
C  C230  1  0.42210034  0.62897130  0.51325969  1  -0.076554  0  -0.080274  -0.173676  0  3.925575  0
C  C231  1  0.09077014  0.38378277  0.51293966  1  0.015698  0  -0.081016  -0.174457  0  3.923569  0
C  C232  1  0.87102161  0.40867287  0.98675211  1  -0.029777  0  -0.080517  -0.173863  0  3.923023  0
C  C233  1  0.11573720  0.07793485  0.98672138  1  -0.116056  0  -0.0809  -0.174938  0  3.922749  0
C  C234  1  0.57790368  0.37103163  0.48673766  1  -0.075992  0  -0.080361  -0.173783  0  3.925567  0
C  C235  1  0.90922626  0.61621218  0.48706017  1  0.015729  0  -0.080933  -0.174226  0  3.923281  0
C  C236  1  0.11153489  0.54315827  0.04119561  1  -0.016187  0  0.007471  0.145042  0  4.035539  0
C  C237  1  0.92967613  0.99817752  0.04121492  1  0.039322  0  0.007642  0.145186  0  4.037077  0
C  C238  1  0.49823712  0.61156271  0.54115805  1  -0.041544  0  0.007618  0.145874  0  4.03584  0
C  C239  1  0.04276992  0.42932431  0.54097517  1  -0.0321  0  0.008134  0.146602  0  4.036138  0
C  C240  1  0.88846216  0.45685105  0.95880667  1  -0.016828  0  0.007515  0.145093  0  4.035169  0
C  C241  1  0.07031133  0.00182857  0.95878428  1  0.03892  0  0.007693  0.145201  0  4.037169  0
C  C242  1  0.50176330  0.38843663  0.45884344  1  -0.04135  0  0.007636  0.145906  0  4.03589  0
C  C243  1  0.95722749  0.57067007  0.45902568  1  -0.031845  0  0.00806  0.146313  0  4.036369  0
C  C244  1  0.17492371  0.53628327  0.08942441  1  0.004198  0  -0.076506  -0.16732  0  3.921867  0
C  C245  1  0.91458164  0.05333397  0.08944675  1  -0.019149  0  -0.076197  -0.166951  0  3.924613  0
C  C246  1  0.55339323  0.67495580  0.58932951  1  -0.030953  0  -0.077009  -0.16931  0  3.922937  0
C  C247  1  0.03598807  0.41432169  0.58929503  1  -0.038189  0  -0.076651  -0.168565  0  3.923492  0
C  C248  1  0.82507913  0.46372431  0.91057952  1  0.004699  0  -0.07649  -0.16729  0  3.922071  0
C  C249  1  0.08541277  0.94666854  0.91055466  1  -0.019146  0  -0.07624  -0.167133  0  3.924791  0
C  C250  1  0.44660737  0.32504027  0.41067395  1  -0.031126  0  -0.076997  -0.169256  0  3.923012  0
C  C251  1  0.96400695  0.58567470  0.41070521  1  -0.015263  0  -0.076704  -0.168686  0  3.92357  0
C  C252  1  0.25056776  0.57502596  0.10682192  1  0.46419  0  0.052402  0.107737  0  3.936103  0
C  C253  1  0.85635464  0.03202179  0.10687765  1  0.473592  0  0.052454  0.10798  0  3.936346  0
C  C254  1  0.53199635  0.75058990  0.60678135  1  0.490522  0  0.052832  0.10965  0  3.933097  0
C  C255  1  0.07476273  0.35612076  0.60674496  1  0.502144  0  0.05196  0.108291  0  3.932547  0
C  C256  1  0.74943758  0.42497844  0.89318273  1  0.464472  0  0.052413  0.107679  0  3.936364  0
C  C257  1  0.14363827  0.96797871  0.89312463  1  0.474072  0  0.052383  0.107976  0  3.936618  0
C  C258  1  0.46800793  0.24941238  0.39321985  1  0.490596  0  0.052843  0.109644  0  3.933213  0
C  C259  1  0.92523195  0.64387454  0.39325554  1  0.479539  0  0.051992  0.108391  0  3.93275  0
C  C260  1  0.03296508  0.50125967  0.02340338  1  -0.077523  0  -0.078816  -0.117327  0  3.96968  0
C  C261  1  0.99042115  0.02222087  0.02337593  1  -0.148769  0  -0.07853  -0.117025  0  3.971837  0
C  C262  1  0.52225216  0.53296806  0.52333355  1  0.006347  0  -0.07874  -0.117536  0  3.971363  0
C  C263  1  0.00099377  0.49018690  0.52325266  1  -0.013869  0  -0.078684  -0.11723  0  3.970709  0
C  C264  1  0.96703660  0.49874887  0.97659401  1  0.009601  0  -0.078817  -0.117227  0  3.969038  0
C  C265  1  0.00956889  0.97778843  0.97662347  1  -0.019362  0  -0.078418  -0.116834  0  3.971844  0
C  C266  1  0.47774973  0.46703337  0.47666764  1  -0.114807  0  -0.078753  -0.117562  0  3.971344  0
C  C267  1  0.99900854  0.50980884  0.47675013  1  -0.118558  0  -0.078597  -0.11705  0  3.97064  0
C  C268  1  0.35393941  0.72725734  0.00219098  1  -0.187128  0  -0.019893  0.107015  0  4.004741  0
C  C269  1  0.64826489  0.77509469  0.00219459  1  -0.177907  0  -0.019076  0.10801  0  4.007507  0
C  C270  1  0.27516411  0.85403040  0.50220910  1  -0.125411  0  -0.019642  0.10717  0  4.008476  0
C  C271  1  0.22730709  0.14816367  0.50227059  1  -0.249156  0  -0.01963  0.10743  0  4.006599  0
C  C272  1  0.64606746  0.27274337  0.99781402  1  -0.187538  0  -0.019858  0.10714  0  4.004676  0
C  C273  1  0.35173720  0.22490538  0.99780141  1  -0.178041  0  -0.019058  0.107975  0  4.007591  0
C  C274  1  0.72483567  0.14597237  0.49779115  1  -0.126068  0  -0.019613  0.107228  0  4.00842  0
C  C275  1  0.77268998  0.85183623  0.49772754  1  -0.248979  0  -0.019658  0.107378  0  4.006567  0
C  C276  1  0.32871414  0.79943463  0.02771467  1  -0.001185  0  -0.103793  -0.147168  0  3.996798  0
C  C277  1  0.69894420  0.72837704  0.02768446  1  -0.085136  0  -0.104097  -0.148342  0  3.996178  0
C  C278  1  0.22846596  0.82872726  0.52767979  1  0.007428  0  -0.104021  -0.147798  0  3.998008  0
C  C279  1  0.29954671  0.19882436  0.52780533  1  0.053753  0  -0.103795  -0.1474  0  3.995213  0
C  C280  1  0.67128815  0.20056211  0.97228691  1  -0.000849  0  -0.103722  -0.14703  0  3.996876  0
C  C281  1  0.30105797  0.27162563  0.97231342  1  -0.085018  0  -0.104115  -0.148411  0  3.996175  0
C  C282  1  0.77153871  0.17127687  0.47232240  1  0.007918  0  -0.103991  -0.147737  0  3.998025  0
C  C283  1  0.70045101  0.80117396  0.47219464  1  0.05362  0  -0.103801  -0.147355  0  3.995261  0
C  C284  1  0.26064746  0.82187928  0.99382092  1  -0.083896  0  -0.093148  -0.068414  0  4.020312  0
C  C285  1  0.73310127  0.67204378  0.99376406  1  0.009146  0  -0.093804  -0.06803  0  4.019053  0
C  C286  1  0.17212086  0.76064330  0.49373636  1  -0.132754  0  -0.093376  -0.06851  0  4.02014  0
C  C287  1  0.32208358  0.23298973  0.49392839  1  -0.005094  0  -0.093714  -0.068192  0  4.019619  0
C  C288  1  0.73935763  0.17812570  0.00618349  1  -0.08375  0  -0.09313  -0.0684  0  4.020408  0
C  C289  1  0.26689595  0.32795671  0.00623421  1  0.009736  0  -0.09376  -0.068041  0  4.018866  0
C  C290  1  0.82788270  0.23935412  0.50626710  1  -0.132966  0  -0.093356  -0.068456  0  4.020294  0
C  C291  1  0.67792133  0.76700727  0.50607344  1  -0.004607  0  -0.093672  -0.068231  0  4.019733  0
C  C292  1  0.21692723  0.77259810  0.93411004  1  -0.056453  0  -0.102061  -0.101469  0  4.045635  0
C  C293  1  0.71709671  0.66161716  0.93404385  1  -0.095337  0  -0.102043  -0.101634  0  4.046119  0
C  C294  1  0.16165512  0.71702686  0.43398999  1  0.00034  0  -0.102307  -0.101043  0  4.045832  0
C  C295  1  0.27282551  0.21708196  0.43422672  1  -0.074743  0  -0.102265  -0.101987  0  4.046719  0
C  C296  1  0.78307979  0.22740505  0.06589572  1  -0.056149  0  -0.102018  -0.101407  0  4.045404  0
C  C297  1  0.28290012  0.33838333  0.06595403  1  -0.095888  0  -0.102088  -0.101653  0  4.045869  0
C  C298  1  0.83834850  0.28297324  0.56601174  1  6.3e-05  0  -0.102325  -0.101088  0  4.045721  0
C  C299  1  0.72717959  0.78291738  0.56577531  1  -0.075465  0  -0.10229  -0.102101  0  4.046835  0
C  C300  1  0.24271322  0.70137444  0.90827160  1  -0.061361  0  -0.095336  -0.079982  0  4.02866  0
C  C301  1  0.66548242  0.70703685  0.90824694  1  -0.004044  0  -0.09505  -0.079179  0  4.02957  0
C  C302  1  0.20709036  0.74292235  0.40822117  1  -0.039297  0  -0.095331  -0.080262  0  4.031678  0
C  C303  1  0.20157916  0.16546967  0.40836617  1  -0.031985  0  -0.095313  -0.078924  0  4.028432  0
C  C304  1  0.75729098  0.29862895  0.09173309  1  -0.062209  0  -0.095366  -0.080066  0  4.028682  0
C  C305  1  0.33452092  0.29296298  0.09175272  1  -0.004019  0  -0.095094  -0.0793  0  4.029399  0
C  C306  1  0.79291059  0.25708228  0.59178086  1  -0.039209  0  -0.095374  -0.080326  0  4.031732  0
C  C307  1  0.79842447  0.83453134  0.59163378  1  -0.032394  0  -0.095249  -0.078823  0  4.028369  0
C  C308  1  0.31117355  0.67870761  0.94169243  1  -0.025977  0  -0.095585  -0.133212  0  3.966296  0
C  C309  1  0.63054302  0.76319374  0.94171145  1  -0.027129  0  -0.096032  -0.134048  0  3.970177  0
C  C310  1  0.26324308  0.81133642  0.44171397  1  -0.081075  0  -0.095952  -0.133604  0  3.969456  0
C  C311  1  0.17882096  0.13045422  0.44177180  1  -0.002825  0  -0.095907  -0.134319  0  3.966914  0
C  C312  1  0.68883177  0.32129587  0.05831399  1  -0.025433  0  -0.095701  -0.133489  0  3.966407  0
C  C313  1  0.36945765  0.23680599  0.05828491  1  -0.026895  0  -0.096024  -0.133947  0  3.970104  0
C  C314  1  0.73675847  0.18866771  0.55828926  1  -0.080868  0  -0.095955  -0.133656  0  3.969416  0
C  C315  1  0.82118173  0.86954720  0.55822601  1  -0.002337  0  -0.095912  -0.134251  0  3.966669  0
C  C316  1  0.67132303  0.65960405  0.13736006  1  -0.168872  0  -0.019822  0.116768  0  3.994913  0
C  C317  1  0.46576871  0.97802205  0.13725602  1  -0.131312  0  -0.01902  0.117646  0  3.995931  0
C  C318  1  0.47801055  0.17140629  0.63718953  1  -0.169087  0  -0.019601  0.116204  0  3.996205  0
C  C319  1  0.15956679  0.96577404  0.63738372  1  -0.170191  0  -0.019821  0.116965  0  3.995497  0
C  C320  1  0.32867418  0.34039929  0.86263760  1  -0.168863  0  -0.019851  0.116751  0  3.994932  0
C  C321  1  0.53423261  0.02197610  0.86274220  1  -0.131272  0  -0.018995  0.117747  0  3.995758  0
C  C322  1  0.52199062  0.82859499  0.36281391  1  -0.16914  0  -0.019684  0.116  0  3.996389  0
C  C323  1  0.84043362  0.03422067  0.36261418  1  -0.16984  0  -0.01977  0.116922  0  3.995638  0
C  C324  1  0.74906135  0.65157522  0.13960821  1  -0.040823  0  -0.102519  -0.129289  0  3.95482  0
C  C325  1  0.39036901  0.98844950  0.13963208  1  -0.019074  0  -0.103077  -0.130077  0  3.958098  0
C  C326  1  0.48836891  0.24914273  0.63945635  1  -0.028191  0  -0.102973  -0.12882  0  3.955275  0
C  C327  1  0.15159168  0.89030717  0.63966418  1  -0.088761  0  -0.102766  -0.128912  0  3.956953  0
C  C328  1  0.25093514  0.34842703  0.86038933  1  -0.04026  0  -0.102543  -0.12946  0  3.954785  0
C  C329  1  0.60963678  0.01155288  0.86037124  1  -0.019223  0  -0.103127  -0.130124  0  3.958149  0
C  C330  1  0.51163572  0.75085494  0.36054580  1  -0.028492  0  -0.102945  -0.128674  0  3.955202  0
C  C331  1  0.84840652  0.10969098  0.36033507  1  -0.089012  0  -0.102736  -0.128778  0  3.956773  0
C  C332  1  0.76509562  0.58044173  0.10378168  1  -0.056828  0  -0.095277  -0.074455  0  4.023198  0
C  C333  1  0.33849789  0.02374027  0.10381861  1  -0.116618  0  -0.095094  -0.074343  0  4.023533  0
C  C334  1  0.52359496  0.26513270  0.60356099  1  -0.056033  0  -0.095093  -0.07428  0  4.023277  0
C  C335  1  0.08049947  0.83839434  0.60386952  1  -0.001373  0  -0.095586  -0.074816  0  4.024633  0
C  C336  1  0.23490161  0.41956061  0.89621719  1  -0.056989  0  -0.095263  -0.074446  0  4.023211  0
C  C337  1  0.66150457  0.97626539  0.89618792  1  -0.116686  0  -0.095067  -0.074468  0  4.023669  0
C  C338  1  0.47640748  0.73486647  0.39644134  1  -0.055683  0  -0.095147  -0.074442  0  4.0233  0
C  C339  1  0.91950007  0.16160431  0.39613049  1  -0.000953  0  -0.095605  -0.074852  0  4.024653  0
C  C340  1  0.70419607  0.51698397  0.06564746  1  -0.065152  0  -0.101944  -0.103702  0  4.021374  0
C  C341  1  0.36113623  0.04883479  0.06553161  1  0.005372  0  -0.101974  -0.103361  0  4.022835  0
C  C342  1  0.54874322  0.20416428  0.56534377  1  -0.037549  0  -0.102244  -0.104797  0  4.02419  0
C  C343  1  0.01702672  0.86109669  0.56571944  1  -0.062398  0  -0.101985  -0.104059  0  4.023396  0
C  C344  1  0.29580016  0.48301795  0.93435161  1  -0.065213  0  -0.101906  -0.103661  0  4.021777  0
C  C345  1  0.63886356  0.95116792  0.93447224  1  0.005731  0  -0.101945  -0.103207  0  4.022757  0
C  C346  1  0.45125561  0.79583705  0.43465373  1  -0.037573  0  -0.102251  -0.104807  0  4.024458  0
C  C347  1  0.98297078  0.13890406  0.43428090  1  -0.062492  0  -0.101924  -0.104002  0  4.02337  0
C  C348  1  0.62711924  0.52445023  0.06434925  1  -0.059768  0  -0.08989  -0.060879  0  3.989668  0
C  C349  1  0.43687941  0.04000844  0.06415361  1  -0.047556  0  -0.090407  -0.061796  0  3.990374  0
C  C350  1  0.54000135  0.12709394  0.56407512  1  -0.043335  0  -0.089758  -0.06122  0  3.990094  0
C  C351  1  0.02441773  0.93689616  0.56441582  1  -0.065507  0  -0.090098  -0.061126  0  3.990453  0
C  C352  1  0.37287522  0.47555126  0.93564923  1  -0.05953  0  -0.090029  -0.061003  0  3.990104  0
C  C353  1  0.56312139  0.95999375  0.93584767  1  -0.04782  0  -0.090417  -0.061917  0  3.990517  0
C  C354  1  0.45999732  0.87290495  0.43592162  1  -0.043314  0  -0.08966  -0.061109  0  3.990174  0
C  C355  1  0.97558208  0.06310468  0.43558327  1  -0.063548  0  -0.090133  -0.061087  0  3.990422  0
C  C356  1  0.61062630  0.59514820  0.10001618  1  -0.060551  0  -0.097383  -0.128174  0  3.948844  0
C  C357  1  0.48907762  0.00499987  0.09982296  1  -0.043849  0  -0.097832  -0.128438  0  3.947067  0
C  C358  1  0.50500441  0.11065076  0.59979683  1  -0.026266  0  -0.0977  -0.127546  0  3.947705  0
C  C359  1  0.09508247  0.98913163  0.60006373  1  -0.021536  0  -0.097211  -0.12784  0  3.948566  0
C  C360  1  0.38937152  0.40485364  0.89998389  1  -0.060593  0  -0.097317  -0.128084  0  3.948804  0
C  C361  1  0.51092473  0.99499955  0.90017689  1  -0.043855  0  -0.097755  -0.12832  0  3.94711  0
C  C362  1  0.49499734  0.88935009  0.40020421  1  -0.025898  0  -0.097735  -0.127562  0  3.947966  0
C  C363  1  0.90491864  0.01086795  0.39993607  1  -0.021558  0  -0.097233  -0.127801  0  3.94862  0
C  C364  1  0.92517924  0.91963600  0.20315534  1  -0.145127  0  -0.019442  0.119597  0  4.020958  0
C  C365  1  0.27788118  0.78316895  0.20311507  1  -0.214227  0  -0.01978  0.119059  0  4.022614  0
C  C366  1  0.28299484  0.42512553  0.70302626  1  -0.148423  0  -0.01991  0.118437  0  4.021122  0
C  C367  1  0.41986280  0.77787672  0.70312090  1  -0.085059  0  -0.019987  0.119311  0  4.023031  0
C  C368  1  0.07481682  0.08036535  0.79684774  1  -0.144868  0  -0.019473  0.119687  0  4.020867  0
C  C369  1  0.72211998  0.21682954  0.79688539  1  -0.214225  0  -0.019804  0.118982  0  4.022621  0
C  C370  1  0.71699765  0.57487510  0.29696844  1  -0.148235  0  -0.019947  0.118384  0  4.021254  0
C  C371  1  0.58014203  0.22212706  0.29687905  1  -0.084294  0  -0.020017  0.119313  0  4.023282  0
C  C372  1  0.98375057  0.90148621  0.17840099  1  -0.045747  0  -0.105479  -0.142087  0  3.988613  0
C  C373  1  0.19454995  0.77653216  0.17830331  1  -0.026345  0  -0.105099  -0.140725  0  3.991289  0
C  C374  1  0.27627850  0.48367693  0.67823533  1  -0.016143  0  -0.10547  -0.140888  0  3.988132  0
C  C375  1  0.40174638  0.69454434  0.67830221  1  -0.04199  0  -0.105076  -0.142027  0  3.989514  0
C  C376  1  0.01624128  0.09851026  0.82160084  1  -0.046309  0  -0.105533  -0.14226  0  3.989067  0
C  C377  1  0.80545126  0.22347088  0.82170018  1  -0.026285  0  -0.105114  -0.140709  0  3.991143  0
C  C378  1  0.72371716  0.51632361  0.32175778  1  -0.015744  0  -0.105497  -0.140971  0  3.988266  0
C  C379  1  0.59825429  0.30545632  0.32169654  1  -0.041957  0  -0.105058  -0.141945  0  3.989686  0
C  C380  1  0.05428123  0.95369654  0.20271252  1  -0.026242  0  -0.100699  -0.085971  0  4.055022  0
C  C381  1  0.14823604  0.74873967  0.20260205  1  -0.01492  0  -0.10021  -0.084954  0  4.055166  0
C  C382  1  0.24845988  0.55423424  0.70261829  1  -0.066147  0  -0.100399  -0.085921  0  4.054427  0
C  C383  1  0.45388937  0.64829313  0.70264420  1  -0.078144  0  -0.099908  -0.084055  0  4.053028  0
C  C384  1  0.94571151  0.04629881  0.79728243  1  -0.026236  0  -0.10062  -0.085888  0  4.055395  0
C  C385  1  0.85176606  0.25126312  0.79740054  1  -0.015223  0  -0.100285  -0.085094  0  4.054979  0
C  C386  1  0.75153615  0.44576916  0.29737460  1  -0.065555  0  -0.100399  -0.086067  0  4.054543  0
C  C387  1  0.54611435  0.35171050  0.29735763  1  -0.078359  0  -0.099948  -0.0841  0  4.05321  0
C  C388  1  0.06702245  0.02500358  0.25159792  1  -0.073304  0  -0.106721  -0.114741  0  4.057918  0
C  C389  1  0.18433990  0.72642539  0.25155619  1  -0.044646  0  -0.107272  -0.11677  0  4.058821  0
C  C390  1  0.22629658  0.56702566  0.75163459  1  -0.054914  0  -0.106916  -0.114834  0  4.058925  0
C  C391  1  0.52510899  0.68447921  0.75162977  1  -0.070208  0  -0.10759  -0.116746  0  4.059719  0
C  C392  1  0.93297552  0.97499043  0.74839693  1  -0.073267  0  -0.106751  -0.114808  0  4.058193  0
C  C393  1  0.81566109  0.27357915  0.74844528  1  -0.044665  0  -0.107282  -0.116846  0  4.058765  0
C  C394  1  0.77370256  0.43298431  0.24836202  1  -0.055927  0  -0.106927  -0.114788  0  4.058775  0
C  C395  1  0.47489477  0.31552148  0.24837210  1  -0.070028  0  -0.107567  -0.116719  0  4.059671  0
C  C396  1  0.00866095  0.04356000  0.27607490  1  -0.052507  0  -0.096957  -0.075875  0  4.024292  0
C  C397  1  0.26717890  0.73227048  0.27604557  1  -0.07733  0  -0.096573  -0.075022  0  4.022687  0
C  C398  1  0.23230374  0.50867474  0.77611754  1  -0.043977  0  -0.096832  -0.076154  0  4.024404  0
C  C399  1  0.54364987  0.76732748  0.77614120  1  -0.067967  0  -0.096792  -0.075698  0  4.025858  0
C  C400  1  0.99134075  0.95643630  0.72392310  1  -0.052591  0  -0.097009  -0.075844  0  4.024323  0
C  C401  1  0.73282188  0.26772801  0.72395449  1  -0.077174  0  -0.096598  -0.075036  0  4.022737  0
C  C402  1  0.76769067  0.49133161  0.22387789  1  -0.044395  0  -0.096776  -0.076197  0  4.024555  0
C  C403  1  0.45634951  0.23266968  0.22386043  1  -0.068167  0  -0.096763  -0.075761  0  4.02595  0
C  C404  1  0.93835972  0.99128179  0.25230363  1  -0.031299  0  -0.10053  -0.132193  0  3.963011  0
C  C405  1  0.31378584  0.76070545  0.25228916  1  0.039688  0  -0.100779  -0.132291  0  3.962738  0
C  C406  1  0.26068667  0.43833165  0.75225446  1  -0.040929  0  -0.10067  -0.131942  0  3.963499  0
C  C407  1  0.49144304  0.81385976  0.75232867  1  0.005593  0  -0.100422  -0.131696  0  3.963741  0
C  C408  1  0.06163922  0.00871737  0.74769518  1  -0.03096  0  -0.100541  -0.132304  0  3.963027  0
C  C409  1  0.68621665  0.23929734  0.74771382  1  0.039671  0  -0.100716  -0.132152  0  3.962695  0
C  C410  1  0.73930011  0.56166770  0.24773808  1  -0.040473  0  -0.100581  -0.131718  0  3.963478  0
C  C411  1  0.50856420  0.18614102  0.24767312  1  0.005132  0  -0.100403  -0.131603  0  3.963601  0
C  C412  1  0.95971346  0.81525701  0.34209656  1  -0.142832  0  -0.023918  0.115146  0  4.042783  0
C  C413  1  0.38226911  0.02711227  0.34207648  1  -0.218978  0  -0.023682  0.115593  0  4.039065  0
C  C414  1  0.52717489  0.45961769  0.84212323  1  -0.146626  0  -0.024334  0.113778  0  4.042117  0
C  C415  1  0.31505088  0.88231251  0.84207446  1  -0.205337  0  -0.024766  0.114183  0  4.042139  0
C  C416  1  0.04029059  0.18473831  0.65790500  1  -0.142981  0  -0.023878  0.115183  0  4.042534  0
C  C417  1  0.61773266  0.97288009  0.65792279  1  -0.218865  0  -0.02361  0.115723  0  4.039277  0
C  C418  1  0.47282778  0.54037905  0.15787874  1  -0.144357  0  -0.024315  0.113875  0  4.041997  0
C  C419  1  0.68494377  0.11767260  0.15792062  1  -0.205453  0  -0.024735  0.114053  0  4.042401  0
C  C420  1  0.99978386  0.83835622  0.31128445  1  0.016605  0  -0.107177  -0.13933  0  3.972335  0
C  C421  1  0.31141615  0.97314027  0.31133442  1  -0.011224  0  -0.107489  -0.139354  0  3.969641  0
C  C422  1  0.47316151  0.49972561  0.81141986  1  0.020935  0  -0.106303  -0.136796  0  3.96971  0
C  C423  1  0.33834193  0.81151157  0.81134605  1  0.03396  0  -0.106684  -0.138323  0  3.970812  0
C  C424  1  0.00021766  0.16163766  0.68871695  1  0.016474  0  -0.107103  -0.139167  0  3.971998  0
C  C425  1  0.68858284  0.02685316  0.68866146  1  -0.011106  0  -0.107457  -0.139398  0  3.969793  0
C  C426  1  0.52684426  0.50027029  0.18857926  1  0.020889  0  -0.106405  -0.13691  0  3.969876  0
C  C427  1  0.66165403  0.18847606  0.18864736  1  0.031994  0  -0.106603  -0.138057  0  3.971045  0
C  C428  1  0.07189086  0.88886807  0.34279813  1  -0.063321  0  -0.095121  -0.068132  0  4.010759  0
C  C429  1  0.27099109  0.95410011  0.34293714  1  0.065641  0  -0.095263  -0.068902  0  4.010598  0
C  C430  1  0.45422710  0.57177626  0.84306356  1  0.006658  0  -0.09584  -0.069929  0  4.010943  0
C  C431  1  0.38889628  0.77104725  0.84294176  1  -0.028689  0  -0.095683  -0.068326  0  4.010264  0
C  C432  1  0.92810802  0.11113033  0.65719942  1  -0.063172  0  -0.095204  -0.068299  0  4.010739  0
C  C433  1  0.72900960  0.04589862  0.65706044  1  0.065167  0  -0.095134  -0.068643  0  4.010342  0
C  C434  1  0.54578798  0.42822921  0.15693357  1  0.006514  0  -0.095809  -0.07003  0  4.010947  0
C  C435  1  0.61110981  0.22894789  0.15705648  1  -0.028928  0  -0.095703  -0.068492  0  4.010798  0
C  C436  1  0.10592249  0.91592805  0.40548397  1  -0.064445  0  -0.104814  -0.104753  0  4.02521  0
C  C437  1  0.29968369  0.98983700  0.40562370  1  -0.131606  0  -0.105351  -0.104532  0  4.026132  0
C  C438  1  0.49001040  0.60568437  0.90574760  1  -0.112728  0  -0.1049  -0.10336  0  4.023935  0
C  C439  1  0.41582520  0.79977633  0.90561925  1  -0.078314  0  -0.105218  -0.105268  0  4.026443  0
C  C440  1  0.89407528  0.08407488  0.59451545  1  -0.064966  0  -0.104783  -0.104706  0  4.025295  0
C  C441  1  0.70030806  0.01016632  0.59437264  1  -0.131836  0  -0.105549  -0.104779  0  4.026076  0
C  C442  1  0.50999784  0.39431874  0.09425101  1  -0.112996  0  -0.104988  -0.103226  0  4.023873  0
C  C443  1  0.58417295  0.20021535  0.09437995  1  -0.077801  0  -0.105162  -0.105045  0  4.026496  0
C  C444  1  0.06761391  0.89153246  0.43625203  1  -0.023708  0  -0.09721  -0.062553  0  4.015314  0
C  C445  1  0.36869757  0.04507325  0.43630871  1  -0.118277  0  -0.096656  -0.06245  0  4.018638  0
C  C446  1  0.54532071  0.56738925  0.93639369  1  -0.07228  0  -0.097619  -0.065036  0  4.017403  0
C  C447  1  0.39125126  0.86874656  0.93631157  1  -0.091347  0  -0.097038  -0.062498  0  4.018166  0
C  C448  1  0.93238612  0.10846502  0.56374847  1  -0.023841  0  -0.097196  -0.062508  0  4.015381  0
C  C449  1  0.63129808  0.95492168  0.56368618  1  -0.1539  0  -0.096488  -0.062282  0  4.018432  0
C  C450  1  0.45467906  0.43260697  0.06360596  1  -0.072023  0  -0.097523  -0.064972  0  4.017358  0
C  C451  1  0.60874651  0.13124418  0.06368486  1  -0.091231  0  -0.097067  -0.062691  0  4.018263  0
C  C452  1  0.99499498  0.84151143  0.40502386  1  -0.065974  0  -0.112781  -0.159983  0  3.998667  0
C  C453  1  0.41001923  0.06383045  0.40501872  1  0.026473  0  -0.112374  -0.159966  0  3.998246  0
C  C454  1  0.56405031  0.49480622  0.90504794  1  -0.063161  0  -0.112031  -0.157388  0  3.998719  0
C  C455  1  0.34117957  0.91002119  0.90500351  1  -0.005815  0  -0.111969  -0.159555  0  3.999649  0
C  C456  1  0.00500462  0.15848614  0.59497681  1  -0.065808  0  -0.112881  -0.160104  0  3.998516  0
C  C457  1  0.58998461  0.93616351  0.59498143  1  0.062187  0  -0.112478  -0.160121  0  3.998383  0
C  C458  1  0.43596003  0.50519464  0.09495338  1  -0.064895  0  -0.112014  -0.157423  0  3.99872  0
C  C459  1  0.65881926  0.08996889  0.09499339  1  -0.005806  0  -0.111957  -0.159239  0  3.999532  0
S  S460  1  0.43643012  0.69189275  0.04461475  1  -0.370569  0  -0.181264  -0.290325  0  2.69322  0
S  S461  1  0.60829884  0.85293634  0.04466660  1  -0.367556  0  -0.181501  -0.290751  0  2.695729  0
S  S462  1  0.35295770  0.93651996  0.54470296  1  -0.362783  0  -0.181068  -0.289865  0  2.69573  0
S  S463  1  0.19181444  0.10810346  0.54463836  1  -0.367473  0  -0.181298  -0.289844  0  2.694376  0
S  S464  1  0.56357683  0.30810779  0.95538913  1  -0.370441  0  -0.181239  -0.290288  0  2.693221  0
S  S465  1  0.39169969  0.14706196  0.95533000  1  -0.367681  0  -0.181502  -0.290739  0  2.695743  0
S  S466  1  0.64704452  0.06348727  0.45529795  1  -0.362602  0  -0.181102  -0.289889  0  2.695956  0
S  S467  1  0.80818585  0.89189436  0.45536061  1  -0.367534  0  -0.181326  -0.289876  0  2.694402  0
S  S468  1  0.64999444  0.75018985  0.18256748  1  -0.353856  0  -0.239672  -0.321702  0  3.20715  0
S  S469  1  0.53222758  0.93261308  0.18247661  1  -0.352262  0  -0.23964  -0.321686  0  3.206401  0
S  S470  1  0.43263141  0.15019603  0.68245126  1  -0.348928  0  -0.239417  -0.321192  0  3.205709  0
S  S471  1  0.25016296  0.03230153  0.68256885  1  -0.347811  0  -0.2398  -0.32167  0  3.206633  0
S  S472  1  0.35000806  0.24981670  0.81743312  1  -0.353864  0  -0.239674  -0.321714  0  3.207256  0
S  S473  1  0.46777287  0.06738433  0.81752372  1  -0.352361  0  -0.239657  -0.321836  0  3.206581  0
S  S474  1  0.56737545  0.84980005  0.31755014  1  -0.349145  0  -0.239393  -0.321116  0  3.205868  0
S  S475  1  0.74983899  0.96769505  0.31743538  1  -0.347787  0  -0.239828  -0.32177  0  3.207144  0
S  S476  1  0.83872028  0.84885959  0.17184950  1  -0.354168  0  -0.227378  -0.34928  0  2.83031  0
S  S477  1  0.33313444  0.82288739  0.17197192  1  -0.352424  0  -0.227822  -0.349868  0  2.828844  0
S  S478  1  0.32273361  0.33880055  0.67179955  1  -0.349179  0  -0.22765  -0.349525  0  2.828814  0
S  S479  1  0.34903620  0.83307911  0.67190682  1  -0.357163  0  -0.227701  -0.349798  0  2.830615  0
S  S480  1  0.16127399  0.15114136  0.82815714  1  -0.354193  0  -0.227381  -0.349291  0  2.830376  0
S  S481  1  0.66686755  0.17711566  0.82803235  1  -0.352386  0  -0.227823  -0.349901  0  2.828773  0
S  S482  1  0.67726393  0.66120388  0.32819784  1  -0.349308  0  -0.227684  -0.349564  0  2.828945  0
S  S483  1  0.65096500  0.16692214  0.32809246  1  -0.357276  0  -0.227687  -0.349818  0  2.830761  0
S  S484  1  0.86650980  0.75386838  0.29837311  1  -0.357338  0  -0.221542  -0.337852  0  2.792609  0
S  S485  1  0.43171037  0.04476369  0.29832454  1  -0.350639  0  -0.221466  -0.338245  0  2.792429  0
S  S486  1  0.54468617  0.36638743  0.79831373  1  -0.355303  0  -0.221999  -0.33912  0  2.792639  0
S  S487  1  0.25361130  0.93170769  0.79831139  1  -0.351991  0  -0.221298  -0.337639  0  2.792362  0
S  S488  1  0.13349185  0.24612615  0.70162485  1  -0.357397  0  -0.221528  -0.337787  0  2.792645  0
S  S489  1  0.56828751  0.95522959  0.70167321  1  -0.350755  0  -0.221503  -0.338259  0  2.792489  0
S  S490  1  0.45531199  0.63360796  0.20168669  1  -0.355639  0  -0.22194  -0.338993  0  2.792522  0
S  S491  1  0.74638151  0.06828180  0.20168781  1  -0.351892  0  -0.22129  -0.337673  0  2.792344  0
N  N492  1  0.26624602  0.62038467  0.07950403  1  -1.240914  0  -0.327232  -0.214254  0  3.481856  0
N  N493  1  0.81335294  0.95933787  0.07959453  1  -1.2408  0  -0.327541  -0.214603  0  3.482463  0
N  N494  1  0.45928454  0.76620805  0.57951025  1  -1.238857  0  -0.327085  -0.214962  0  3.481375  0
N  N495  1  0.12008190  0.31308743  0.57941249  1  -1.221387  0  -0.326703  -0.213635  0  3.477802  0
N  N496  1  0.73375810  0.37962265  0.92049940  1  -1.241315  0  -0.327229  -0.214261  0  3.481808  0
N  N497  1  0.18663920  0.04065977  0.92040758  1  -1.240967  0  -0.327482  -0.214533  0  3.482386  0
N  N498  1  0.54071734  0.23379438  0.42048972  1  -1.238796  0  -0.327095  -0.214915  0  3.481545  0
N  N499  1  0.87991227  0.68690912  0.42058808  1  -1.221594  0  -0.326599  -0.213505  0  3.478138  0
