# generated using pymatgen
data_Zn3H32C26(NO6)2
_symmetry_space_group_name_H-M   'P 1'
_cell_length_a   14.97307961
_cell_length_b   17.44598719
_cell_length_c   18.05997115
_cell_angle_alpha   111.10517918
_cell_angle_beta   89.99991065
_cell_angle_gamma   89.99998309
_symmetry_Int_Tables_number   1
_chemical_formula_structural   Zn3H32C26(NO6)2
_chemical_formula_sum   'Zn18 H192 C156 N12 O72'
_cell_volume   4401.17461338
_cell_formula_units_Z   6
loop_
 _symmetry_equiv_pos_site_id
 _symmetry_equiv_pos_as_xyz
  1  'x, y, z'
loop_
 _atom_site_type_symbol
 _atom_site_label
 _atom_site_symmetry_multiplicity
 _atom_site_fract_x
 _atom_site_fract_y
 _atom_site_fract_z
 _atom_site_occupancy
 _atom_site_pbe_bader_charge
 _atom_site_pbe_bader_spin_density
 _atom_site_pbe_cm5_charge
 _atom_site_pbe_ddec_charge
 _atom_site_pbe_ddec_spin_density
 _atom_site_pbe_ddec_sum_bond_order
 _atom_site_pbe_magmom
Zn  Zn0  1  0.99999936  0.00000021  0.99999888  1  1.393617  0  0.669856  1.052724  0  2.266512  0
Zn  Zn1  1  0.49999879  0.50000057  0.50000139  1  1.39356  0  0.669862  1.052729  0  2.266514  0
Zn  Zn2  1  0.49573014  0.50069447  0.83468897  1  1.397149  0  0.669062  1.049931  0  2.25077  0
Zn  Zn3  1  0.99572956  0.99930669  0.66531168  1  1.397196  0  0.669055  1.049895  0  2.25083  0
Zn  Zn4  1  0.50427077  0.49930607  0.16531249  1  1.397194  0  0.66904  1.049855  0  2.250869  0
Zn  Zn5  1  0.00426868  0.00069576  0.33468715  1  1.397255  0  0.669059  1.049911  0  2.25084  0
Zn  Zn6  1  0.09869163  0.00252197  0.16627800  1  1.298985  0  0.670421  0.968391  0  2.265148  0
Zn  Zn7  1  0.59869273  0.49747918  0.33372126  1  1.29899  0  0.670386  0.968381  0  2.265174  0
Zn  Zn8  1  0.90130794  0.99748050  0.83372028  1  1.299109  0  0.670414  0.968349  0  2.265154  0
Zn  Zn9  1  0.40130550  0.50252074  0.66628053  1  1.298994  0  0.670401  0.968363  0  2.265188  0
Zn  Zn10  1  0.59893254  0.49750022  0.99487743  1  1.299732  0  0.670848  0.9748  0  2.227811  0
Zn  Zn11  1  0.09893175  0.00249749  0.50512159  1  1.299754  0  0.670839  0.974803  0  2.227793  0
Zn  Zn12  1  0.40106703  0.50249725  0.00512291  1  1.299752  0  0.670841  0.974804  0  2.227844  0
Zn  Zn13  1  0.90106649  0.99750129  0.49487535  1  1.299748  0  0.670861  0.97483  0  2.227816  0
Zn  Zn14  1  0.90389321  0.99740726  0.16680160  1  1.299386  0  0.671522  0.968059  0  2.274039  0
Zn  Zn15  1  0.40389580  0.50259619  0.33319845  1  1.299245  0  0.671531  0.968139  0  2.273991  0
Zn  Zn16  1  0.09610436  0.00259519  0.83319723  1  1.299277  0  0.671534  0.9681  0  2.27399  0
Zn  Zn17  1  0.59610378  0.49740619  0.66680423  1  1.29935  0  0.671552  0.968159  0  2.273945  0
H  H18  1  0.49225006  0.38885819  0.68727510  1  0.672753  0  0.284416  0.383754  0  0.957963  0
H  H19  1  0.99225134  0.11114226  0.81272497  1  0.672746  0  0.284424  0.38377  0  0.957963  0
H  H20  1  0.50775152  0.61114236  0.31272636  1  0.673388  0  0.284439  0.383798  0  0.957931  0
H  H21  1  0.00775091  0.88886079  0.18727518  1  0.673438  0  0.284424  0.383806  0  0.957895  0
H  H22  1  0.50084249  0.61257077  0.98232566  1  0.625776  0  0.283824  0.386125  0  0.95366  0
H  H23  1  0.00084086  0.88742781  0.51767082  1  0.625743  0  0.283918  0.38628  0  0.953452  0
H  H24  1  0.49915775  0.38742729  0.01767600  1  0.62582  0  0.283893  0.386247  0  0.9535  0
H  H25  1  0.99915671  0.11257281  0.48232735  1  0.625749  0  0.283888  0.386232  0  0.953503  0
H  H26  1  0.99936273  0.11175857  0.14592123  1  0.627652  0  0.283635  0.383899  0  0.958514  0
H  H27  1  0.49936046  0.38824468  0.35407939  1  0.627682  0  0.283541  0.383724  0  0.958698  0
H  H28  1  0.00063752  0.88824449  0.85407837  1  0.627686  0  0.283592  0.383757  0  0.958633  0
H  H29  1  0.50063644  0.61175650  0.64592175  1  0.627671  0  0.283662  0.383885  0  0.958537  0
H  H30  1  0.83733598  0.15980207  0.79950758  1  0.142039  0  0.106443  0.116054  0  1.035286  0
H  H31  1  0.33734004  0.34019428  0.70048787  1  0.142018  0  0.106471  0.116099  0  1.03532  0
H  H32  1  0.16266559  0.84019550  0.20048836  1  0.142044  0  0.10646  0.11607  0  1.035336  0
H  H33  1  0.66266755  0.65980264  0.29950950  1  0.142065  0  0.10646  0.11608  0  1.035283  0
H  H34  1  0.75598655  0.28231944  0.89013544  1  0.114439  0  0.106252  0.11062  0  1.018246  0
H  H35  1  0.25599215  0.21767440  0.60986474  1  0.114383  0  0.106238  0.110575  0  1.018325  0
H  H36  1  0.24401570  0.71767557  0.10986401  1  0.114416  0  0.106256  0.110589  0  1.018256  0
H  H37  1  0.74401744  0.78231940  0.39013371  1  0.114299  0  0.106242  0.110601  0  1.018302  0
H  H38  1  0.59097792  0.28398639  0.69615974  1  0.139304  0  0.102689  0.111909  0  1.05547  0
H  H39  1  0.09097849  0.21601997  0.80384023  1  0.139323  0  0.102662  0.111902  0  1.055522  0
H  H40  1  0.40902099  0.71601596  0.30384404  1  0.139282  0  0.102672  0.111935  0  1.055476  0
H  H41  1  0.90902176  0.78398315  0.19615608  1  0.139277  0  0.102639  0.111857  0  1.055511  0
H  H42  1  0.67807568  0.16582486  0.60333167  1  0.060693  0  0.101906  0.103448  0  1.016858  0
H  H43  1  0.17807669  0.33418086  0.89666574  1  0.060702  0  0.101896  0.103422  0  1.016724  0
H  H44  1  0.32192189  0.83417883  0.39666707  1  0.060646  0  0.101912  0.103469  0  1.01687  0
H  H45  1  0.82192355  0.66582100  0.10333177  1  0.060715  0  0.101926  0.103523  0  1.016819  0
H  H46  1  0.10353419  0.78597725  0.87303179  1  0.124232  0  0.103031  0.110645  0  1.053923  0
H  H47  1  0.60353511  0.71402362  0.62696926  1  0.124272  0  0.10301  0.110599  0  1.053923  0
H  H48  1  0.89646539  0.21402204  0.12697032  1  0.124187  0  0.103014  0.110627  0  1.053906  0
H  H49  1  0.39646446  0.28597693  0.37303220  1  0.124203  0  0.103028  0.110623  0  1.053873  0
H  H50  1  0.19869508  0.67391572  0.78003054  1  0.081688  0  0.103438  0.106312  0  1.013733  0
H  H51  1  0.69869579  0.82608633  0.71996972  1  0.081681  0  0.103445  0.10632  0  1.013655  0
H  H52  1  0.80130583  0.32608481  0.21997202  1  0.081639  0  0.103442  0.106305  0  1.013716  0
H  H53  1  0.30130446  0.17391425  0.28003009  1  0.081691  0  0.103451  0.106349  0  1.013643  0
H  H54  1  0.39814485  0.71870239  0.96220915  1  0.15425  0  0.104738  0.117419  0  1.055334  0
H  H55  1  0.89814525  0.78129949  0.53779079  1  0.154197  0  0.104728  0.117394  0  1.055432  0
H  H56  1  0.60185539  0.28129939  0.03779275  1  0.154282  0  0.104732  0.117465  0  1.055294  0
H  H57  1  0.10185299  0.21870047  0.46220880  1  0.154207  0  0.104747  0.117448  0  1.055337  0
H  H58  1  0.30257883  0.83011407  0.05468248  1  0.129589  0  0.104636  0.108271  0  1.022476  0
H  H59  1  0.80257918  0.66989134  0.44531675  1  0.129446  0  0.104656  0.108315  0  1.02246  0
H  H60  1  0.69742208  0.16988957  0.94531900  1  0.129625  0  0.104656  0.108324  0  1.022472  0
H  H61  1  0.19741906  0.33010925  0.55468252  1  0.129585  0  0.104653  0.108337  0  1.02238  0
H  H62  1  0.67366466  0.65321945  0.97559787  1  0.116463  0  0.103687  0.10913  0  1.042845  0
H  H63  1  0.17366036  0.84677897  0.52439943  1  0.115903  0  0.103726  0.109134  0  1.042916  0
H  H64  1  0.32633759  0.34677866  0.02440159  1  0.115966  0  0.103675  0.109101  0  1.042875  0
H  H65  1  0.82633989  0.15322418  0.47559578  1  0.116188  0  0.103695  0.109108  0  1.042884  0
H  H66  1  0.74467693  0.78332593  0.06469323  1  0.053258  0  0.101772  0.10305  0  1.03389  0
H  H67  1  0.24467191  0.71667151  0.43530483  1  0.053196  0  0.101788  0.103014  0  1.033859  0
H  H68  1  0.25532532  0.21667153  0.93530766  1  0.053276  0  0.101799  0.103076  0  1.033875  0
H  H69  1  0.75532834  0.28332973  0.56469300  1  0.053246  0  0.10179  0.103065  0  1.033858  0
H  H70  1  0.82582581  0.83889881  0.86115193  1  0.11747  0  0.106616  0.114129  0  1.031155  0
H  H71  1  0.32582404  0.66110313  0.63884812  1  0.117492  0  0.106619  0.114154  0  1.03111  0
H  H72  1  0.17416976  0.16110419  0.13885043  1  0.117594  0  0.106583  0.114089  0  1.031157  0
H  H73  1  0.67416552  0.33890048  0.36115501  1  0.117594  0  0.106594  0.114154  0  1.031102  0
H  H74  1  0.75331912  0.70944819  0.77211061  1  0.080564  0  0.104954  0.108538  0  1.027927  0
H  H75  1  0.25331914  0.79055445  0.72788868  1  0.080583  0  0.104952  0.108502  0  1.027944  0
H  H76  1  0.24667778  0.29055481  0.22789175  1  0.080474  0  0.104946  0.108571  0  1.027829  0
H  H77  1  0.74667309  0.20945170  0.27211149  1  0.080521  0  0.104907  0.108488  0  1.027995  0
H  H78  1  0.96347297  0.79408355  0.02981729  1  0.111  0  0.11726  0.044944  0  1.037097  0
H  H79  1  0.46347122  0.70591477  0.47018912  1  0.111174  0  0.117223  0.044865  0  1.037149  0
H  H80  1  0.03653195  0.20591635  0.97018559  1  0.111274  0  0.117241  0.044934  0  1.037088  0
H  H81  1  0.53652769  0.29408267  0.52981287  1  0.11127  0  0.117253  0.044903  0  1.037158  0
H  H82  1  0.09310623  0.65575926  0.08931983  1  0.103007  0  0.112141  0.089298  0  1.004746  0
H  H83  1  0.59310190  0.84423641  0.41068055  1  0.103029  0  0.112161  0.089323  0  1.004761  0
H  H84  1  0.90689468  0.34423760  0.91068029  1  0.103058  0  0.112153  0.089337  0  1.004702  0
H  H85  1  0.40689500  0.15576044  0.58932012  1  0.103012  0  0.11215  0.0893  0  1.004756  0
H  H86  1  0.02145971  0.57433943  0.03452759  1  0.020102  0  0.097442  0.06249  0  0.9969  0
H  H87  1  0.52145525  0.92565636  0.46547015  1  0.020144  0  0.097422  0.062458  0  0.996966  0
H  H88  1  0.97853986  0.42565869  0.96547132  1  0.020194  0  0.097445  0.062512  0  0.996915  0
H  H89  1  0.47854099  0.07433930  0.53452842  1  0.020148  0  0.09743  0.062472  0  0.996901  0
H  H90  1  0.12126802  0.54077086  0.91446363  1  0.009852  0  0.084392  0.112238  0  1.018095  0
H  H91  1  0.62126559  0.95923070  0.58553323  1  0.009884  0  0.084397  0.112273  0  1.018084  0
H  H92  1  0.87873156  0.45922973  0.08553563  1  0.009877  0  0.084389  0.112218  0  1.018013  0
H  H93  1  0.37873131  0.04077053  0.41446516  1  0.009875  0  0.08438  0.11221  0  1.018069  0
H  H94  1  0.18326053  0.54161335  0.99849050  1  0.063172  0  0.092473  0.137645  0  1.010382  0
H  H95  1  0.68325492  0.95838572  0.50150482  1  0.063202  0  0.09249  0.137652  0  1.010428  0
H  H96  1  0.81673971  0.45838418  0.00150710  1  0.063158  0  0.092479  0.137651  0  1.010361  0
H  H97  1  0.31674064  0.04161431  0.49849202  1  0.063177  0  0.092489  0.137675  0  1.010374  0
H  H98  1  0.19067185  0.62602408  0.96624231  1  0.049853  0  0.089395  0.127117  0  1.024675  0
H  H99  1  0.69066955  0.87397738  0.53375664  1  0.049895  0  0.089397  0.127153  0  1.024647  0
H  H100  1  0.80932906  0.37397464  0.03375793  1  0.04979  0  0.089376  0.127091  0  1.024657  0
H  H101  1  0.30932936  0.12602382  0.46624285  1  0.049874  0  0.089392  0.127134  0  1.024645  0
H  H102  1  0.95104652  0.70764957  0.91704118  1  0.070828  0  0.110998  0.087702  0  0.999969  0
H  H103  1  0.45104480  0.79235340  0.58296407  1  0.070643  0  0.110983  0.087672  0  0.999986  0
H  H104  1  0.04895439  0.29235098  0.08296028  1  0.070645  0  0.110993  0.087699  0  0.999971  0
H  H105  1  0.54895144  0.20764653  0.41703716  1  0.070644  0  0.111011  0.087735  0  0.999953  0
H  H106  1  0.03879669  0.63657617  0.88200552  1  0.050093  0  0.102561  0.075949  0  0.989691  0
H  H107  1  0.53879290  0.86342658  0.61799742  1  0.05007  0  0.102533  0.0759  0  0.989749  0
H  H108  1  0.96120623  0.36342439  0.11799540  1  0.050051  0  0.102539  0.075909  0  0.989789  0
H  H109  1  0.46120267  0.13657210  0.38200447  1  0.050049  0  0.102543  0.075939  0  0.989705  0
H  H110  1  0.94789557  0.52648442  0.90599381  1  0.009533  0  0.0847  0.108301  0  1.033169  0
H  H111  1  0.44789176  0.97351678  0.59400693  1  0.00954  0  0.084706  0.108292  0  1.03319  0
H  H112  1  0.05210868  0.47351614  0.09400710  1  0.009565  0  0.084712  0.108324  0  1.033212  0
H  H113  1  0.55210714  0.02648197  0.40599166  1  0.009547  0  0.08471  0.1083  0  1.033169  0
H  H114  1  0.88719334  0.57013499  0.84669008  1  0.020872  0  0.090823  0.124602  0  1.022817  0
H  H115  1  0.38718944  0.92986748  0.65331175  1  0.021084  0  0.090825  0.124578  0  1.022751  0
H  H116  1  0.11281024  0.42986371  0.15331071  1  0.021122  0  0.090815  0.124562  0  1.022807  0
H  H117  1  0.61280746  0.07013373  0.34668774  1  0.021105  0  0.090828  0.124583  0  1.022799  0
H  H118  1  0.86088403  0.59863248  0.94860052  1  0.060692  0  0.090362  0.128142  0  1.01252  0
H  H119  1  0.36088099  0.90136754  0.55140100  1  0.060649  0  0.090381  0.128159  0  1.012494  0
H  H120  1  0.13911889  0.40136622  0.05140027  1  0.060636  0  0.090397  0.128191  0  1.012532  0
H  H121  1  0.63911658  0.09863243  0.44859858  1  0.060706  0  0.09038  0.128145  0  1.012523  0
H  H122  1  0.92182242  0.20566630  0.63404535  1  0.086608  0  0.116925  0.04259  0  1.032685  0
H  H123  1  0.42181683  0.29433331  0.86596835  1  0.087037  0  0.116941  0.042548  0  1.032761  0
H  H124  1  0.07817581  0.79432884  0.36594805  1  0.086863  0  0.116923  0.042588  0  1.032641  0
H  H125  1  0.57817940  0.70566408  0.13403584  1  0.086837  0  0.116949  0.042588  0  1.032663  0
H  H126  1  0.04600128  0.35171726  0.58186644  1  0.087948  0  0.1111  0.084556  0  1.015532  0
H  H127  1  0.54600636  0.14828102  0.91813728  1  0.087843  0  0.111107  0.084582  0  1.015397  0
H  H128  1  0.95399896  0.64827902  0.41813180  1  0.08802  0  0.111117  0.084584  0  1.015445  0
H  H129  1  0.45399789  0.85171834  0.08186153  1  0.087846  0  0.111106  0.084587  0  1.015398  0
H  H130  1  0.96678642  0.42898828  0.62980045  1  0.031457  0  0.099844  0.068475  0  0.994472  0
H  H131  1  0.46678958  0.07101026  0.87020283  1  0.031421  0  0.099873  0.068527  0  0.994487  0
H  H132  1  0.03321583  0.57100862  0.37019746  1  0.031379  0  0.099816  0.068421  0  0.994542  0
H  H133  1  0.53321467  0.92898784  0.12979719  1  0.031409  0  0.099836  0.068505  0  0.994495  0
H  H134  1  0.12931801  0.38721311  0.71387389  1  0.064715  0  0.088671  0.126519  0  1.043385  0
H  H135  1  0.62931734  0.11278760  0.78612841  1  0.064728  0  0.088688  0.126536  0  1.043412  0
H  H136  1  0.87068290  0.61278070  0.28612401  1  0.064846  0  0.088699  0.126616  0  1.043256  0
H  H137  1  0.37068424  0.88721238  0.21387008  1  0.064759  0  0.088696  0.126553  0  1.04336  0
H  H138  1  0.12593062  0.46950064  0.67845931  1  0.05153  0  0.095509  0.137175  0  0.999467  0
H  H139  1  0.62593191  0.03049890  0.82153979  1  0.051523  0  0.095507  0.137165  0  0.999478  0
H  H140  1  0.87407096  0.53049376  0.32153991  1  0.051557  0  0.095524  0.137185  0  0.999595  0
H  H141  1  0.37407100  0.96950112  0.17845705  1  0.051511  0  0.095514  0.137148  0  0.999473  0
H  H142  1  0.05434541  0.47051360  0.75706683  1  0.014911  0  0.083897  0.108947  0  1.029131  0
H  H143  1  0.55434551  0.02948781  0.74293471  1  0.01495  0  0.083868  0.108906  0  1.029253  0
H  H144  1  0.94565550  0.52947958  0.24293140  1  0.014894  0  0.083897  0.108978  0  1.029097  0
H  H145  1  0.44565673  0.97051280  0.25706345  1  0.014721  0  0.083859  0.108877  0  1.029135  0
H  H146  1  0.96447547  0.38034984  0.78416291  1  0.040246  0  0.101633  0.072452  0  0.99163  0
H  H147  1  0.46447957  0.11965667  0.71584439  1  0.040315  0  0.101641  0.072504  0  0.991555  0
H  H148  1  0.03552210  0.61964399  0.21583389  1  0.040152  0  0.101567  0.072347  0  0.991613  0
H  H149  1  0.53551933  0.88034202  0.28415695  1  0.040385  0  0.101618  0.072473  0  0.991568  0
H  H150  1  0.89500751  0.29364474  0.74535873  1  0.051828  0  0.108356  0.082528  0  1.014401  0
H  H151  1  0.39501018  0.20635932  0.75465053  1  0.052094  0  0.108322  0.082522  0  1.014338  0
H  H152  1  0.10498872  0.70634915  0.25463533  1  0.051889  0  0.108316  0.082376  0  1.014435  0
H  H153  1  0.60499207  0.79364000  0.24535048  1  0.052066  0  0.108318  0.082528  0  1.014355  0
H  H154  1  0.78824661  0.37418429  0.69276430  1  0.049847  0  0.087886  0.127139  0  1.028975  0
H  H155  1  0.28824921  0.12581685  0.80724072  1  0.049769  0  0.087884  0.127128  0  1.028965  0
H  H156  1  0.21175296  0.62581390  0.30723132  1  0.049921  0  0.087881  0.127161  0  1.028902  0
H  H157  1  0.71174903  0.87418678  0.19276131  1  0.049658  0  0.08792  0.127172  0  1.028959  0
H  H158  1  0.80396939  0.42305297  0.79671394  1  0.059123  0  0.093343  0.138723  0  0.995493  0
H  H159  1  0.30397353  0.07695065  0.70329029  1  0.059237  0  0.093343  0.138703  0  0.995409  0
H  H160  1  0.19602952  0.57694337  0.20328156  1  0.059068  0  0.093372  0.138736  0  0.995426  0
H  H161  1  0.69602471  0.92305113  0.29671106  1  0.059218  0  0.093353  0.13871  0  0.995412  0
H  H162  1  0.85809191  0.46181304  0.73018648  1  0.007939  0  0.083909  0.109377  0  1.038387  0
H  H163  1  0.35809594  0.03818931  0.76981667  1  0.007825  0  0.083934  0.109412  0  1.038421  0
H  H164  1  0.14190900  0.53818327  0.26981011  1  0.007899  0  0.08391  0.109422  0  1.038315  0
H  H165  1  0.64190029  0.96181245  0.23018579  1  0.00781  0  0.083942  0.109398  0  1.038448  0
H  H166  1  0.94513992  0.20635127  0.29653001  1  0.098151  0  0.116894  0.042545  0  1.043047  0
H  H167  1  0.44513864  0.29364962  0.20346705  1  0.098057  0  0.116935  0.042599  0  1.043024  0
H  H168  1  0.05486232  0.79364995  0.70346892  1  0.098032  0  0.11691  0.042522  0  1.043068  0
H  H169  1  0.55486026  0.70635035  0.79653199  1  0.098104  0  0.116932  0.042605  0  1.043012  0
H  H170  1  0.01935371  0.42699354  0.30017544  1  0.02979  0  0.099104  0.066431  0  1.003593  0
H  H171  1  0.51934921  0.07301069  0.19982781  1  0.030122  0  0.099091  0.0664  0  1.003621  0
H  H172  1  0.98064787  0.57301010  0.69982604  1  0.029849  0  0.099123  0.066471  0  1.003564  0
H  H173  1  0.48064970  0.92699291  0.80017587  1  0.030015  0  0.09911  0.066424  0  1.003581  0
H  H174  1  0.08381213  0.34146122  0.24149708  1  0.126781  0  0.109799  0.086364  0  1.015309  0
H  H175  1  0.58381016  0.15854236  0.25850475  1  0.126759  0  0.109811  0.08642  0  1.015234  0
H  H176  1  0.91618945  0.65854305  0.75850407  1  0.126764  0  0.109783  0.086358  0  1.015285  0
H  H177  1  0.41619075  0.84146064  0.74149761  1  0.126818  0  0.109795  0.086355  0  1.0153  0
H  H178  1  0.11947261  0.44522419  0.41823852  1  0.010349  0  0.083941  0.109043  0  1.042064  0
H  H179  1  0.61946900  0.05477195  0.08176276  1  0.010338  0  0.083962  0.109083  0  1.041981  0
H  H180  1  0.88052830  0.55477699  0.58176261  1  0.010383  0  0.083937  0.109024  0  1.0421  0
H  H181  1  0.38052923  0.94522550  0.91823868  1  0.010303  0  0.083944  0.109061  0  1.042047  0
H  H182  1  0.18314029  0.44596519  0.33555540  1  0.056285  0  0.089839  0.130557  0  1.024695  0
H  H183  1  0.68313519  0.05403085  0.16444798  1  0.056211  0  0.08984  0.130649  0  1.024593  0
H  H184  1  0.81686263  0.55403473  0.66444638  1  0.056282  0  0.089782  0.13052  0  1.024643  0
H  H185  1  0.31686305  0.94596656  0.83555566  1  0.056286  0  0.089789  0.130523  0  1.024645  0
H  H186  1  0.18146928  0.35708837  0.36104465  1  0.069179  0  0.087667  0.124557  0  1.040766  0
H  H187  1  0.68147021  0.14290710  0.13895631  1  0.0693  0  0.087688  0.124588  0  1.040736  0
H  H188  1  0.81852896  0.64291156  0.63895658  1  0.069331  0  0.087664  0.124562  0  1.040769  0
H  H189  1  0.31853204  0.85709097  0.86104536  1  0.069241  0  0.087679  0.124562  0  1.040788  0
H  H190  1  0.93201491  0.29263798  0.41020051  1  0.079314  0  0.109685  0.085696  0  1.003562  0
H  H191  1  0.43201989  0.20736355  0.08979625  1  0.079335  0  0.10973  0.085713  0  1.003628  0
H  H192  1  0.06798266  0.70736326  0.58979733  1  0.079304  0  0.109691  0.085683  0  1.003613  0
H  H193  1  0.56798436  0.79263645  0.91020169  1  0.079266  0  0.109693  0.085704  0  1.00359  0
H  H194  1  0.02315908  0.35912826  0.44757297  1  0.028262  0  0.101962  0.073646  0  0.997384  0
H  H195  1  0.52316217  0.14086927  0.05242507  1  0.028194  0  0.101962  0.073641  0  0.997328  0
H  H196  1  0.97683983  0.64087110  0.55242585  1  0.028234  0  0.101933  0.073602  0  0.99742  0
H  H197  1  0.47684074  0.85912945  0.94757517  1  0.028238  0  0.101945  0.073616  0  0.997373  0
H  H198  1  0.94140906  0.47499926  0.42587255  1  0.027625  0  0.086232  0.113794  0  1.026664  0
H  H199  1  0.44140545  0.02500401  0.07412981  1  0.027699  0  0.08623  0.113791  0  1.026581  0
H  H200  1  0.05859386  0.52500436  0.57413003  1  0.027642  0  0.086226  0.113793  0  1.026583  0
H  H201  1  0.55859546  0.97499593  0.92587143  1  0.027731  0  0.086243  0.11383  0  1.026623  0
H  H202  1  0.87444416  0.43176211  0.48192716  1  0.033697  0  0.091646  0.128559  0  1.011032  0
H  H203  1  0.37444131  0.06824123  0.01807421  1  0.033627  0  0.091636  0.12855  0  1.011041  0
H  H204  1  0.12555875  0.56824029  0.51807442  1  0.033629  0  0.091633  0.128552  0  1.011002  0
H  H205  1  0.62555893  0.93175995  0.98192637  1  0.033615  0  0.091614  0.128535  0  1.011064  0
H  H206  1  0.85149908  0.40768467  0.37995213  1  0.058574  0  0.093075  0.132053  0  1.006906  0
H  H207  1  0.35149870  0.09232236  0.12005117  1  0.058447  0  0.093078  0.132001  0  1.006959  0
H  H208  1  0.14850116  0.59232140  0.62005135  1  0.058435  0  0.093076  0.132017  0  1.00699  0
H  H209  1  0.64850221  0.90768064  0.87995119  1  0.05845  0  0.093115  0.132067  0  1.007  0
C  C210  1  0.81893312  0.08678296  0.64158540  1  1.552878  0  0.218553  0.593575  0  4.178912  0
C  C211  1  0.31893484  0.41321767  0.85841329  1  1.552509  0  0.218606  0.593769  0  4.17873  0
C  C212  1  0.18106379  0.91321581  0.35841209  1  1.552873  0  0.218637  0.593793  0  4.178786  0
C  C213  1  0.68106540  0.58678109  0.14158475  1  1.552523  0  0.218493  0.593498  0  4.178879  0
C  C214  1  0.76327450  0.15562848  0.69556761  1  -0.089736  0  -0.016562  -0.042991  0  3.979646  0
C  C215  1  0.26327435  0.34437283  0.80443030  1  -0.089827  0  -0.016485  -0.042983  0  3.97975  0
C  C216  1  0.23672574  0.84437209  0.30443275  1  -0.08973  0  -0.016565  -0.042999  0  3.979496  0
C  C217  1  0.73672790  0.65562837  0.19556919  1  -0.089724  0  -0.016537  -0.042998  0  3.979664  0
C  C218  1  0.78392548  0.18739109  0.77681821  1  0.012026  0  -0.080855  -0.094095  0  3.959873  0
C  C219  1  0.28392883  0.31260711  0.72317964  1  0.011974  0  -0.080908  -0.094188  0  3.960058  0
C  C220  1  0.21607677  0.81260828  0.22318005  1  0.012041  0  -0.080944  -0.094256  0  3.959875  0
C  C221  1  0.71607742  0.68738979  0.27681882  1  0.012016  0  -0.080934  -0.094149  0  3.960012  0
C  C222  1  0.73859673  0.25577229  0.82749675  1  -0.091987  0  -0.080598  -0.094367  0  3.954254  0
C  C223  1  0.23860021  0.24422408  0.67250160  1  -0.091713  0  -0.080544  -0.094315  0  3.954255  0
C  C224  1  0.26140418  0.74422395  0.17250369  1  -0.092183  0  -0.08049  -0.094188  0  3.954139  0
C  C225  1  0.76140471  0.75577282  0.32749632  1  -0.091812  0  -0.080548  -0.094365  0  3.954318  0
C  C226  1  0.66953948  0.29126751  0.79832809  1  -0.041944  0  -0.011274  -0.027726  0  3.955925  0
C  C227  1  0.16954158  0.20873137  0.70167127  1  -0.041996  0  -0.011255  -0.027562  0  3.955676  0
C  C228  1  0.33046209  0.70873118  0.20167325  1  -0.041654  0  -0.01126  -0.027724  0  3.955897  0
C  C229  1  0.83046200  0.79126618  0.29832522  1  -0.041951  0  -0.011169  -0.027518  0  3.955799  0
C  C230  1  0.62294246  0.36677792  0.85202168  1  1.5473  0  0.217967  0.591865  0  4.173768  0
C  C231  1  0.12294335  0.13322220  0.64797984  1  1.547308  0  0.217933  0.591742  0  4.173923  0
C  C232  1  0.37705912  0.63322075  0.14798075  1  1.547372  0  0.217952  0.591891  0  4.173591  0
C  C233  1  0.87705957  0.86677842  0.35201832  1  1.546942  0  0.217943  0.591764  0  4.17361  0
C  C234  1  0.64595324  0.25717860  0.71789649  1  -0.053048  0  -0.084568  -0.094753  0  3.95253  0
C  C235  1  0.14595250  0.24282338  0.78210347  1  -0.053219  0  -0.084585  -0.094843  0  3.952412  0
C  C236  1  0.35404767  0.74282193  0.28210552  1  -0.052979  0  -0.084607  -0.094863  0  3.95257  0
C  C237  1  0.85404841  0.75717663  0.21789391  1  -0.053004  0  -0.084613  -0.094815  0  3.952624  0
C  C238  1  0.69376711  0.19082960  0.66649672  1  -0.013543  0  -0.086507  -0.102636  0  3.977043  0
C  C239  1  0.19376825  0.30917241  0.83349987  1  -0.013437  0  -0.086519  -0.102604  0  3.97705  0
C  C240  1  0.30623314  0.80917099  0.33350254  1  -0.013606  0  -0.086468  -0.102596  0  3.977104  0
C  C241  1  0.80623466  0.69082763  0.16649587  1  -0.013669  0  -0.086509  -0.102693  0  3.977154  0
C  C242  1  0.14220971  0.88188612  0.02372407  1  1.554033  0  0.216874  0.59189  0  4.175199  0
C  C243  1  0.64221202  0.61811691  0.47627726  1  1.553946  0  0.216844  0.591908  0  4.175153  0
C  C244  1  0.85778987  0.11811688  0.97627828  1  1.553963  0  0.216872  0.591869  0  4.17512  0
C  C245  1  0.35778756  0.38188241  0.52372320  1  1.553907  0  0.216866  0.592001  0  4.175115  0
C  C246  1  0.19836495  0.81474751  0.96887104  1  -0.068325  0  -0.015301  -0.03196  0  3.966763  0
C  C247  1  0.69836540  0.68525457  0.53112757  1  -0.068437  0  -0.015315  -0.032031  0  3.96693  0
C  C248  1  0.80163596  0.18525429  0.03112977  1  -0.068352  0  -0.015294  -0.031912  0  3.96683  0
C  C249  1  0.30163485  0.31474597  0.46887389  1  -0.068389  0  -0.015349  -0.032031  0  3.966945  0
C  C250  1  0.16811541  0.77077145  0.89175710  1  -0.002562  0  -0.084737  -0.098878  0  3.96898  0
C  C251  1  0.66811770  0.72923064  0.60824265  1  -0.002519  0  -0.084738  -0.098853  0  3.968912  0
C  C252  1  0.83188417  0.22922848  0.10824414  1  -0.002559  0  -0.084734  -0.098869  0  3.968918  0
C  C253  1  0.33188188  0.27076930  0.39175858  1  -0.002427  0  -0.084746  -0.09887  0  3.96891  0
C  C254  1  0.22079334  0.70877466  0.84028018  1  -0.029635  0  -0.084388  -0.100259  0  3.976928  0
C  C255  1  0.72079551  0.79122798  0.65972027  1  -0.029694  0  -0.084376  -0.100213  0  3.976828  0
C  C256  1  0.77920623  0.29122588  0.15972183  1  -0.029639  0  -0.084407  -0.10029  0  3.976875  0
C  C257  1  0.27920473  0.20877320  0.34028032  1  -0.029682  0  -0.084367  -0.10028  0  3.976796  0
C  C258  1  0.30411753  0.69032378  0.86534183  1  -0.051944  0  -0.014995  -0.033294  0  3.967148  0
C  C259  1  0.80411974  0.80967881  0.63465793  1  -0.052066  0  -0.014996  -0.033265  0  3.967224  0
C  C260  1  0.69588338  0.30967800  0.13466008  1  -0.052015  0  -0.014947  -0.033191  0  3.967188  0
C  C261  1  0.19588050  0.19032053  0.36534198  1  -0.05207  0  -0.014957  -0.033112  0  3.967149  0
C  C262  1  0.36116798  0.62441340  0.80972624  1  1.571908  0  0.2166  0.593582  0  4.174075  0
C  C263  1  0.86116739  0.87558975  0.69027366  1  1.572038  0  0.216609  0.593513  0  4.174267  0
C  C264  1  0.63883426  0.37558902  0.19027425  1  1.57167  0  0.216589  0.593569  0  4.173842  0
C  C265  1  0.13883218  0.12441082  0.30972670  1  1.571958  0  0.216544  0.593396  0  4.174346  0
C  C266  1  0.33390758  0.73373467  0.94273614  1  -0.099403  0  -0.084235  -0.102386  0  3.964291  0
C  C267  1  0.83390995  0.76626913  0.55726348  1  -0.099461  0  -0.084227  -0.102378  0  3.964196  0
C  C268  1  0.66609266  0.26626955  0.05726722  1  -0.099418  0  -0.084197  -0.102466  0  3.964401  0
C  C269  1  0.16608962  0.23373084  0.44273611  1  -0.099482  0  -0.084244  -0.102528  0  3.964319  0
C  C270  1  0.28110676  0.79569190  0.99418037  1  -0.064398  0  -0.082703  -0.099272  0  3.97121  0
C  C271  1  0.78110658  0.70431010  0.50581865  1  -0.064125  0  -0.082714  -0.099295  0  3.971205  0
C  C272  1  0.71889348  0.20430866  0.00582054  1  -0.064316  0  -0.082751  -0.099343  0  3.97128  0
C  C273  1  0.21889300  0.29568988  0.49418039  1  -0.064336  0  -0.082723  -0.099298  0  3.971179  0
C  C274  1  0.66517358  0.59680159  0.81514788  1  1.547092  0  0.216101  0.587643  0  4.188975  0
C  C275  1  0.16517229  0.90319990  0.68485110  1  1.547146  0  0.216125  0.587547  0  4.188922  0
C  C276  1  0.33482733  0.40319775  0.18485203  1  1.547024  0  0.216064  0.5875  0  4.189067  0
C  C277  1  0.83482461  0.09680508  0.31514533  1  1.547029  0  0.216004  0.587414  0  4.189208  0
C  C278  1  0.70985170  0.67340364  0.86847703  1  -0.086916  0  -0.017401  -0.043739  0  3.978693  0
C  C279  1  0.20984987  0.82659658  0.63152143  1  -0.086777  0  -0.017391  -0.043695  0  3.978616  0
C  C280  1  0.29014788  0.32659752  0.13152465  1  -0.08691  0  -0.017381  -0.043685  0  3.978792  0
C  C281  1  0.79014569  0.17340715  0.36847565  1  -0.086861  0  -0.017368  -0.043724  0  3.978669  0
C  C282  1  0.70675606  0.69413108  0.95095021  1  -0.007522  0  -0.082087  -0.08772  0  3.963086  0
C  C283  1  0.20675373  0.80586790  0.54904837  1  -0.007048  0  -0.082103  -0.08773  0  3.963148  0
C  C284  1  0.29324418  0.30586762  0.04905058  1  -0.00694  0  -0.082034  -0.087666  0  3.963167  0
C  C285  1  0.79324584  0.19413460  0.45094827  1  -0.007152  0  -0.082037  -0.087614  0  3.963031  0
C  C286  1  0.74603877  0.76662567  0.00053038  1  0.035488  0  -0.084454  -0.100313  0  3.961946  0
C  C287  1  0.24603429  0.73337177  0.49946768  1  0.035541  0  -0.084481  -0.100206  0  3.961937  0
C  C288  1  0.25396281  0.23337241  0.99947018  1  0.035511  0  -0.084494  -0.100323  0  3.961947  0
C  C289  1  0.75396261  0.26662945  0.50053126  1  0.035556  0  -0.084494  -0.100405  0  3.96196  0
C  C290  1  0.78892148  0.81902557  0.96832013  1  -0.067013  0  -0.015659  -0.038668  0  3.970826  0
C  C291  1  0.28891723  0.68097393  0.53167963  1  -0.06703  0  -0.015641  -0.038641  0  3.970949  0
C  C292  1  0.21107809  0.18097374  0.03168143  1  -0.067128  0  -0.015662  -0.038681  0  3.9708  0
C  C293  1  0.71107767  0.31902663  0.46832073  1  -0.067373  0  -0.015648  -0.03846  0  3.970671  0
C  C294  1  0.83412081  0.89554964  0.02130143  1  1.541265  0  0.214109  0.584222  0  4.194434  0
C  C295  1  0.33411842  0.60444893  0.47869803  1  1.541377  0  0.214031  0.584053  0  4.194703  0
C  C296  1  0.16587810  0.10444967  0.97869958  1  1.541259  0  0.214108  0.584213  0  4.194525  0
C  C297  1  0.66587782  0.39555218  0.52130585  1  1.541488  0  0.214169  0.584183  0  4.19442  0
C  C298  1  0.79190959  0.79837006  0.88580948  1  -0.007852  0  -0.078355  -0.083392  0  3.952366  0
C  C299  1  0.29190785  0.70162945  0.61418973  1  -0.007811  0  -0.07836  -0.083391  0  3.952463  0
C  C300  1  0.20808798  0.20163051  0.11419088  1  -0.007938  0  -0.078361  -0.083348  0  3.952293  0
C  C301  1  0.70808438  0.29837236  0.38581052  1  -0.007995  0  -0.078367  -0.083535  0  3.952417  0
C  C302  1  0.75234331  0.72601302  0.83626843  1  -0.049882  0  -0.083289  -0.101544  0  3.962275  0
C  C303  1  0.25234211  0.77398778  0.66373019  1  -0.049994  0  -0.08334  -0.101629  0  3.962359  0
C  C304  1  0.24765493  0.27398815  0.16373271  1  -0.049815  0  -0.083313  -0.101655  0  3.962141  0
C  C305  1  0.74765145  0.22601590  0.33626964  1  -0.049789  0  -0.083325  -0.101572  0  3.96237  0
C  C306  1  0.00235938  0.75667134  0.05607809  1  1.360209  0  0.170317  0.305395  0  4.116277  0
C  C307  1  0.50235703  0.74332865  0.44392674  1  1.35986  0  0.170461  0.305551  0  4.116074  0
C  C308  1  0.99764487  0.24332921  0.94392337  1  1.359821  0  0.17043  0.305576  0  4.116073  0
C  C309  1  0.49764322  0.25667003  0.55607515  1  1.359843  0  0.170321  0.305354  0  4.116224  0
C  C310  1  0.06824300  0.62109330  0.02944010  1  0.287336  0  -0.061066  -0.008042  0  3.915622  0
C  C311  1  0.56824055  0.87890550  0.47055979  1  0.287301  0  -0.061076  -0.008102  0  3.91577  0
C  C312  1  0.93175724  0.37890604  0.97055982  1  0.28722  0  -0.061103  -0.008122  0  3.915698  0
C  C313  1  0.43175769  0.12109199  0.52944000  1  0.287269  0  -0.061044  -0.008003  0  3.915657  0
C  C314  1  0.14483158  0.58015052  0.97359487  1  -0.075678  0  -0.246321  -0.388039  0  3.933772  0
C  C315  1  0.64482794  0.91984976  0.52640315  1  -0.075682  0  -0.246362  -0.38812  0  3.933923  0
C  C316  1  0.85516866  0.41984760  0.02640404  1  -0.075596  0  -0.246316  -0.387974  0  3.933731  0
C  C317  1  0.35516896  0.08015084  0.47359556  1  -0.075713  0  -0.246339  -0.388067  0  3.933769  0
C  C318  1  0.98250565  0.65379310  0.92403384  1  0.316012  0  -0.060695  -0.01945  0  3.933066  0
C  C319  1  0.48250258  0.84620862  0.57597037  1  0.316543  0  -0.060678  -0.019418  0  3.933152  0
C  C320  1  0.01749593  0.34620743  0.07596817  1  0.316578  0  -0.060645  -0.019341  0  3.933087  0
C  C321  1  0.51749365  0.15379070  0.42403065  1  0.316591  0  -0.060692  -0.019515  0  3.933116  0
C  C322  1  0.91610317  0.58316098  0.90575030  1  -0.061436  0  -0.244796  -0.386004  0  3.94208  0
C  C323  1  0.41610005  0.91683961  0.59425136  1  -0.061724  0  -0.244822  -0.385943  0  3.94202  0
C  C324  1  0.08389974  0.41683772  0.09425049  1  -0.061706  0  -0.244851  -0.386044  0  3.942123  0
C  C325  1  0.58389752  0.08315974  0.40574801  1  -0.061759  0  -0.244838  -0.385958  0  3.942065  0
C  C326  1  0.96019998  0.24534995  0.61001256  1  1.384446  0  0.171414  0.309071  0  4.120137  0
C  C327  1  0.46019770  0.25464908  0.88999756  1  1.38352  0  0.171318  0.308903  0  4.120177  0
C  C328  1  0.03979826  0.75464641  0.38998184  1  1.38379  0  0.171438  0.309054  0  4.120306  0
C  C329  1  0.53980054  0.74534837  0.11000388  1  1.383673  0  0.17135  0.308998  0  4.120049  0
C  C330  1  0.01460688  0.38530167  0.63930539  1  0.27957  0  -0.061827  -0.012648  0  3.919561  0
C  C331  1  0.51460941  0.11469849  0.86069851  1  0.279939  0  -0.061864  -0.012837  0  3.919409  0
C  C332  1  0.98539403  0.61469279  0.36069109  1  0.279535  0  -0.061738  -0.012504  0  3.919596  0
C  C333  1  0.48539284  0.88530147  0.13930108  1  0.279769  0  -0.061821  -0.01279  0  3.919508  0
C  C334  1  0.08463449  0.43064261  0.70097084  1  -0.076689  0  -0.245973  -0.393427  0  3.941724  0
C  C335  1  0.58463515  0.06935757  0.79902965  1  -0.076868  0  -0.245966  -0.393381  0  3.941827  0
C  C336  1  0.91536508  0.56935121  0.29902706  1  -0.0769  0  -0.246049  -0.39362  0  3.941817  0
C  C337  1  0.41536710  0.93064243  0.20096829  1  -0.076589  0  -0.246  -0.393354  0  3.941728  0
C  C338  1  0.91693086  0.34957962  0.73616472  1  0.321523  0  -0.060041  -0.014975  0  3.926354  0
C  C339  1  0.41693352  0.15042447  0.76384176  1  0.322506  0  -0.060163  -0.015304  0  3.926446  0
C  C340  1  0.08306671  0.65041488  0.26382956  1  0.321499  0  -0.059848  -0.014586  0  3.926151  0
C  C341  1  0.58306672  0.84957606  0.23616025  1  0.322422  0  -0.060138  -0.01523  0  3.926402  0
C  C342  1  0.83742816  0.40522538  0.73885805  1  -0.072876  0  -0.247619  -0.390452  0  3.933314  0
C  C343  1  0.33743219  0.09477821  0.76114613  1  -0.072832  0  -0.247623  -0.390421  0  3.933274  0
C  C344  1  0.16257008  0.59477279  0.26113867  1  -0.072686  0  -0.247673  -0.390584  0  3.933099  0
C  C345  1  0.66256672  0.90522357  0.23885523  1  -0.072681  0  -0.247678  -0.390439  0  3.933266  0
C  C346  1  0.98747391  0.24312887  0.27209435  1  1.372196  0  0.170828  0.306339  0  4.108957  0
C  C347  1  0.48747060  0.25687377  0.22790607  1  1.372525  0  0.170847  0.30633  0  4.108862  0
C  C348  1  0.01253034  0.75687355  0.72790613  1  1.372531  0  0.170912  0.306524  0  4.108865  0
C  C349  1  0.51252897  0.74312744  0.77209342  1  1.37218  0  0.170806  0.306334  0  4.108796  0
C  C350  1  0.06113871  0.37575523  0.30219888  1  0.256341  0  -0.064115  -0.013107  0  3.913495  0
C  C351  1  0.56113619  0.12424652  0.19780286  1  0.255974  0  -0.06406  -0.013086  0  3.913543  0
C  C352  1  0.93886287  0.62424844  0.69780150  1  0.256346  0  -0.064032  -0.01304  0  3.913554  0
C  C353  1  0.43886271  0.87575585  0.80220037  1  0.256104  0  -0.064076  -0.013034  0  3.913486  0
C  C354  1  0.14040357  0.40783714  0.35771590  1  -0.087003  0  -0.248669  -0.393254  0  3.941646  0
C  C355  1  0.64040051  0.09216020  0.14228635  1  -0.08693  0  -0.248739  -0.393444  0  3.94157  0
C  C356  1  0.85959734  0.59216403  0.64228523  1  -0.087115  0  -0.248652  -0.393268  0  3.941691  0
C  C357  1  0.35959773  0.90783845  0.85771719  1  -0.087006  0  -0.248648  -0.39327  0  3.941613  0
C  C358  1  0.96762615  0.34537712  0.40479948  1  0.322464  0  -0.05983  -0.014288  0  3.922075  0
C  C359  1  0.46762913  0.15462495  0.09519965  1  0.322709  0  -0.059913  -0.014349  0  3.92215  0
C  C360  1  0.03237276  0.65462595  0.59519958  1  0.322867  0  -0.059844  -0.014279  0  3.922184  0
C  C361  1  0.53237378  0.84537563  0.90480016  1  0.322908  0  -0.059836  -0.014256  0  3.922078  0
C  C362  1  0.90553802  0.41929662  0.42372567  1  -0.081605  0  -0.244311  -0.390533  0  3.945123  0
C  C363  1  0.40553706  0.08070792  0.07627610  1  -0.081678  0  -0.244306  -0.390445  0  3.94507  0
C  C364  1  0.09446289  0.58070762  0.57627659  1  -0.08165  0  -0.2443  -0.390466  0  3.945066  0
C  C365  1  0.59446385  0.91929387  0.92372526  1  -0.08178  0  -0.244344  -0.390575  0  3.94524  0
N  N366  1  0.01787061  0.67991457  0.00487453  1  -1.198374  0  -0.279641  -0.076813  0  3.645334  0
N  N367  1  0.51786813  0.82008543  0.49512919  1  -1.198724  0  -0.279561  -0.076669  0  3.645058  0
N  N368  1  0.98213097  0.32008536  0.99512671  1  -1.19872  0  -0.279612  -0.076915  0  3.64529  0
N  N369  1  0.48213010  0.17991325  0.50487270  1  -1.198725  0  -0.279545  -0.07669  0  3.645164  0
N  N370  1  0.96496046  0.32387032  0.66049507  1  -1.1852  0  -0.279214  -0.072437  0  3.63329  0
N  N371  1  0.46496031  0.17613126  0.83951154  1  -1.186443  0  -0.278977  -0.07188  0  3.633107  0
N  N372  1  0.03503978  0.67612477  0.33950108  1  -1.184991  0  -0.279336  -0.072568  0  3.633463  0
N  N373  1  0.53503993  0.82386808  0.16048838  1  -1.186311  0  -0.27898  -0.072077  0  3.633154  0
N  N374  1  0.00477755  0.31893864  0.32450976  1  -1.206373  0  -0.278524  -0.070917  0  3.635237  0
N  N375  1  0.50477906  0.18106319  0.17548987  1  -1.206438  0  -0.278542  -0.070954  0  3.635113  0
N  N376  1  0.99522270  0.68106504  0.67548952  1  -1.206597  0  -0.278569  -0.071023  0  3.635301  0
N  N377  1  0.49522319  0.81893800  0.82451016  1  -1.206464  0  -0.278516  -0.070941  0  3.635096  0
O  O378  1  0.49672873  0.44991161  0.71162977  1  -1.277582  0  -0.564696  -0.878407  0  2.334632  0
O  O379  1  0.99672874  0.05008884  0.78837029  1  -1.277588  0  -0.564689  -0.878393  0  2.334646  0
O  O380  1  0.50327218  0.55008893  0.28837224  1  -1.278188  0  -0.56469  -0.878443  0  2.334654  0
O  O381  1  0.00326950  0.94991363  0.21162799  1  -1.278258  0  -0.564657  -0.878379  0  2.33456  0
O  O382  1  0.49809493  0.55141525  0.95757549  1  -1.22287  0  -0.562931  -0.879375  0  2.324204  0
O  O383  1  0.99809326  0.94858347  0.54242318  1  -1.222852  0  -0.563008  -0.879552  0  2.324096  0
O  O384  1  0.50190464  0.44858345  0.04242530  1  -1.222788  0  -0.562968  -0.879502  0  2.324176  0
O  O385  1  0.00190365  0.05141654  0.45757421  1  -1.222739  0  -0.562969  -0.879517  0  2.324213  0
O  O386  1  0.99798028  0.05035993  0.12195640  1  -1.225738  0  -0.565078  -0.87858  0  2.342365  0
O  O387  1  0.49798062  0.44964269  0.37804455  1  -1.225907  0  -0.564962  -0.878364  0  2.342603  0
O  O388  1  0.00201796  0.94964311  0.87804431  1  -1.225891  0  -0.565013  -0.878343  0  2.342526  0
O  O389  1  0.50201762  0.55035785  0.62195691  1  -1.225853  0  -0.565093  -0.878539  0  2.342313  0
O  O390  1  0.32650852  0.58504494  0.74129574  1  -1.163414  0  -0.318723  -0.545624  0  2.328369  0
O  O391  1  0.82650845  0.91495641  0.75870299  1  -1.163445  0  -0.3187  -0.545572  0  2.328462  0
O  O392  1  0.67349239  0.41495497  0.25870659  1  -1.16325  0  -0.318728  -0.545643  0  2.328178  0
O  O393  1  0.17349179  0.08504293  0.24129693  1  -1.163426  0  -0.318736  -0.545587  0  2.328392  0
O  O394  1  0.17749964  0.92393089  0.09104494  1  -1.157426  0  -0.316977  -0.539838  0  2.313793  0
O  O395  1  0.67750008  0.57607028  0.40895512  1  -1.157396  0  -0.316954  -0.539848  0  2.313747  0
O  O396  1  0.82250060  0.07607030  0.90895509  1  -1.157348  0  -0.316955  -0.539842  0  2.313734  0
O  O397  1  0.32249949  0.42392966  0.59104557  1  -1.15743  0  -0.316995  -0.539926  0  2.313788  0
O  O398  1  0.81878158  0.07729857  0.56715963  1  -1.16828  0  -0.320218  -0.562088  0  2.32254  0
O  O399  1  0.31878584  0.42269837  0.93283772  1  -1.168197  0  -0.320289  -0.562198  0  2.322637  0
O  O400  1  0.18121398  0.92269775  0.43283641  1  -1.168166  0  -0.320297  -0.562195  0  2.322636  0
O  O401  1  0.68121774  0.57729854  0.06716020  1  -1.168261  0  -0.320182  -0.56205  0  2.322595  0
O  O402  1  0.54748572  0.38526189  0.83159412  1  -1.182295  0  -0.311606  -0.564307  0  2.313461  0
O  O403  1  0.04748724  0.11473830  0.66840698  1  -1.182319  0  -0.311593  -0.564251  0  2.313585  0
O  O404  1  0.45251519  0.61473861  0.16840954  1  -1.182481  0  -0.31162  -0.564298  0  2.313375  0
O  O405  1  0.95251567  0.88526299  0.33158866  1  -1.182017  0  -0.311619  -0.564313  0  2.313543  0
O  O406  1  0.43863633  0.61210559  0.83146709  1  -1.193904  0  -0.315355  -0.57121  0  2.31019  0
O  O407  1  0.93863711  0.88789562  0.66853366  1  -1.193999  0  -0.31538  -0.571215  0  2.310272  0
O  O408  1  0.56136525  0.38789681  0.16853450  1  -1.193905  0  -0.315347  -0.571191  0  2.310165  0
O  O409  1  0.06136246  0.11210498  0.33146505  1  -1.193939  0  -0.315341  -0.571138  0  2.310384  0
O  O410  1  0.87041970  0.94253778  0.99111500  1  -1.193493  0  -0.309021  -0.55805  0  2.325712  0
O  O411  1  0.37041754  0.55746287  0.50888563  1  -1.193496  0  -0.309024  -0.558022  0  2.325801  0
O  O412  1  0.12958321  0.05746093  0.00888523  1  -1.193542  0  -0.309081  -0.558144  0  2.325827  0
O  O413  1  0.62958136  0.44254133  0.49111882  1  -1.193495  0  -0.309131  -0.558183  0  2.325736  0
O  O414  1  0.66459247  0.40807421  0.91646925  1  -1.158146  0  -0.318507  -0.552427  0  2.324536  0
O  O415  1  0.16459149  0.09192525  0.58353199  1  -1.158096  0  -0.318503  -0.552426  0  2.324569  0
O  O416  1  0.33540977  0.59192381  0.08353462  1  -1.158109  0  -0.318515  -0.552479  0  2.324554  0
O  O417  1  0.83540741  0.90807598  0.41646584  1  -1.158107  0  -0.318526  -0.552417  0  2.324445  0
O  O418  1  0.06409821  0.89243482  0.00202805  1  -1.193946  0  -0.314708  -0.574021  0  2.340008  0
O  O419  1  0.56409981  0.60756642  0.49797384  1  -1.193824  0  -0.314684  -0.573996  0  2.339879  0
O  O420  1  0.93590270  0.10756636  0.99797309  1  -1.193923  0  -0.314737  -0.574036  0  2.339975  0
O  O421  1  0.43589910  0.39243288  0.50202827  1  -1.193738  0  -0.314645  -0.574003  0  2.339925  0
O  O422  1  0.86333679  0.04409651  0.67172597  1  -1.184908  0  -0.308429  -0.557045  0  2.354508  0
O  O423  1  0.36333655  0.45590717  0.82827267  1  -1.184634  0  -0.308445  -0.55712  0  2.354411  0
O  O424  1  0.13666279  0.95590472  0.32827242  1  -1.185029  0  -0.30844  -0.557113  0  2.354444  0
O  O425  1  0.63666369  0.54409525  0.17172781  1  -1.184543  0  -0.308414  -0.556995  0  2.354461  0
O  O426  1  0.62921035  0.54892871  0.84463701  1  -1.189321  0  -0.311524  -0.566423  0  2.336486  0
O  O427  1  0.12921178  0.95107469  0.65536050  1  -1.189424  0  -0.311486  -0.566292  0  2.336444  0
O  O428  1  0.37078856  0.45107250  0.15536193  1  -1.189311  0  -0.311428  -0.566264  0  2.336435  0
O  O429  1  0.87078579  0.04892971  0.34463405  1  -1.189148  0  -0.311443  -0.566293  0  2.33643  0
O  O430  1  0.83328858  0.90723833  0.09618846  1  -1.152816  0  -0.324503  -0.560622  0  2.334759  0
O  O431  1  0.33328633  0.59276020  0.40381321  1  -1.152848  0  -0.324465  -0.560565  0  2.334955  0
O  O432  1  0.16671033  0.09276155  0.90381553  1  -1.152703  0  -0.324487  -0.560581  0  2.33484  0
O  O433  1  0.66670857  0.40723726  0.59618768  1  -1.152908  0  -0.324496  -0.560569  0  2.33487  0
O  O434  1  0.66601449  0.58593496  0.74058523  1  -1.169293  0  -0.320495  -0.553696  0  2.348181  0
O  O435  1  0.16601373  0.91406528  0.75941386  1  -1.169259  0  -0.320532  -0.553676  0  2.348084  0
O  O436  1  0.33398976  0.41406375  0.25941501  1  -1.169239  0  -0.320537  -0.55367  0  2.348116  0
O  O437  1  0.83398384  0.08594031  0.24058279  1  -1.169443  0  -0.320445  -0.553508  0  2.348364  0
O  O438  1  0.02891497  0.78510965  0.12643895  1  -1.173396  0  -0.297479  -0.451683  0  2.264071  0
O  O439  1  0.52891075  0.71488788  0.37356385  1  -1.173195  0  -0.297593  -0.451801  0  2.263811  0
O  O440  1  0.97109262  0.21489030  0.87356119  1  -1.173279  0  -0.297555  -0.451769  0  2.263858  0
O  O441  1  0.47109082  0.28510832  0.62643824  1  -1.17325  0  -0.297549  -0.451703  0  2.263972  0
O  O442  1  0.99497713  0.21776736  0.54266648  1  -1.178154  0  -0.297577  -0.450539  0  2.263362  0
O  O443  1  0.49497605  0.28223102  0.95734390  1  -1.177742  0  -0.297568  -0.450541  0  2.263346  0
O  O444  1  0.00502244  0.78223086  0.45732749  1  -1.177949  0  -0.297589  -0.450522  0  2.263557  0
O  O445  1  0.50502353  0.71776644  0.04265754  1  -1.177688  0  -0.297588  -0.450546  0  2.263385  0
O  O446  1  0.01553432  0.21501830  0.20216139  1  -1.171488  0  -0.29663  -0.448356  0  2.259464  0
O  O447  1  0.51552621  0.28498164  0.29783975  1  -1.171694  0  -0.296679  -0.448377  0  2.259482  0
O  O448  1  0.98447260  0.78498287  0.79783974  1  -1.171708  0  -0.296685  -0.448433  0  2.259394  0
O  O449  1  0.48447002  0.71501956  0.70215974  1  -1.171498  0  -0.296651  -0.4484  0  2.259412  0
