# generated using pymatgen
data_CoCu3H24C15S6(IN)3
_symmetry_space_group_name_H-M   'P 1'
_cell_length_a   20.03609296
_cell_length_b   20.03592324
_cell_length_c   20.03591573
_cell_angle_alpha   109.47106791
_cell_angle_beta   109.47164580
_cell_angle_gamma   109.47147378
_symmetry_Int_Tables_number   1
_chemical_formula_structural   CoCu3H24C15S6(IN)3
_chemical_formula_sum   'Co8 Cu24 H192 C120 S48 I24 N24'
_cell_volume   6191.65694147
_cell_formula_units_Z   8
loop_
 _symmetry_equiv_pos_site_id
 _symmetry_equiv_pos_as_xyz
  1  'x, y, z'
loop_
 _atom_site_type_symbol
 _atom_site_label
 _atom_site_symmetry_multiplicity
 _atom_site_fract_x
 _atom_site_fract_y
 _atom_site_fract_z
 _atom_site_occupancy
 _atom_site_pbe_bader_charge
 _atom_site_pbe_bader_spin_density
 _atom_site_pbe_cm5_charge
 _atom_site_pbe_ddec_charge
 _atom_site_pbe_ddec_spin_density
 _atom_site_pbe_ddec_sum_bond_order
 _atom_site_pbe_magmom
Co  Co0  1  0.00000006  0.00000083  0.84578448  1  0.633361  0  0.34099  0.19017  0  3.830193  0
Co  Co1  1  0.50000262  0.84578609  0.50000253  1  0.633261  0  0.340988  0.190141  0  3.830174  0
Co  Co2  1  0.15421829  0.65421606  0.65421584  1  0.629085  0  0.340982  0.1902  0  3.830114  0
Co  Co3  1  0.34578303  0.49999980  0.00000059  1  0.633377  0  0.340992  0.190169  0  3.830118  0
Co  Co4  1  0.00000020  0.99999924  0.34578176  1  0.633238  0  0.34099  0.190193  0  3.830134  0
Co  Co5  1  0.65421849  0.15421699  0.15421705  1  0.629225  0  0.341  0.190219  0  3.830133  0
Co  Co6  1  0.50000057  0.34578382  0.49999796  1  0.633499  0  0.340984  0.190165  0  3.830126  0
Co  Co7  1  0.84578432  0.50000065  0.99999925  1  0.633296  0  0.341012  0.190241  0  3.830067  0
Cu  Cu8  1  0.82210917  0.99069991  0.77547586  1  0.386442  0  0.237346  0.162732  0  2.79453  0
Cu  Cu9  1  0.00929836  0.83140525  0.78477462  1  0.386305  0  0.237331  0.162755  0  2.794459  0
Cu  Cu10  1  0.16859467  0.17789250  0.95336719  1  0.388919  0  0.237337  0.162766  0  2.794457  0
Cu  Cu11  1  0.67789399  0.95336751  0.66859435  1  0.389038  0  0.237372  0.162776  0  2.794472  0
Cu  Cu12  1  0.49070229  0.77547681  0.32210987  1  0.386374  0  0.237334  0.162738  0  2.794516  0
Cu  Cu13  1  0.33140894  0.78477569  0.50929966  1  0.386376  0  0.237361  0.162812  0  2.794468  0
Cu  Cu14  1  0.21522669  0.54663165  0.72452645  1  0.388622  0  0.237372  0.162822  0  2.794445  0
Cu  Cu15  1  0.04663735  0.72452718  0.71522713  1  0.388686  0  0.237351  0.162762  0  2.794428  0
Cu  Cu16  1  0.22452753  0.71522718  0.54663493  1  0.388754  0  0.237372  0.162782  0  2.794434  0
Cu  Cu17  1  0.28477439  0.50929793  0.83140574  1  0.386303  0  0.237351  0.16278  0  2.794452  0
Cu  Cu18  1  0.45336528  0.66859205  0.17789239  1  0.389035  0  0.237349  0.162759  0  2.794491  0
Cu  Cu19  1  0.27547579  0.32211102  0.99070165  1  0.386475  0  0.237362  0.162776  0  2.794515  0
Cu  Cu20  1  0.83140815  0.00930222  0.28477319  1  0.386319  0  0.237351  0.162816  0  2.794413  0
Cu  Cu21  1  0.17789373  0.16859390  0.45336551  1  0.389071  0  0.237343  0.16278  0  2.794466  0
Cu  Cu22  1  0.99069687  0.82210715  0.27547450  1  0.386448  0  0.237366  0.162775  0  2.79442  0
Cu  Cu23  1  0.72452915  0.04663497  0.21522723  1  0.388753  0  0.237357  0.162775  0  2.794451  0
Cu  Cu24  1  0.71522765  0.22452779  0.04663526  1  0.38873  0  0.237372  0.162807  0  2.794425  0
Cu  Cu25  1  0.54663685  0.21522938  0.22452781  1  0.388683  0  0.237366  0.162797  0  2.794434  0
Cu  Cu26  1  0.66859303  0.45336620  0.67789248  1  0.388935  0  0.23733  0.16273  0  2.794536  0
Cu  Cu27  1  0.32211097  0.27547631  0.49070057  1  0.386335  0  0.237333  0.162748  0  2.794525  0
Cu  Cu28  1  0.50929723  0.28477468  0.33140441  1  0.38638  0  0.237337  0.162748  0  2.794462  0
Cu  Cu29  1  0.77547354  0.49070099  0.82210732  1  0.386454  0  0.237371  0.162816  0  2.794385  0
Cu  Cu30  1  0.78477511  0.33140787  0.00929873  1  0.386347  0  0.237365  0.162817  0  2.794424  0
Cu  Cu31  1  0.95336450  0.67789062  0.16859032  1  0.388974  0  0.237371  0.162794  0  2.794486  0
H  H32  1  0.78262653  0.74573452  0.78741109  1  0.066742  0  0.099087  0.088544  0  0.999398  0
H  H33  1  0.25426434  0.03689060  0.04167602  1  0.071694  0  0.099096  0.088547  0  0.999331  0
H  H34  1  0.96311211  0.21737270  0.00478406  1  0.074799  0  0.099121  0.088602  0  0.999467  0
H  H35  1  0.71737350  0.00478533  0.46311065  1  0.074807  0  0.099064  0.088501  0  0.999304  0
H  H36  1  0.24573759  0.78741058  0.28262801  1  0.066683  0  0.099197  0.088739  0  0.999581  0
H  H37  1  0.53689068  0.04167471  0.75426402  1  0.071651  0  0.099119  0.088602  0  0.999477  0
H  H38  1  0.95832601  0.49521872  0.71259040  1  0.062815  0  0.099103  0.088597  0  0.999429  0
H  H39  1  0.99521357  0.71258820  0.45832370  1  0.062716  0  0.099107  0.088601  0  0.99941  0
H  H40  1  0.21258575  0.45832435  0.49520997  1  0.062704  0  0.099085  0.088537  0  0.999335  0
H  H41  1  0.54167433  0.75426399  0.03689026  1  0.071715  0  0.099082  0.088517  0  0.999387  0
H  H42  1  0.50478441  0.46311062  0.21737363  1  0.07484  0  0.099084  0.088522  0  0.9993  0
H  H43  1  0.28741143  0.28262976  0.74573492  1  0.066739  0  0.09908  0.088525  0  0.999394  0
H  H44  1  0.03689504  0.25426488  0.54167710  1  0.071709  0  0.099099  0.088557  0  0.999366  0
H  H45  1  0.21737147  0.96310906  0.50478424  1  0.074691  0  0.099059  0.088505  0  0.999311  0
H  H46  1  0.74573832  0.78262697  0.28741268  1  0.06674  0  0.099103  0.088564  0  0.99931  0
H  H47  1  0.71258550  0.99521250  0.95832307  1  0.062754  0  0.09906  0.088484  0  0.999259  0
H  H48  1  0.45832840  0.21258901  0.99521592  1  0.062421  0  0.099193  0.088695  0  0.999544  0
H  H49  1  0.49521227  0.95832131  0.21258436  1  0.062708  0  0.099072  0.08853  0  0.999307  0
H  H50  1  0.46311338  0.50478857  0.71737318  1  0.075053  0  0.099073  0.088495  0  0.99923  0
H  H51  1  0.28262657  0.28741034  0.24573381  1  0.066682  0  0.099195  0.088692  0  0.999509  0
H  H52  1  0.75426216  0.54167349  0.53688750  1  0.071684  0  0.099069  0.088516  0  0.999442  0
H  H53  1  0.78741102  0.24573497  0.78262758  1  0.066756  0  0.099097  0.088539  0  0.999342  0
H  H54  1  0.04167756  0.53688950  0.25426388  1  0.071627  0  0.099097  0.088574  0  0.999357  0
H  H55  1  0.00478297  0.71737212  0.96310951  1  0.074731  0  0.099101  0.088588  0  0.999502  0
H  H56  1  0.78750587  0.67525709  0.70916181  1  0.057458  0  0.098888  0.084519  0  0.984825  0
H  H57  1  0.32473828  0.11224725  0.03390344  1  0.079698  0  0.098864  0.084461  0  0.984916  0
H  H58  1  0.88775184  0.21248911  0.92165476  1  0.072745  0  0.098865  0.084507  0  0.984869  0
H  H59  1  0.71248859  0.92165402  0.38775291  1  0.068  0  0.098858  0.084465  0  0.984931  0
H  H60  1  0.17526233  0.70916558  0.28751057  1  0.05749  0  0.098884  0.084528  0  0.984808  0
H  H61  1  0.61224832  0.03390796  0.82474341  1  0.080009  0  0.098904  0.084506  0  0.98488  0
H  H62  1  0.96609840  0.57834601  0.79083516  1  0.05987  0  0.098912  0.084564  0  0.984861  0
H  H63  1  0.07834365  0.79083513  0.46609446  1  0.059854  0  0.098898  0.084561  0  0.984776  0
H  H64  1  0.29083175  0.46609436  0.57834278  1  0.059885  0  0.098902  0.08452  0  0.98486  0
H  H65  1  0.53390545  0.82474136  0.11224951  1  0.080013  0  0.098898  0.084502  0  0.984897  0
H  H66  1  0.42165580  0.38775264  0.21249309  1  0.067965  0  0.09889  0.084495  0  0.984917  0
H  H67  1  0.20916164  0.28750865  0.67525593  1  0.057375  0  0.098874  0.084459  0  0.984789  0
H  H68  1  0.11225149  0.32474265  0.53390377  1  0.09446  0  0.098896  0.084498  0  0.984848  0
H  H69  1  0.21248792  0.88775159  0.42165442  1  0.067986  0  0.098887  0.084499  0  0.984985  0
H  H70  1  0.67526187  0.78750994  0.20916503  1  0.054332  0  0.098846  0.084448  0  0.984893  0
H  H71  1  0.79083400  0.07834384  0.96609632  1  0.059814  0  0.098892  0.084515  0  0.984933  0
H  H72  1  0.46609603  0.29083353  0.07834472  1  0.059929  0  0.098899  0.084547  0  0.984793  0
H  H73  1  0.57834465  0.96609486  0.29083609  1  0.059822  0  0.0989  0.084526  0  0.984847  0
H  H74  1  0.38775369  0.42165794  0.71248721  1  0.072745  0  0.098861  0.084451  0  0.985017  0
H  H75  1  0.28750312  0.20916270  0.17525607  1  0.057431  0  0.098905  0.084511  0  0.984838  0
H  H76  1  0.82473892  0.53390381  0.61224783  1  0.079645  0  0.098864  0.084462  0  0.984927  0
H  H77  1  0.70916208  0.17525786  0.78750713  1  0.057396  0  0.09891  0.084529  0  0.984844  0
H  H78  1  0.03390640  0.61224803  0.32474123  1  0.080063  0  0.098893  0.084506  0  0.984918  0
H  H79  1  0.92165524  0.71249225  0.88775016  1  0.072673  0  0.098879  0.08452  0  0.984786  0
H  H80  1  0.64395119  0.70566473  0.69398057  1  0.029268  0  0.083967  0.090032  0  1.002162  0
H  H81  1  0.29433149  0.93828239  0.98831189  1  0.053516  0  0.08399  0.090044  0  1.002037  0
H  H82  1  0.06171545  0.35605056  0.05003118  1  0.054131  0  0.083984  0.090031  0  1.002136  0
H  H83  1  0.85604962  0.05002601  0.56171456  1  0.053947  0  0.083936  0.08997  0  1.002124  0
H  H84  1  0.20566330  0.69397986  0.14395035  1  0.02918  0  0.08398  0.090044  0  1.002194  0
H  H85  1  0.43828421  0.98831447  0.79433173  1  0.053476  0  0.083973  0.090039  0  1.002193  0
H  H86  1  0.01168394  0.44996986  0.80601838  1  0.048107  0  0.083963  0.090037  0  1.002189  0
H  H87  1  0.94997010  0.80602003  0.51168399  1  0.048179  0  0.083972  0.090056  0  1.002122  0
H  H88  1  0.30602355  0.51168956  0.44997283  1  0.048181  0  0.083973  0.09001  0  1.002114  0
H  H89  1  0.48831306  0.79433502  0.93828491  1  0.053557  0  0.083952  0.089998  0  1.002194  0
H  H90  1  0.55003115  0.56171622  0.35605187  1  0.054535  0  0.083971  0.090027  0  1.002157  0
H  H91  1  0.19398148  0.14395133  0.70566539  1  0.029527  0  0.083937  0.089953  0  1.002186  0
H  H92  1  0.93828661  0.29433145  0.48831269  1  0.053281  0  0.083939  0.08999  0  1.002208  0
H  H93  1  0.35604813  0.06171378  0.55002796  1  0.054208  0  0.083967  0.090019  0  1.002155  0
H  H94  1  0.70566329  0.64394865  0.19397910  1  0.029198  0  0.083955  0.089982  0  1.002173  0
H  H95  1  0.80602023  0.94997048  0.01168574  1  0.048179  0  0.083967  0.090022  0  1.002067  0
H  H96  1  0.51168635  0.30602116  0.94997167  1  0.04817  0  0.083974  0.090047  0  1.002148  0
H  H97  1  0.44996936  0.01168384  0.30601826  1  0.048107  0  0.083961  0.090009  0  1.002114  0
H  H98  1  0.56171434  0.55002903  0.85605212  1  0.054273  0  0.083993  0.09005  0  1.002123  0
H  H99  1  0.14395155  0.19398244  0.20566735  1  0.029466  0  0.083944  0.089973  0  1.002275  0
H  H100  1  0.79433171  0.48830912  0.43828253  1  0.053516  0  0.083956  0.089943  0  1.002157  0
H  H101  1  0.69397824  0.20566450  0.64394941  1  0.029379  0  0.083983  0.090048  0  1.002106  0
H  H102  1  0.98831502  0.43828341  0.29433464  1  0.053518  0  0.083963  0.090002  0  1.002166  0
H  H103  1  0.05003278  0.85605012  0.06171754  1  0.054497  0  0.083973  0.089978  0  1.002141  0
H  H104  1  0.63980271  0.60932081  0.65775780  1  0.049116  0  0.079786  0.095387  0  1.03521  0
H  H105  1  0.39067498  0.03048133  0.04843301  1  0.036699  0  0.079804  0.095406  0  1.035306  0
H  H106  1  0.96951759  0.36019354  0.01795491  1  0.043942  0  0.079828  0.095396  0  1.035159  0
H  H107  1  0.86019207  0.01794952  0.46951736  1  0.044175  0  0.079821  0.095388  0  1.035268  0
H  H108  1  0.10932324  0.65776148  0.13980642  1  0.049452  0  0.079799  0.095371  0  1.035225  0
H  H109  1  0.53048067  0.04843996  0.89067863  1  0.036673  0  0.079808  0.095417  0  1.035157  0
H  H110  1  0.95156393  0.48204741  0.84223987  1  0.050037  0  0.079819  0.095379  0  1.035246  0
H  H111  1  0.98204739  0.84224171  0.45156387  1  0.050023  0  0.079838  0.095437  0  1.03519  0
H  H112  1  0.34224024  0.45156629  0.48204817  1  0.050016  0  0.079831  0.095436  0  1.035287  0
H  H113  1  0.54843589  0.89067721  0.03048278  1  0.036614  0  0.079832  0.095438  0  1.035282  0
H  H114  1  0.51795622  0.46951802  0.36019659  1  0.043858  0  0.079792  0.095357  0  1.035201  0
H  H115  1  0.15776258  0.13980590  0.60932396  1  0.049371  0  0.079802  0.095415  0  1.035259  0
H  H116  1  0.03048217  0.39067534  0.54843521  1  0.036539  0  0.079818  0.095444  0  1.035274  0
H  H117  1  0.36018989  0.96951734  0.51795004  1  0.043987  0  0.079841  0.095405  0  1.035259  0
H  H118  1  0.60932290  0.63980575  0.15775835  1  0.049384  0  0.079843  0.095433  0  1.035279  0
H  H119  1  0.84223882  0.98204777  0.95156615  1  0.050064  0  0.079814  0.095401  0  1.035288  0
H  H120  1  0.45156339  0.34223940  0.98204588  1  0.050066  0  0.079841  0.095404  0  1.035214  0
H  H121  1  0.48204586  0.95156341  0.34223986  1  0.049988  0  0.07982  0.095425  0  1.035244  0
H  H122  1  0.46951512  0.51795148  0.86019141  1  0.043926  0  0.079811  0.095375  0  1.035273  0
H  H123  1  0.13980092  0.15776156  0.10932337  1  0.04907  0  0.079781  0.095364  0  1.03517  0
H  H124  1  0.89067213  0.54843155  0.53047925  1  0.036599  0  0.079786  0.095399  0  1.035294  0
H  H125  1  0.65775823  0.10932184  0.63980381  1  0.049339  0  0.079825  0.095448  0  1.03525  0
H  H126  1  0.04843817  0.53048142  0.39067788  1  0.036626  0  0.079791  0.095418  0  1.035264  0
H  H127  1  0.01795845  0.86019619  0.96952042  1  0.043854  0  0.079795  0.095374  0  1.035146  0
H  H128  1  0.66660313  0.62246545  0.55050813  1  0.010426  0  0.086007  0.086342  0  1.002499  0
H  H129  1  0.37752950  0.04414145  0.92804097  1  0.052365  0  0.086042  0.086412  0  1.002498  0
H  H130  1  0.95585920  0.33339241  0.88390245  1  0.050104  0  0.086019  0.086364  0  1.002354  0
H  H131  1  0.83338533  0.88389467  0.45585373  1  0.050421  0  0.085995  0.086303  0  1.002368  0
H  H132  1  0.12246536  0.55051019  0.16660901  1  0.010444  0  0.085992  0.086306  0  1.002316  0
H  H133  1  0.54414014  0.92804582  0.87753512  1  0.052449  0  0.085986  0.086297  0  1.002416  0
H  H134  1  0.07195837  0.61609963  0.94949109  1  0.009441  0  0.08605  0.086425  0  1.002375  0
H  H135  1  0.11610043  0.94949190  0.57195827  1  0.009401  0  0.086021  0.086374  0  1.002387  0
H  H136  1  0.44948870  0.57195679  0.61610358  1  0.009344  0  0.08604  0.086402  0  1.002415  0
H  H137  1  0.42804506  0.87753643  0.04414562  1  0.052285  0  0.085992  0.086323  0  1.002415  0
H  H138  1  0.38390360  0.45585719  0.33339639  1  0.050025  0  0.085995  0.086287  0  1.002352  0
H  H139  1  0.05051020  0.16660714  0.62246076  1  0.01049  0  0.085985  0.086298  0  1.002346  0
H  H140  1  0.04414173  0.37753440  0.42804253  1  0.052425  0  0.086018  0.086363  0  1.002398  0
H  H141  1  0.33338707  0.95585573  0.38389926  1  0.050434  0  0.086073  0.086449  0  1.002438  0
H  H142  1  0.62246668  0.66660840  0.05050914  1  0.010356  0  0.086001  0.086308  0  1.002392  0
H  H143  1  0.94949032  0.11609901  0.07195585  1  0.00939  0  0.086044  0.086369  0  1.002465  0
H  H144  1  0.57195745  0.44949199  0.11610175  1  0.009407  0  0.086  0.086331  0  1.002292  0
H  H145  1  0.61609912  0.07195586  0.44949093  1  0.009394  0  0.086013  0.086357  0  1.002433  0
H  H146  1  0.45584874  0.38389544  0.83338389  1  0.050155  0  0.086077  0.086428  0  1.002268  0
H  H147  1  0.16660305  0.05051143  0.12246442  1  0.010547  0  0.086002  0.086314  0  1.002431  0
H  H148  1  0.87753158  0.42804240  0.54414370  1  0.052337  0  0.086019  0.086369  0  1.002359  0
H  H149  1  0.55050861  0.12246333  0.66660816  1  0.010382  0  0.085971  0.086271  0  1.002349  0
H  H150  1  0.92804819  0.54414465  0.37753628  1  0.052377  0  0.085987  0.086312  0  1.002347  0
H  H151  1  0.88390504  0.83339426  0.95585672  1  0.050077  0  0.085992  0.086311  0  1.002361  0
H  H152  1  0.60002956  0.66303670  0.54936842  1  0.009737  0  0.093783  0.099573  0  0.981681  0
H  H153  1  0.33695848  0.93699447  0.88632800  1  0.020606  0  0.093779  0.099571  0  0.981678  0
H  H154  1  0.06300410  0.39996812  0.94933845  1  0.052611  0  0.093779  0.099558  0  0.981815  0
H  H155  1  0.89996421  0.94933090  0.56300141  1  0.052337  0  0.093778  0.099529  0  0.981757  0
H  H156  1  0.16303281  0.54936879  0.10003211  1  0.00981  0  0.093788  0.09956  0  0.981857  0
H  H157  1  0.43699488  0.88633300  0.83696247  1  0.020553  0  0.09377  0.099537  0  0.981814  0
H  H158  1  0.11366545  0.55066317  0.95062932  1  0.0291  0  0.09381  0.099582  0  0.981817  0
H  H159  1  0.05066428  0.95063114  0.61366973  1  0.029104  0  0.093804  0.099562  0  0.981717  0
H  H160  1  0.45063358  0.61366866  0.55067124  1  0.029132  0  0.093814  0.099597  0  0.981732  0
H  H161  1  0.38633287  0.83696570  0.93699797  1  0.020096  0  0.093785  0.099582  0  0.981745  0
H  H162  1  0.44934142  0.56300550  0.39997138  1  0.052538  0  0.093758  0.099507  0  0.981846  0
H  H163  1  0.04937002  0.10003044  0.66303132  1  0.009816  0  0.093796  0.099569  0  0.9819  0
H  H164  1  0.93699574  0.33696042  0.38633079  1  0.020587  0  0.093766  0.09953  0  0.98182  0
H  H165  1  0.39996557  0.06300241  0.44933383  1  0.052391  0  0.093791  0.099575  0  0.981703  0
H  H166  1  0.66303323  0.60003202  0.04936845  1  0.009799  0  0.093776  0.09955  0  0.981864  0
H  H167  1  0.95063191  0.05066345  0.11366879  1  0.029107  0  0.093786  0.09954  0  0.981656  0
H  H168  1  0.61366690  0.45063260  0.05066618  1  0.029093  0  0.093791  0.099561  0  0.981832  0
H  H169  1  0.55066317  0.11366717  0.45063139  1  0.029102  0  0.093776  0.099542  0  0.981718  0
H  H170  1  0.56299587  0.44933170  0.89996664  1  0.052411  0  0.093792  0.099543  0  0.981844  0
H  H171  1  0.10003141  0.04937089  0.16303628  1  0.009791  0  0.093775  0.099537  0  0.981846  0
H  H172  1  0.83696197  0.38632985  0.43699921  1  0.020521  0  0.093763  0.099532  0  0.981794  0
H  H173  1  0.54936734  0.16303274  0.60003165  1  0.00981  0  0.093792  0.09957  0  0.981816  0
H  H174  1  0.88633499  0.43699628  0.33696558  1  0.020131  0  0.093777  0.099543  0  0.981798  0
H  H175  1  0.94934132  0.89997029  0.06300521  1  0.052586  0  0.09376  0.099506  0  0.981839  0
H  H176  1  0.75740566  0.75508787  0.57873573  1  0.053964  0  0.098046  0.087524  0  0.987029  0
H  H177  1  0.24490607  0.00232070  0.82364618  1  0.053842  0  0.098073  0.087543  0  0.987144  0
H  H178  1  0.99768205  0.24259277  0.82132846  1  0.047947  0  0.09804  0.087526  0  0.98703  0
H  H179  1  0.74258614  0.82132470  0.49767872  1  0.047775  0  0.098077  0.087562  0  0.987338  0
H  H180  1  0.25509054  0.57873805  0.25740636  1  0.053731  0  0.098075  0.087586  0  0.987075  0
H  H181  1  0.50231715  0.82364784  0.74491189  1  0.053915  0  0.098034  0.087515  0  0.987103  0
H  H182  1  0.17635356  0.67866847  0.92126245  1  0.055606  0  0.098054  0.08755  0  0.987145  0
H  H183  1  0.17867135  0.92126149  0.67635333  1  0.055573  0  0.098059  0.087552  0  0.987079  0
H  H184  1  0.42126141  0.67635380  0.67867431  1  0.055486  0  0.098114  0.087629  0  0.987313  0
H  H185  1  0.32364810  0.74490999  0.00231776  1  0.053891  0  0.098055  0.087539  0  0.987206  0
H  H186  1  0.32133254  0.49768334  0.24259730  1  0.048172  0  0.0981  0.087585  0  0.987317  0
H  H187  1  0.07873758  0.25740404  0.75508803  1  0.054004  0  0.098063  0.087548  0  0.987078  0
H  H188  1  0.00231828  0.24490931  0.32364700  1  0.053871  0  0.098092  0.0876  0  0.987226  0
H  H189  1  0.24258703  0.99767834  0.32132601  1  0.047832  0  0.098096  0.087622  0  0.987254  0
H  H190  1  0.75509103  0.75740449  0.07873728  1  0.05375  0  0.098065  0.087559  0  0.98708  0
H  H191  1  0.92126366  0.17867289  0.17635229  1  0.055575  0  0.09805  0.087561  0  0.987221  0
H  H192  1  0.67635452  0.42126394  0.17867160  1  0.055552  0  0.098097  0.087606  0  0.987254  0
H  H193  1  0.67867224  0.17635322  0.42126431  1  0.055674  0  0.098039  0.087518  0  0.987063  0
H  H194  1  0.49768156  0.32132937  0.74259018  1  0.047895  0  0.098071  0.08758  0  0.987103  0
H  H195  1  0.25740404  0.07873766  0.25508727  1  0.054004  0  0.098069  0.087557  0  0.987106  0
H  H196  1  0.74490654  0.32364671  0.50231831  1  0.053809  0  0.098136  0.087695  0  0.987335  0
H  H197  1  0.57873813  0.25508917  0.75740713  1  0.053962  0  0.098063  0.087541  0  0.987156  0
H  H198  1  0.82365088  0.50231663  0.24490987  1  0.053995  0  0.098047  0.087511  0  0.987177  0
H  H199  1  0.82133235  0.74259564  0.99768321  1  0.048243  0  0.098057  0.087548  0  0.987097  0
H  H200  1  0.71078940  0.80184872  0.62505007  1  0.078518  0  0.084083  0.07054  0  1.07495  0
H  H201  1  0.19814866  0.90894224  0.82319880  1  0.084561  0  0.084066  0.070521  0  1.074944  0
H  H202  1  0.09105915  0.28921219  0.91426013  1  0.082582  0  0.084073  0.070528  0  1.074928  0
H  H203  1  0.78921016  0.91425721  0.59105949  1  0.082595  0  0.084062  0.070556  0  1.074926  0
H  H204  1  0.30184794  0.62505099  0.21078631  1  0.078526  0  0.084057  0.070523  0  1.074943  0
H  H205  1  0.40894181  0.82320230  0.69815052  1  0.084572  0  0.0841  0.07056  0  1.074952  0
H  H206  1  0.17679769  0.58573801  0.87495067  1  0.082793  0  0.084098  0.070562  0  1.074885  0
H  H207  1  0.08574107  0.87494992  0.67679948  1  0.082784  0  0.084087  0.070535  0  1.074964  0
H  H208  1  0.37495211  0.67680071  0.58574092  1  0.08273  0  0.084104  0.070611  0  1.074866  0
H  H209  1  0.32320181  0.69815155  0.90893987  1  0.084604  0  0.084084  0.070529  0  1.074947  0
H  H210  1  0.41426266  0.59106192  0.28921560  1  0.082711  0  0.084069  0.070512  0  1.07492  0
H  H211  1  0.12505126  0.21078556  0.80184511  1  0.078509  0  0.084081  0.070533  0  1.074947  0
H  H212  1  0.90894141  0.19814887  0.32319985  1  0.084607  0  0.084083  0.070564  0  1.074909  0
H  H213  1  0.28920884  0.09105807  0.41425743  1  0.082634  0  0.084088  0.070597  0  1.074906  0
H  H214  1  0.80184663  0.71078599  0.12505095  1  0.078483  0  0.08407  0.070549  0  1.074965  0
H  H215  1  0.87495386  0.08574220  0.17680198  1  0.082691  0  0.084073  0.070558  0  1.074882  0
H  H216  1  0.67679965  0.37495244  0.08573962  1  0.082794  0  0.084093  0.070559  0  1.074905  0
H  H217  1  0.58573949  0.17679772  0.37495062  1  0.082736  0  0.084074  0.070505  0  1.075024  0
H  H218  1  0.59105993  0.41426315  0.78921550  1  0.082671  0  0.084085  0.070563  0  1.074899  0
H  H219  1  0.21078911  0.12505239  0.30184941  1  0.078504  0  0.084074  0.07053  0  1.074934  0
H  H220  1  0.69815064  0.32319895  0.40894139  1  0.084618  0  0.084095  0.070612  0  1.074829  0
H  H221  1  0.62505009  0.30184791  0.71078672  1  0.078513  0  0.084059  0.070497  0  1.07496  0
H  H222  1  0.82320347  0.40894026  0.19815224  1  0.084532  0  0.084079  0.070498  0  1.074968  0
H  H223  1  0.91426289  0.78921237  0.09105966  1  0.082631  0  0.08408  0.070545  0  1.074931  0
C  C224  1  0.85882481  0.84816229  0.74643544  1  0.337357  0  0.120032  0.150397  0  4.075531  0
C  C225  1  0.15183423  0.01066180  0.89827101  1  0.354652  0  0.120028  0.150359  0  4.075603  0
C  C226  1  0.98933894  0.14117516  0.88761030  1  0.344863  0  0.120019  0.150347  0  4.07551  0
C  C227  1  0.64116988  0.88761067  0.48934089  1  0.344366  0  0.11993  0.15017  0  4.075452  0
C  C228  1  0.34816155  0.74643455  0.35882301  1  0.337675  0  0.120041  0.150417  0  4.075629  0
C  C229  1  0.51066500  0.89827271  0.65183452  1  0.354729  0  0.120022  0.150389  0  4.07544  0
C  C230  1  0.10172707  0.61238910  0.75356529  1  0.333972  0  0.120058  0.150429  0  4.075569  0
C  C231  1  0.11239150  0.75356471  0.60172720  1  0.333805  0  0.120044  0.150365  0  4.075629  0
C  C232  1  0.25356353  0.60172829  0.61238986  1  0.333626  0  0.120088  0.150449  0  4.075489  0
C  C233  1  0.39827253  0.65183653  0.01066412  1  0.354324  0  0.119985  0.150336  0  4.075522  0
C  C234  1  0.38761096  0.48934208  0.14117266  1  0.344352  0  0.119987  0.150314  0  4.075451  0
C  C235  1  0.24643608  0.35882763  0.84816330  1  0.337306  0  0.120001  0.150329  0  4.075565  0
C  C236  1  0.01066435  0.15183701  0.39827095  1  0.354446  0  0.120066  0.150393  0  4.075591  0
C  C237  1  0.14117254  0.98933724  0.38760787  1  0.344828  0  0.120094  0.150494  0  4.075422  0
C  C238  1  0.84816156  0.85882288  0.24643135  1  0.337651  0  0.120062  0.150373  0  4.07566  0
C  C239  1  0.75356128  0.11239161  0.10173108  1  0.33387  0  0.120066  0.15041  0  4.07539  0
C  C240  1  0.60172857  0.25356736  0.11239012  1  0.33435  0  0.120061  0.150484  0  4.075606  0
C  C241  1  0.61239023  0.10172820  0.25356511  1  0.333654  0  0.120047  0.150405  0  4.075503  0
C  C242  1  0.48934028  0.38761204  0.64117651  1  0.34491  0  0.120061  0.15045  0  4.075606  0
C  C243  1  0.35882870  0.24643847  0.34816370  1  0.337278  0  0.120013  0.150333  0  4.075524  0
C  C244  1  0.65183354  0.39826978  0.51066048  1  0.354704  0  0.120063  0.150438  0  4.075552  0
C  C245  1  0.74643876  0.34816678  0.85882928  1  0.337192  0  0.119972  0.15029  0  4.075509  0
C  C246  1  0.89827282  0.51066149  0.15183537  1  0.354676  0  0.119948  0.150286  0  4.075699  0
C  C247  1  0.88760821  0.64117119  0.98933732  1  0.34459  0  0.11999  0.150294  0  4.075444  0
C  C248  1  0.76175228  0.71569006  0.72182281  1  0.268889  0  -0.06289  -0.056968  0  3.861036  0
C  C249  1  0.28430747  0.04606126  0.00612981  1  0.262494  0  -0.062901  -0.056897  0  3.861148  0
C  C250  1  0.95394218  0.23824745  0.96007414  1  0.273438  0  -0.062822  -0.056985  0  3.861229  0
C  C251  1  0.73824569  0.96006679  0.45393871  1  0.278205  0  -0.062901  -0.056972  0  3.861296  0
C  C252  1  0.21569720  0.72182976  0.26175615  1  0.268675  0  -0.062974  -0.057152  0  3.861108  0
C  C253  1  0.54606124  0.00613386  0.78430721  1  0.262124  0  -0.062955  -0.057009  0  3.861262  0
C  C254  1  0.99386738  0.53992903  0.77817503  1  0.287477  0  -0.06291  -0.057034  0  3.861065  0
C  C255  1  0.03992706  0.77817387  0.49386743  1  0.287555  0  -0.0629  -0.057092  0  3.861122  0
C  C256  1  0.27817570  0.49387022  0.53993062  1  0.287546  0  -0.062914  -0.057009  0  3.861312  0
C  C257  1  0.50613243  0.78430902  0.04606395  1  0.262464  0  -0.062957  -0.056979  0  3.861135  0
C  C258  1  0.46006717  0.45393822  0.23824832  1  0.278007  0  -0.062954  -0.057016  0  3.861343  0
C  C259  1  0.22182541  0.26175525  0.71569269  1  0.268857  0  -0.062901  -0.056869  0  3.861099  0
C  C260  1  0.04606470  0.28430821  0.50613068  1  0.247622  0  -0.062916  -0.056921  0  3.8611  0
C  C261  1  0.23824596  0.95393777  0.46006722  1  0.27784  0  -0.062901  -0.056962  0  3.861403  0
C  C262  1  0.71569363  0.76175326  0.22182281  1  0.272066  0  -0.062863  -0.056867  0  3.86108  0
C  C263  1  0.77818004  0.03993279  0.99387083  1  0.287607  0  -0.062907  -0.056981  0  3.861253  0
C  C264  1  0.49386738  0.27817237  0.03992627  1  0.287548  0  -0.062939  -0.057073  0  3.861191  0
C  C265  1  0.53993080  0.99386884  0.27817686  1  0.287606  0  -0.06292  -0.057  0  3.861163  0
C  C266  1  0.45393989  0.46006849  0.73824648  1  0.272973  0  -0.062875  -0.056885  0  3.861251  0
C  C267  1  0.26175483  0.22182912  0.21569344  1  0.268878  0  -0.063016  -0.05709  0  3.861192  0
C  C268  1  0.78430472  0.50613035  0.54606039  1  0.262495  0  -0.06286  -0.056902  0  3.861332  0
C  C269  1  0.72182279  0.21569041  0.76175466  1  0.26889  0  -0.062944  -0.056968  0  3.861033  0
C  C270  1  0.00613366  0.54606252  0.28430870  1  0.262485  0  -0.062955  -0.05699  0  3.861192  0
C  C271  1  0.96007334  0.73824656  0.95394061  1  0.273502  0  -0.062876  -0.057055  0  3.86121  0
C  C272  1  0.66901852  0.67079207  0.66638340  1  -0.001884  0  -0.167553  -0.171352  0  3.91324  0
C  C273  1  0.32920739  0.99823008  0.99559185  1  -0.033296  0  -0.167575  -0.171394  0  3.913137  0
C  C274  1  0.00177235  0.33097637  0.99736178  1  -0.047108  0  -0.167536  -0.171261  0  3.913311  0
C  C275  1  0.83097701  0.99735874  0.50176770  1  -0.047127  0  -0.167493  -0.171265  0  3.913186  0
C  C276  1  0.17079379  0.66638513  0.16902125  1  -0.00218  0  -0.167533  -0.171306  0  3.913224  0
C  C277  1  0.49822367  0.99559042  0.82920296  1  -0.033138  0  -0.167593  -0.171413  0  3.913348  0
C  C278  1  0.00440967  0.50263616  0.83361543  1  -0.046137  0  -0.167507  -0.171275  0  3.913309  0
C  C279  1  0.00263791  0.83361571  0.50441047  1  -0.046154  0  -0.167565  -0.171418  0  3.913307  0
C  C280  1  0.33361430  0.50440543  0.50263815  1  -0.046135  0  -0.167545  -0.171329  0  3.913167  0
C  C281  1  0.49559318  0.82920968  0.99823010  1  -0.033503  0  -0.16755  -0.171329  0  3.913325  0
C  C282  1  0.49736466  0.50177267  0.33097916  1  -0.047046  0  -0.167464  -0.171225  0  3.913246  0
C  C283  1  0.16638674  0.16902372  0.67079092  1  -0.002447  0  -0.167482  -0.17125  0  3.913466  0
C  C284  1  0.99823212  0.32920682  0.49559328  1  -0.032862  0  -0.167574  -0.171453  0  3.913249  0
C  C285  1  0.33097593  0.00176928  0.49736111  1  -0.046993  0  -0.16756  -0.171342  0  3.913263  0
C  C286  1  0.67079122  0.66902089  0.16638531  1  -0.002085  0  -0.167532  -0.171305  0  3.913385  0
C  C287  1  0.83361466  0.00263872  0.00440834  1  -0.046191  0  -0.167569  -0.171404  0  3.913281  0
C  C288  1  0.50441109  0.33361633  0.00263896  1  -0.046176  0  -0.167581  -0.17136  0  3.913433  0
C  C289  1  0.50263594  0.00440608  0.33361414  1  -0.046109  0  -0.167511  -0.171326  0  3.91322  0
C  C290  1  0.50176850  0.49736172  0.83097668  1  -0.047036  0  -0.167517  -0.171298  0  3.91333  0
C  C291  1  0.16901984  0.16638731  0.17079465  1  -0.002081  0  -0.167541  -0.17128  0  3.913228  0
C  C292  1  0.82920893  0.49559289  0.49823285  1  -0.0332  0  -0.167551  -0.17125  0  3.913171  0
C  C293  1  0.66638293  0.17078961  0.66902011  1  -0.002211  0  -0.167579  -0.171444  0  3.91326  0
C  C294  1  0.99559552  0.49822910  0.32920829  1  -0.033363  0  -0.167514  -0.171316  0  3.913372  0
C  C295  1  0.99736362  0.83097705  0.00177288  1  -0.047438  0  -0.167467  -0.171124  0  3.913158  0
C  C296  1  0.65948006  0.67141360  0.58738151  1  0.042455  0  -0.160729  -0.152828  0  3.892533  0
C  C297  1  0.32858185  0.98806755  0.91596635  1  -0.017277  0  -0.16079  -0.152936  0  3.892613  0
C  C298  1  0.01193727  0.34052088  0.92790451  1  -0.051816  0  -0.160787  -0.152954  0  3.892749  0
C  C299  1  0.84051540  0.92789775  0.51193391  1  -0.052203  0  -0.160691  -0.152719  0  3.89251  0
C  C300  1  0.17141615  0.58738342  0.15947740  1  0.042246  0  -0.160735  -0.152799  0  3.892728  0
C  C301  1  0.48806128  0.91596817  0.82858363  1  -0.017692  0  -0.16074  -0.152755  0  3.892639  0
C  C302  1  0.08403343  0.57209674  0.91261771  1  0.025162  0  -0.160785  -0.152969  0  3.892779  0
C  C303  1  0.07209937  0.91261772  0.58403385  1  0.025245  0  -0.160677  -0.152755  0  3.892486  0
C  C304  1  0.41261682  0.58403309  0.57210204  1  0.025338  0  -0.160796  -0.152939  0  3.892491  0
C  C305  1  0.41596868  0.82858591  0.98806549  1  -0.01641  0  -0.160744  -0.152837  0  3.892614  0
C  C306  1  0.42790871  0.51194031  0.34052637  1  -0.052086  0  -0.160764  -0.152855  0  3.892663  0
C  C307  1  0.08738451  0.15947539  0.67141271  1  0.04254  0  -0.160817  -0.152928  0  3.892896  0
C  C308  1  0.98806364  0.32858278  0.41596646  1  -0.017553  0  -0.160751  -0.152807  0  3.892478  0
C  C309  1  0.34051261  0.01192948  0.42789544  1  -0.051911  0  -0.160771  -0.152901  0  3.892607  0
C  C310  1  0.67141439  0.65947684  0.08738265  1  0.042534  0  -0.160778  -0.152848  0  3.892708  0
C  C311  1  0.91261792  0.07210231  0.08403410  1  0.025219  0  -0.160695  -0.152706  0  3.892485  0
C  C312  1  0.58403398  0.41261737  0.07209709  1  0.025147  0  -0.160701  -0.152798  0  3.892739  0
C  C313  1  0.57209942  0.08403054  0.41261752  1  0.025227  0  -0.160723  -0.152834  0  3.892533  0
C  C314  1  0.51193010  0.42789983  0.84051757  1  -0.051685  0  -0.160805  -0.152918  0  3.892654  0
C  C315  1  0.15947760  0.08738398  0.17141582  1  0.042126  0  -0.160758  -0.152831  0  3.8927  0
C  C316  1  0.82858126  0.41596464  0.48806357  1  -0.017177  0  -0.160748  -0.152823  0  3.892519  0
C  C317  1  0.58738272  0.17141485  0.65947823  1  0.042193  0  -0.160755  -0.152827  0  3.892563  0
C  C318  1  0.91597117  0.48806294  0.32858597  1  -0.016915  0  -0.160783  -0.152865  0  3.89259  0
C  C319  1  0.92790751  0.84052349  0.01193847  1  -0.051774  0  -0.160762  -0.152853  0  3.892757  0
C  C320  1  0.72949696  0.75531291  0.61760229  1  0.25599  0  -0.066522  -0.060579  0  3.842059  0
C  C321  1  0.24468459  0.97418660  0.86228845  1  0.257715  0  -0.066537  -0.060615  0  3.842264  0
C  C322  1  0.02581460  0.27050378  0.88810692  1  0.273011  0  -0.066477  -0.060606  0  3.842159  0
C  C323  1  0.77049827  0.88809767  0.52581300  1  0.273397  0  -0.066584  -0.060789  0  3.842555  0
C  C324  1  0.25530939  0.61760020  0.22949678  1  0.256264  0  -0.066564  -0.060726  0  3.84228  0
C  C325  1  0.47418645  0.86229115  0.74468807  1  0.257811  0  -0.066512  -0.060648  0  3.842219  0
C  C326  1  0.13770952  0.61189691  0.88239917  1  0.255335  0  -0.066525  -0.060598  0  3.842185  0
C  C327  1  0.11189641  0.88239852  0.63771301  1  0.255364  0  -0.066596  -0.060707  0  3.842124  0
C  C328  1  0.38240034  0.63771290  0.61190174  1  0.25539  0  -0.066612  -0.060844  0  3.842435  0
C  C329  1  0.36229054  0.74469095  0.97418947  1  0.257428  0  -0.066564  -0.060696  0  3.842366  0
C  C330  1  0.38810101  0.52580960  0.27050456  1  0.273066  0  -0.066524  -0.060634  0  3.84242  0
C  C331  1  0.11759964  0.22949329  0.75530590  1  0.255849  0  -0.066458  -0.060533  0  3.842173  0
C  C332  1  0.97418775  0.24468715  0.36228773  1  0.257748  0  -0.066603  -0.060763  0  3.842193  0
C  C333  1  0.27049849  0.02581237  0.38810025  1  0.273052  0  -0.066619  -0.060861  0  3.842544  0
C  C334  1  0.75531078  0.72949477  0.11759901  1  0.255812  0  -0.066542  -0.060643  0  3.842067  0
C  C335  1  0.88239954  0.11189948  0.13770944  1  0.255361  0  -0.066549  -0.060835  0  3.842417  0
C  C336  1  0.63771200  0.38240208  0.11189994  1  0.255368  0  -0.066588  -0.060705  0  3.842339  0
C  C337  1  0.61189486  0.13771338  0.38240030  1  0.255318  0  -0.066496  -0.060566  0  3.842048  0
C  C338  1  0.52581228  0.38810331  0.77050338  1  0.272996  0  -0.066567  -0.060733  0  3.842265  0
C  C339  1  0.22949852  0.11760309  0.25531156  1  0.256214  0  -0.066505  -0.060584  0  3.842169  0
C  C340  1  0.74468848  0.36228834  0.47419172  1  0.257698  0  -0.066653  -0.060957  0  3.842643  0
C  C341  1  0.61760040  0.25530993  0.72949760  1  0.256257  0  -0.0665  -0.060535  0  3.842224  0
C  C342  1  0.86229312  0.47418913  0.24469136  1  0.257708  0  -0.066487  -0.060489  0  3.842193  0
C  C343  1  0.88810692  0.77050420  0.02581353  1  0.272972  0  -0.066533  -0.060679  0  3.842321  0
S  S344  1  0.88485247  0.92495714  0.72304249  1  -0.105187  0  -0.1355  -0.151872  0  3.074607  0
S  S345  1  0.07503986  0.95989414  0.79808449  1  -0.117595  0  -0.135575  -0.151954  0  3.074682  0
S  S346  1  0.04010375  0.11514584  0.83818787  1  -0.113968  0  -0.135581  -0.151953  0  3.074567  0
S  S347  1  0.61514540  0.83818922  0.54010422  1  -0.113739  0  -0.135603  -0.151911  0  3.074785  0
S  S348  1  0.42495740  0.72304243  0.38485390  1  -0.105168  0  -0.13553  -0.151943  0  3.074499  0
S  S349  1  0.45989649  0.79808497  0.57504339  1  -0.117563  0  -0.135569  -0.151963  0  3.074646  0
S  S350  1  0.20191606  0.66181006  0.77695746  1  -0.102343  0  -0.135548  -0.151962  0  3.074549  0
S  S351  1  0.16181315  0.77695771  0.70191476  1  -0.102387  0  -0.135568  -0.151968  0  3.074701  0
S  S352  1  0.27695689  0.70191426  0.66181158  1  -0.102119  0  -0.135557  -0.151925  0  3.074657  0
S  S353  1  0.29808644  0.57504345  0.95989772  1  -0.117549  0  -0.135571  -0.151962  0  3.074661  0
S  S354  1  0.33818920  0.54010335  0.11514771  1  -0.113909  0  -0.135547  -0.151887  0  3.074813  0
S  S355  1  0.22304333  0.38485304  0.92495587  1  -0.105235  0  -0.135552  -0.151936  0  3.074702  0
S  S356  1  0.95989690  0.07504320  0.29808375  1  -0.117625  0  -0.13559  -0.152009  0  3.074722  0
S  S357  1  0.11514557  0.04010441  0.33818772  1  -0.113916  0  -0.135622  -0.152047  0  3.074674  0
S  S358  1  0.92495561  0.88485202  0.22303955  1  -0.105217  0  -0.135523  -0.151894  0  3.074646  0
S  S359  1  0.77695811  0.16181257  0.20191609  1  -0.102187  0  -0.135574  -0.152001  0  3.074831  0
S  S360  1  0.70191748  0.27695911  0.16181321  1  -0.10232  0  -0.135567  -0.151998  0  3.074549  0
S  S361  1  0.66181244  0.20191386  0.27695755  1  -0.102229  0  -0.135521  -0.151907  0  3.074658  0
S  S362  1  0.54010423  0.33818992  0.61514692  1  -0.114022  0  -0.135588  -0.151994  0  3.074647  0
S  S363  1  0.38485375  0.22304344  0.42495628  1  -0.105069  0  -0.135543  -0.151929  0  3.074679  0
S  S364  1  0.57504068  0.29808378  0.45989420  1  -0.117653  0  -0.135537  -0.151884  0  3.074607  0
S  S365  1  0.72304305  0.42495587  0.88485339  1  -0.105149  0  -0.135548  -0.151923  0  3.074673  0
S  S366  1  0.79808651  0.45989661  0.07504333  1  -0.117542  0  -0.135594  -0.151985  0  3.074667  0
S  S367  1  0.83818838  0.61514587  0.04010289  1  -0.113909  0  -0.135596  -0.151966  0  3.074717  0
S  S368  1  0.93591691  0.87853664  0.84046320  1  -0.131993  0  -0.131498  -0.157959  0  2.93366  0
S  S369  1  0.12146268  0.05738064  0.96192553  1  -0.137719  0  -0.131499  -0.15795  0  2.933761  0
S  S370  1  0.94262099  0.06408265  0.90454561  1  -0.12962  0  -0.131474  -0.157907  0  2.933707  0
S  S371  1  0.56408452  0.90454680  0.44262134  1  -0.129508  0  -0.131462  -0.157859  0  2.933924  0
S  S372  1  0.37853836  0.84046224  0.43591670  1  -0.131989  0  -0.131472  -0.157958  0  2.933644  0
S  S373  1  0.55738335  0.96192808  0.62146630  1  -0.137892  0  -0.131486  -0.157897  0  2.933729  0
S  S374  1  0.03807533  0.59545448  0.65953718  1  -0.12986  0  -0.131455  -0.157911  0  2.933575  0
S  S375  1  0.09545659  0.65953767  0.53807376  1  -0.129815  0  -0.131512  -0.157995  0  2.933743  0
S  S376  1  0.15953764  0.53807417  0.59545352  1  -0.129741  0  -0.131481  -0.157957  0  2.933641  0
S  S377  1  0.46192549  0.62146435  0.05738136  1  -0.1373  0  -0.131492  -0.157914  0  2.933697  0
S  S378  1  0.40454457  0.44262105  0.06408597  1  -0.129549  0  -0.13147  -0.157875  0  2.933916  0
S  S379  1  0.34046184  0.43591673  0.87853741  1  -0.131975  0  -0.131465  -0.157888  0  2.933726  0
S  S380  1  0.05738303  0.12146460  0.46192619  1  -0.137445  0  -0.131512  -0.157952  0  2.933621  0
S  S381  1  0.06408238  0.94262002  0.40454530  1  -0.129579  0  -0.13152  -0.157991  0  2.933669  0
S  S382  1  0.87853676  0.93591798  0.34046082  1  -0.131922  0  -0.131504  -0.157974  0  2.933527  0
S  S383  1  0.65953835  0.09545437  0.03807465  1  -0.129846  0  -0.131473  -0.157939  0  2.933792  0
S  S384  1  0.53807618  0.15953924  0.09545507  1  -0.12983  0  -0.131472  -0.157963  0  2.933592  0
S  S385  1  0.59545642  0.03807507  0.15953800  1  -0.12981  0  -0.13148  -0.157936  0  2.933627  0
S  S386  1  0.44262276  0.40454745  0.56408300  1  -0.12963  0  -0.131519  -0.157989  0  2.933662  0
S  S387  1  0.43591749  0.34046234  0.37853592  1  -0.132052  0  -0.13149  -0.157886  0  2.933811  0
S  S388  1  0.62146464  0.46192592  0.55737945  1  -0.137771  0  -0.131495  -0.15795  0  2.933708  0
S  S389  1  0.84046222  0.37853722  0.93591710  1  -0.132004  0  -0.131501  -0.157939  0  2.933853  0
S  S390  1  0.96192689  0.55738083  0.12146409  1  -0.137754  0  -0.131486  -0.15791  0  2.93372  0
S  S391  1  0.90454456  0.56408375  0.94262045  1  -0.129536  0  -0.131463  -0.157879  0  2.933729  0
I  I392  1  0.69294529  0.90006708  0.77331309  1  -0.44696  0  -0.210935  -0.32968  0  1.810907  0
I  I393  1  0.09993229  0.79287631  0.87324767  1  -0.444823  0  -0.210908  -0.329679  0  1.810884  0
I  I394  1  0.20712239  0.30705551  0.08036793  1  -0.445936  0  -0.210912  -0.329679  0  1.810909  0
I  I395  1  0.80705579  0.08036898  0.70712366  1  -0.445947  0  -0.210934  -0.329674  0  1.810898  0
I  I396  1  0.40006758  0.77331272  0.19294464  1  -0.446955  0  -0.210935  -0.329669  0  1.81093  0
I  I397  1  0.29287902  0.87324700  0.59993184  1  -0.444888  0  -0.210914  -0.329692  0  1.810928  0
I  I398  1  0.12675433  0.41963108  0.72668604  1  -0.44737  0  -0.210935  -0.329714  0  1.810961  0
I  I399  1  0.91963239  0.72668655  0.62675434  1  -0.447485  0  -0.210924  -0.329672  0  1.810863  0
I  I400  1  0.22668753  0.62675542  0.41963207  1  -0.447407  0  -0.210933  -0.329693  0  1.810872  0
I  I401  1  0.37324518  0.59993309  0.79287721  1  -0.444822  0  -0.210923  -0.329685  0  1.810922  0
I  I402  1  0.58036791  0.70712338  0.30705585  1  -0.445963  0  -0.210919  -0.329676  0  1.810897  0
I  I403  1  0.27331340  0.19294565  0.90006800  1  -0.446957  0  -0.210938  -0.329675  0  1.810903  0
I  I404  1  0.79288009  0.09993317  0.37324684  1  -0.444827  0  -0.210916  -0.329675  0  1.810883  0
I  I405  1  0.30705791  0.20712290  0.58036669  1  -0.445929  0  -0.210913  -0.32966  0  1.810884  0
I  I406  1  0.90006671  0.69294329  0.27331262  1  -0.446976  0  -0.210945  -0.329712  0  1.810887  0
I  I407  1  0.72668669  0.91963218  0.12675340  1  -0.447428  0  -0.210929  -0.329684  0  1.810881  0
I  I408  1  0.62675489  0.22668718  0.91963215  1  -0.447415  0  -0.210931  -0.329699  0  1.81089  0
I  I409  1  0.41963037  0.12675395  0.22668230  1  -0.447518  0  -0.210934  -0.329691  0  1.810865  0
I  I410  1  0.70712229  0.58036815  0.80705476  1  -0.44594  0  -0.210922  -0.329691  0  1.810935  0
I  I411  1  0.19294670  0.27331474  0.40006797  1  -0.446955  0  -0.210937  -0.329689  0  1.810935  0
I  I412  1  0.59993241  0.37324704  0.29287724  1  -0.44485  0  -0.210907  -0.329686  0  1.810958  0
I  I413  1  0.77331585  0.40006932  0.69294557  1  -0.446977  0  -0.210931  -0.329673  0  1.810867  0
I  I414  1  0.87324538  0.29287795  0.09993348  1  -0.444861  0  -0.210914  -0.329677  0  1.8109  0
I  I415  1  0.08036506  0.80705527  0.20712153  1  -0.445924  0  -0.21091  -0.329652  0  1.810875  0
N  N416  1  0.79024804  0.77747189  0.69876101  1  -1.170935  0  -0.259052  0.002265  0  3.673697  0
N  N417  1  0.22252553  0.01277576  0.92128727  1  -1.175614  0  -0.259086  0.002327  0  3.673692  0
N  N418  1  0.98722496  0.20975154  0.90851118  1  -1.179687  0  -0.259114  0.002356  0  3.673651  0
N  N419  1  0.70975278  0.90851190  0.48722277  1  -1.179403  0  -0.258924  0.002572  0  3.673376  0
N  N420  1  0.27747764  0.69876269  0.29025059  1  -1.171113  0  -0.259034  0.002376  0  3.673722  0
N  N421  1  0.51277661  0.92128913  0.72252834  1  -1.175531  0  -0.259056  0.002319  0  3.673463  0
N  N422  1  0.07871364  0.59148946  0.80123893  1  -1.173779  0  -0.259079  0.002254  0  3.673801  0
N  N423  1  0.09148766  0.80123812  0.57871032  1  -1.173688  0  -0.259041  0.002388  0  3.673532  0
N  N424  1  0.30123840  0.57871089  0.59148797  1  -1.173771  0  -0.25903  0.002385  0  3.673722  0
N  N425  1  0.42128921  0.72253042  0.01277756  1  -1.175987  0  -0.258998  0.002382  0  3.673575  0
N  N426  1  0.40851333  0.48722454  0.20975981  1  -1.179387  0  -0.259016  0.002411  0  3.673348  0
N  N427  1  0.19875997  0.29024803  0.77747080  1  -1.170852  0  -0.259041  0.002279  0  3.673497  0
N  N428  1  0.01278115  0.22252855  0.42128871  1  -1.175613  0  -0.259034  0.002402  0  3.673652  0
N  N429  1  0.20974901  0.98722261  0.40851067  1  -1.179455  0  -0.259025  0.002379  0  3.673778  0
N  N430  1  0.77747618  0.79025142  0.19876310  1  -1.171188  0  -0.259044  0.00232  0  3.673807  0
N  N431  1  0.80124024  0.09148963  0.07871265  1  -1.173921  0  -0.259056  0.002436  0  3.67337  0
N  N432  1  0.57871473  0.30123905  0.09149100  1  -1.173948  0  -0.259057  0.002219  0  3.673761  0
N  N433  1  0.59148756  0.07870993  0.30123908  1  -1.173658  0  -0.25901  0.002327  0  3.673614  0
N  N434  1  0.48722451  0.40851179  0.70974858  1  -1.179719  0  -0.259006  0.002414  0  3.673818  0
N  N435  1  0.29024703  0.19876057  0.27747106  1  -1.170867  0  -0.259008  0.002324  0  3.673523  0
N  N436  1  0.72252694  0.42128764  0.51277662  1  -1.175574  0  -0.259065  0.002319  0  3.673779  0
N  N437  1  0.69875905  0.27746980  0.79024729  1  -1.170867  0  -0.258978  0.00235  0  3.673477  0
N  N438  1  0.92129134  0.51277693  0.22252878  1  -1.175914  0  -0.259004  0.002324  0  3.673685  0
N  N439  1  0.90851257  0.70975338  0.98722388  1  -1.17949  0  -0.259034  0.00238  0  3.673414  0
