# generated using pymatgen
data_Ni4H30C30N4O17
_symmetry_space_group_name_H-M   'P 1'
_cell_length_a   12.86833718
_cell_length_b   14.25410373
_cell_length_c   30.64559699
_cell_angle_alpha   90.00023216
_cell_angle_beta   96.03255279
_cell_angle_gamma   90.00038120
_symmetry_Int_Tables_number   1
_chemical_formula_structural   Ni4H30C30N4O17
_chemical_formula_sum   'Ni16 H120 C120 N16 O68'
_cell_volume   5590.08970184
_cell_formula_units_Z   4
loop_
 _symmetry_equiv_pos_site_id
 _symmetry_equiv_pos_as_xyz
  1  'x, y, z'
loop_
 _atom_site_type_symbol
 _atom_site_label
 _atom_site_symmetry_multiplicity
 _atom_site_fract_x
 _atom_site_fract_y
 _atom_site_fract_z
 _atom_site_occupancy
 _atom_site_pbe_bader_charge
 _atom_site_pbe_bader_spin_density
 _atom_site_pbe_cm5_charge
 _atom_site_pbe_ddec_charge
 _atom_site_pbe_ddec_spin_density
 _atom_site_pbe_ddec_sum_bond_order
 _atom_site_pbe_magmom
Ni  Ni0  1  0.87425541  0.78304115  0.06624838  1  1.227389  1.593957  0.61549  0.970796  1.781216  2.277528  1.582
Ni  Ni1  1  0.12574284  0.28303819  0.43375307  1  1.227305  1.593947  0.615498  0.97076  1.781225  2.277496  1.582
Ni  Ni2  1  0.12575599  0.21696173  0.93375413  1  1.227433  1.593951  0.615499  0.9708  1.781207  2.277556  1.582
Ni  Ni3  1  0.87424049  0.71695626  0.56624325  1  1.227323  1.593967  0.615455  0.970653  1.781209  2.277524  1.582
Ni  Ni4  1  0.19374589  0.91000476  0.10911203  1  1.220286  1.594147  0.612322  0.976083  1.776703  2.270844  1.582
Ni  Ni5  1  0.80624730  0.41000285  0.39088571  1  1.220091  1.594155  0.612304  0.975989  1.776693  2.270889  1.582
Ni  Ni6  1  0.80626164  0.08999179  0.89088671  1  1.220325  1.594146  0.612276  0.976002  1.776708  2.270988  1.582
Ni  Ni7  1  0.19373760  0.58999161  0.60910970  1  1.220262  1.594156  0.612341  0.976102  1.776723  2.270983  1.582
Ni  Ni8  1  0.13209553  0.70440484  0.11722524  1  1.208965  1.580378  0.633439  0.897907  1.773396  2.499626  1.567
Ni  Ni9  1  0.86789707  0.20439698  0.38277086  1  1.20901  1.580373  0.633421  0.898008  1.773376  2.499443  1.567
Ni  Ni10  1  0.86790730  0.29559803  0.88277524  1  1.208839  1.580369  0.633449  0.897945  1.773392  2.499664  1.567
Ni  Ni11  1  0.13209173  0.79559256  0.61722539  1  1.208849  1.580375  0.633365  0.89781  1.773398  2.499565  1.567
Ni  Ni12  1  0.97524587  0.81085865  0.16133698  1  1.212486  1.582076  0.638486  0.905977  1.776621  2.520973  1.568
Ni  Ni13  1  0.02474857  0.31085168  0.33866262  1  1.212545  1.582074  0.638473  0.905871  1.776603  2.52115  1.568
Ni  Ni14  1  0.02475462  0.18914703  0.83866242  1  1.212487  1.582076  0.638463  0.905932  1.776618  2.521028  1.568
Ni  Ni15  1  0.97523631  0.68913786  0.66133410  1  1.212428  1.582049  0.638383  0.905843  1.776631  2.521111  1.568
H  H16  1  0.94209914  0.65326474  0.11790114  1  0.569168  0.001874  0.311459  0.395048  0.001839  0.886603  0.001
H  H17  1  0.05789487  0.15326337  0.38209544  1  0.569048  0.001874  0.311543  0.395212  0.001837  0.88635  0.001
H  H18  1  0.05789350  0.34674444  0.88210149  1  0.569066  0.001874  0.31145  0.395082  0.001838  0.886591  0.001
H  H19  1  0.94209547  0.84673529  0.61790219  1  0.568986  0.001874  0.311456  0.395105  0.001837  0.886521  0.001
H  H20  1  0.17126080  0.82292537  0.18079050  1  0.601456  0.002615  0.309029  0.388961  0.002477  0.899439  0.002
H  H21  1  0.82873760  0.32291977  0.31920731  1  0.601382  0.002614  0.308986  0.388898  0.002477  0.899503  0.002
H  H22  1  0.82872792  0.17708592  0.81921260  1  0.601355  0.002614  0.309014  0.388981  0.002475  0.899446  0.002
H  H23  1  0.17124807  0.67707749  0.68078880  1  0.601526  0.002614  0.308992  0.38912  0.002475  0.899362  0.002
H  H24  1  0.25497791  0.07275594  0.13315504  1  0.622197  -7.2e-05  0.336403  0.420834  -0.000151  0.849914  0.0
H  H25  1  0.74502602  0.57274768  0.36684245  1  0.622424  -7.3e-05  0.336368  0.420843  -0.000151  0.849921  0.0
H  H26  1  0.74504912  0.92724834  0.86684819  1  0.62236  -7.2e-05  0.336317  0.420829  -0.000151  0.849834  0.0
H  H27  1  0.25497455  0.42724958  0.63314945  1  0.622305  -7.2e-05  0.33634  0.420813  -0.000151  0.849792  0.0
H  H28  1  0.32443462  0.99960827  0.16000550  1  0.628333  -0.000447  0.331576  0.413292  -0.00046  0.864605  0.0
H  H29  1  0.67556040  0.49960317  0.33999283  1  0.628277  -0.000447  0.331556  0.413292  -0.00046  0.864691  0.0
H  H30  1  0.67557833  0.00039390  0.83999904  1  0.628534  -0.000447  0.331594  0.413328  -0.00046  0.864672  0.0
H  H31  1  0.32442688  0.50040391  0.65999910  1  0.628371  -0.000447  0.33154  0.413224  -0.00046  0.864841  0.0
H  H32  1  0.23839742  0.03376937  0.03509389  1  0.637062  0.00199  0.30798  0.412425  0.001467  0.89256  0.002
H  H33  1  0.76161271  0.53376231  0.46489743  1  0.63722  0.00199  0.308016  0.412368  0.001467  0.892649  0.002
H  H34  1  0.76160930  0.96623631  0.96490808  1  0.636966  0.001992  0.308001  0.412488  0.001468  0.8925  0.002
H  H35  1  0.23838394  0.46622863  0.53509527  1  0.637091  0.001992  0.307985  0.412458  0.001469  0.892539  0.002
H  H36  1  0.33098699  0.96919398  0.05384414  1  0.624102  0.000268  0.328391  0.410846  0.000122  0.871975  0.0
H  H37  1  0.66899772  0.46920410  0.44615899  1  0.624075  0.000269  0.328257  0.410793  0.000123  0.871869  0.0
H  H38  1  0.66900725  0.03080328  0.94615497  1  0.624168  0.000269  0.328305  0.410709  0.000123  0.872083  0.0
H  H39  1  0.33097614  0.53081210  0.55384506  1  0.62413  0.000268  0.328276  0.41069  0.000122  0.872098  0.0
H  H40  1  0.71425997  0.87857880  0.03392377  1  0.608847  -0.000407  0.311998  0.389416  -0.000398  0.895848  0.0
H  H41  1  0.28573464  0.37855218  0.46607931  1  0.608636  -0.000408  0.31201  0.389476  -0.000399  0.895835  0.0
H  H42  1  0.28575223  0.12145354  0.96607779  1  0.608505  -0.000408  0.312019  0.389366  -0.000399  0.895933  0.0
H  H43  1  0.71426038  0.62144087  0.53392016  1  0.608547  -0.000408  0.312008  0.38936  -0.000399  0.895932  0.0
H  H44  1  0.75949372  0.81399003  0.99725637  1  0.644291  -0.000297  0.276823  0.368086  -0.000359  0.991088  0.0
H  H45  1  0.24049825  0.31397805  0.50275142  1  0.644652  -0.000296  0.276813  0.367989  -0.000359  0.991206  0.0
H  H46  1  0.24051060  0.18602197  0.00275136  1  0.644585  -0.000296  0.27677  0.368015  -0.00036  0.99117  0.0
H  H47  1  0.75948114  0.68602062  0.49724766  1  0.644626  -0.000296  0.276774  0.36797  -0.00036  0.991223  0.0
H  H48  1  0.24044632  0.52941733  0.13265061  1  0.145935  0.002095  0.12197  0.097797  0.000734  1.0038  0.002
H  H49  1  0.75954732  0.02940808  0.36734681  1  0.145703  0.002097  0.121966  0.097722  0.000734  1.004054  0.002
H  H50  1  0.75960106  0.47059255  0.86735062  1  0.145726  0.002094  0.121913  0.097771  0.000733  1.00385  0.002
H  H51  1  0.24043130  0.97058988  0.63265126  1  0.145928  0.002095  0.121939  0.097681  0.000733  1.004009  0.002
H  H52  1  0.09658203  0.49770657  0.97853891  1  0.140677  0.001332  0.111012  0.121311  0.000702  1.004151  0.001
H  H53  1  0.90340748  0.99769815  0.52145638  1  0.140678  0.001332  0.110948  0.121273  0.000702  1.004363  0.001
H  H54  1  0.90338239  0.50227596  0.02147122  1  0.141315  0.001333  0.11108  0.121281  0.000702  1.004127  0.001
H  H55  1  0.09657818  0.00230332  0.47854103  1  0.140666  0.001331  0.111021  0.121305  0.000702  1.004304  0.001
H  H56  1  0.98646071  0.92492515  0.97304135  1  0.13093  0.000366  0.113962  0.123408  0.000156  0.995965  0.0
H  H57  1  0.01353408  0.42491517  0.52695203  1  0.131123  0.000366  0.114002  0.123546  0.000156  0.995853  0.0
H  H58  1  0.01354601  0.07508755  0.02696095  1  0.130785  0.000366  0.113968  0.123436  0.000156  0.995924  0.0
H  H59  1  0.98645481  0.57508279  0.47303607  1  0.130824  0.000366  0.114003  0.123554  0.000156  0.995856  0.0
H  H60  1  0.93968335  0.50431094  0.32642873  1  0.137004  0.002155  0.117765  0.094913  0.000695  1.031685  0.002
H  H61  1  0.06031796  0.00432402  0.17357561  1  0.136435  0.002156  0.117783  0.094837  0.000695  1.031836  0.002
H  H62  1  0.06031322  0.49567580  0.67357147  1  0.13689  0.002162  0.117756  0.094836  0.000698  1.031454  0.002
H  H63  1  0.93968722  0.99569149  0.82642466  1  0.136614  0.002159  0.117725  0.094822  0.000696  1.031596  0.002
H  H64  1  0.96280406  0.64024460  0.27601468  1  0.081754  0.001282  0.113819  0.123336  0.000629  0.998873  0.001
H  H65  1  0.03718744  0.14025101  0.22399420  1  0.082279  0.001282  0.113833  0.123388  0.000629  0.998791  0.001
H  H66  1  0.03721350  0.35975406  0.72399725  1  0.082243  0.001283  0.113875  0.123454  0.00063  0.998578  0.001
H  H67  1  0.96277091  0.85976660  0.77599836  1  0.082151  0.001282  0.113921  0.123533  0.000629  0.998683  0.001
H  H68  1  0.05833888  0.63672880  0.02487987  1  0.109762  0.002002  0.12006  0.09496  0.000691  1.012017  0.001
H  H69  1  0.94165197  0.13671622  0.47511528  1  0.110022  0.002004  0.119996  0.09495  0.000691  1.012114  0.001
H  H70  1  0.94164430  0.36326005  0.97513015  1  0.10954  0.002005  0.120073  0.094993  0.000692  1.011858  0.001
H  H71  1  0.05834623  0.86326982  0.52487944  1  0.109755  0.002001  0.120075  0.094989  0.00069  1.012045  0.001
H  H72  1  0.54826145  0.81206272  0.11166223  1  0.084608  0.000778  0.106594  0.111293  0.000378  0.991111  0.0
H  H73  1  0.45174083  0.31206727  0.38833577  1  0.084564  0.000778  0.106544  0.111223  0.000378  0.991187  0.0
H  H74  1  0.45175387  0.18795208  0.88833916  1  0.084537  0.000778  0.106633  0.11131  0.000378  0.991312  0.0
H  H75  1  0.54825498  0.68793069  0.61166243  1  0.084396  0.000777  0.106514  0.111129  0.000378  0.991285  0.0
H  H76  1  0.11850586  0.33038791  0.25638722  1  0.119873  0.002096  0.122692  0.097812  0.000715  0.99982  0.002
H  H77  1  0.88149883  0.83038556  0.24360988  1  0.119919  0.002095  0.122711  0.097865  0.000715  0.999867  0.002
H  H78  1  0.88150871  0.66961215  0.74361152  1  0.119877  0.002091  0.122761  0.097938  0.000713  1.000234  0.002
H  H79  1  0.11852358  0.16960679  0.75638661  1  0.119871  0.002092  0.122661  0.097782  0.000714  1.000086  0.002
H  H80  1  0.14428711  0.45856728  0.20147882  1  0.10081  0.001183  0.11208  0.12177  0.000593  0.999943  0.0
H  H81  1  0.85571479  0.95855132  0.29852284  1  0.100686  0.001182  0.112078  0.121778  0.000593  0.999999  0.0
H  H82  1  0.85574692  0.54145243  0.79852865  1  0.101012  0.00118  0.112144  0.121929  0.000592  1.000448  0.0
H  H83  1  0.14429666  0.04142700  0.70147609  1  0.10096  0.001182  0.112082  0.121902  0.000593  1.000158  0.0
H  H84  1  0.32288811  0.93916518  0.87664216  1  0.07008  4.5e-05  0.093403  0.136457  1.4e-05  0.99855  0.0
H  H85  1  0.67714396  0.43910134  0.62337770  1  0.069563  4.5e-05  0.093405  0.136472  1.4e-05  0.998482  0.0
H  H86  1  0.67714344  0.06087769  0.12337759  1  0.06964  4.5e-05  0.093356  0.136374  1.4e-05  0.998358  0.0
H  H87  1  0.32287442  0.56084541  0.37663068  1  0.070113  4.5e-05  0.093352  0.13637  1.4e-05  0.998462  0.0
H  H88  1  0.27416600  0.05307571  0.88837892  1  0.094506  0.000418  0.096613  0.146663  6.8e-05  1.017713  0.0
H  H89  1  0.72585400  0.55302019  0.61164070  1  0.094991  0.000418  0.096522  0.146396  6.9e-05  1.017852  0.0
H  H90  1  0.72585540  0.94696645  0.11163906  1  0.095405  0.000418  0.096518  0.146379  6.9e-05  1.01799  0.0
H  H91  1  0.27415105  0.44693918  0.38837131  1  0.094712  0.000418  0.096566  0.14656  6.8e-05  1.017817  0.0
H  H92  1  0.19725305  0.97905105  0.85246072  1  0.05969  0.000307  0.094922  0.144193  6.9e-05  0.999419  0.0
H  H93  1  0.80278863  0.47899600  0.64754907  1  0.059458  0.000308  0.09494  0.14405  6.9e-05  0.999225  0.0
H  H94  1  0.80278480  0.02098901  0.14755410  1  0.059269  0.000307  0.094883  0.144026  6.9e-05  0.99912  0.0
H  H95  1  0.19723291  0.52096267  0.35245619  1  0.059702  0.000307  0.095064  0.144176  6.9e-05  0.999307  0.0
H  H96  1  0.38016214  0.76771519  0.99020253  1  0.051388  4.1e-05  0.096012  0.14152  8e-06  0.994135  0.0
H  H97  1  0.61982822  0.26773286  0.50979677  1  0.050837  4.1e-05  0.096056  0.141593  8e-06  0.994067  0.0
H  H98  1  0.61983920  0.23226804  0.00979103  1  0.050903  4.1e-05  0.095957  0.141475  8e-06  0.994049  0.0
H  H99  1  0.38015970  0.73228053  0.49020890  1  0.050957  4.1e-05  0.095995  0.141542  8e-06  0.994226  0.0
H  H100  1  0.27621947  0.70564734  0.01208837  1  0.040682  0.000416  0.097353  0.147414  0.000122  0.989198  0.0
H  H101  1  0.72374656  0.20564569  0.48790716  1  0.041249  0.000416  0.097308  0.147324  0.000122  0.989243  0.0
H  H102  1  0.72376620  0.29434992  0.98790773  1  0.041138  0.000416  0.097294  0.147289  0.000122  0.989245  0.0
H  H103  1  0.27622971  0.79435648  0.51209080  1  0.041036  0.000416  0.097318  0.147291  0.000122  0.989199  0.0
H  H104  1  0.33256827  0.80202162  0.04090260  1  0.085816  0.000372  0.093138  0.137737  2.1e-05  1.024135  0.0
H  H105  1  0.66741758  0.30202784  0.45909336  1  0.085845  0.000372  0.093094  0.137728  2.1e-05  1.024089  0.0
H  H106  1  0.66744553  0.19796021  0.95909480  1  0.085589  0.000372  0.093049  0.137652  2.1e-05  1.024305  0.0
H  H107  1  0.33256026  0.69796942  0.54090369  1  0.085748  0.000372  0.093096  0.137698  2.1e-05  1.02416  0.0
H  H108  1  0.72649147  0.56698341  0.23645025  1  0.026138  0.000112  0.088804  0.129828  4.6e-05  1.011473  0.0
H  H109  1  0.27350074  0.06699300  0.26354443  1  0.026312  0.000112  0.088757  0.129729  4.6e-05  1.011512  0.0
H  H110  1  0.27352871  0.43299842  0.76353570  1  0.025477  0.000113  0.088807  0.129747  4.6e-05  1.011618  0.0
H  H111  1  0.72647399  0.93300567  0.73645150  1  0.025547  0.000113  0.088837  0.12982  4.6e-05  1.011526  0.0
H  H112  1  0.79668289  0.67498351  0.23686944  1  0.044989  0.000274  0.094048  0.137142  0.000136  1.011505  0.0
H  H113  1  0.20331820  0.17499314  0.26312906  1  0.044852  0.000274  0.09405  0.137176  0.000137  1.011543  0.0
H  H114  1  0.20334350  0.32499761  0.76312103  1  0.044847  0.000274  0.094097  0.137233  0.000136  1.011491  0.0
H  H115  1  0.79666510  0.82500552  0.73686988  1  0.045029  0.000274  0.09408  0.137251  0.000136  1.011578  0.0
H  H116  1  0.79780221  0.60039390  0.19149246  1  0.031977  0.000187  0.09324  0.138166  2.5e-05  0.990936  0.0
H  H117  1  0.20218541  0.10039554  0.30850195  1  0.032128  0.000187  0.093244  0.138172  2.5e-05  0.990882  0.0
H  H118  1  0.20220158  0.39960265  0.80849110  1  0.032472  0.000187  0.093263  0.138243  2.5e-05  0.991065  0.0
H  H119  1  0.79780102  0.89960663  0.69149615  1  0.032096  0.000187  0.09329  0.138233  2.5e-05  0.990988  0.0
H  H120  1  0.27740491  0.38127860  0.09146919  1  0.131134  0.00089  0.113441  0.124202  0.000442  0.992377  0.0
H  H121  1  0.72258667  0.88126837  0.40852592  1  0.130833  0.000891  0.113448  0.124261  0.000442  0.992271  0.0
H  H122  1  0.72266365  0.61874813  0.90852550  1  0.123467  0.00089  0.11343  0.124176  0.000442  0.992499  0.0
H  H123  1  0.27735435  0.11875555  0.59147858  1  0.123281  0.000891  0.113458  0.124233  0.000442  0.992041  0.0
H  H124  1  0.40870714  0.63418385  0.25362934  1  0.071471  -1.2e-05  0.093055  0.134044  -2.2e-05  1.002626  0.0
H  H125  1  0.59129535  0.13418544  0.24637320  1  0.071036  -1.2e-05  0.093047  0.134052  -2.2e-05  1.002779  0.0
H  H126  1  0.59132618  0.36580780  0.74637091  1  0.071227  -1.2e-05  0.093101  0.134174  -2.2e-05  1.002537  0.0
H  H127  1  0.40869189  0.86582165  0.75362232  1  0.071308  -1.2e-05  0.093123  0.134218  -2.2e-05  1.00273  0.0
H  H128  1  0.33193374  0.60308024  0.20371261  1  0.084807  0.000165  0.096701  0.147679  7e-05  0.998641  0.0
H  H129  1  0.66806083  0.10307888  0.29629093  1  0.083708  0.000165  0.096672  0.147652  7e-05  0.998601  0.0
H  H130  1  0.66807764  0.39691211  0.79629218  1  0.083635  0.000165  0.096722  0.147741  7e-05  0.998642  0.0
H  H131  1  0.33194051  0.89692188  0.70370263  1  0.08355  0.000165  0.096644  0.147637  7e-05  0.998671  0.0
H  H132  1  0.32565553  0.71830693  0.22362171  1  0.037863  0.000264  0.090598  0.1311  7.6e-05  0.994029  0.0
H  H133  1  0.67434487  0.21830653  0.27637995  1  0.037793  0.000264  0.090611  0.131099  7.6e-05  0.994026  0.0
H  H134  1  0.67437622  0.28169103  0.77637913  1  0.037651  0.000264  0.090603  0.131117  7.7e-05  0.993945  0.0
H  H135  1  0.32563060  0.78170335  0.72361928  1  0.037607  0.000264  0.09055  0.131102  7.6e-05  0.994079  0.0
C  C136  1  0.64895001  0.73375230  0.15908045  1  -0.083895  0.012148  -0.020856  -0.138286  0.007229  3.933102  0.01
C  C137  1  0.35105044  0.23375402  0.34092183  1  -0.083575  0.012153  -0.020806  -0.138232  0.007233  3.932867  0.01
C  C138  1  0.35105831  0.26624496  0.84091865  1  -0.08367  0.012153  -0.02081  -0.138439  0.007232  3.932866  0.01
C  C139  1  0.64894613  0.76623833  0.65907934  1  -0.083714  0.012151  -0.02093  -0.138511  0.007231  3.933111  0.01
C  C140  1  0.20952359  0.51855744  0.09859892  1  0.439665  -0.005546  0.048201  0.09583  -0.006783  3.931246  -0.004
C  C141  1  0.79046850  0.01855353  0.40139452  1  0.439903  -0.005543  0.048376  0.096242  -0.006779  3.931355  -0.004
C  C142  1  0.79050741  0.48144754  0.90139894  1  0.439926  -0.00555  0.048237  0.095828  -0.006787  3.931026  -0.004
C  C143  1  0.20950779  0.98145636  0.59860213  1  0.438894  -0.005545  0.048212  0.096068  -0.006783  3.931465  -0.004
C  C144  1  0.10293218  0.95826810  0.93024003  1  0.015254  0.007517  -0.022375  -0.150433  0.00431  3.953072  0.006
C  C145  1  0.89707280  0.45826249  0.56976060  1  0.01508  0.007517  -0.022479  -0.150729  0.00431  3.95271  0.006
C  C146  1  0.89708465  0.04174460  0.06976729  1  0.016171  0.007517  -0.022348  -0.150253  0.00431  3.952468  0.006
C  C147  1  0.10292460  0.54173407  0.43023604  1  0.016169  0.007518  -0.022413  -0.150329  0.004311  3.952648  0.006
C  C148  1  0.12935148  0.50268547  0.01265906  1  -0.028425  0.005696  -0.078179  -0.142655  0.003065  3.957404  0.004
C  C149  1  0.87063427  0.00267675  0.48733706  1  -0.027997  0.005698  -0.078054  -0.142733  0.003066  3.957316  0.004
C  C150  1  0.87063018  0.49730127  0.98734633  1  -0.029177  0.005695  -0.078151  -0.142649  0.003065  3.957353  0.004
C  C151  1  0.12933887  0.99732192  0.51266075  1  -0.029279  0.005696  -0.078229  -0.142649  0.003065  3.95726  0.004
C  C152  1  0.46113563  0.74220302  0.15860092  1  -0.074481  0.011104  -0.023796  -0.147017  0.00659  3.951764  0.009
C  C153  1  0.53885705  0.24220299  0.34139871  1  -0.074749  0.011107  -0.023826  -0.147037  0.006592  3.951932  0.009
C  C154  1  0.53887659  0.25779354  0.84139804  1  -0.074623  0.011103  -0.023993  -0.14715  0.00659  3.951534  0.009
C  C155  1  0.46112861  0.75779146  0.65859870  1  -0.0743  0.011106  -0.023874  -0.147206  0.006591  3.951894  0.009
C  C156  1  0.06626849  0.91303859  0.96564244  1  -0.121451  0.007965  -0.062585  -0.045776  0.004263  3.959791  0.005
C  C157  1  0.93373171  0.41303594  0.53435349  1  -0.121831  0.007967  -0.06251  -0.045727  0.004264  3.959452  0.005
C  C158  1  0.93374526  0.08696779  0.03436050  1  -0.123059  0.00797  -0.062501  -0.045657  0.004265  3.959414  0.005
C  C159  1  0.06625636  0.58696412  0.46563784  1  -0.122727  0.007968  -0.06264  -0.04599  0.004264  3.959687  0.005
C  C160  1  0.98601138  0.49778287  0.29884513  1  0.446901  -0.005002  0.04281  0.080834  -0.00612  3.936211  -0.003
C  C161  1  0.01398750  0.99778963  0.20115665  1  0.4481  -0.005009  0.042769  0.08101  -0.006123  3.936301  -0.003
C  C162  1  0.01397575  0.50221369  0.70116051  1  0.447579  -0.005002  0.042732  0.080749  -0.006115  3.937168  -0.003
C  C163  1  0.98602164  0.00222307  0.79883825  1  0.44753  -0.005005  0.042911  0.081133  -0.00612  3.936443  -0.003
C  C164  1  0.03120147  0.02762039  0.90667445  1  1.537363  0.009673  0.226503  0.614061  0.007728  4.140277  0.008
C  C165  1  0.96879603  0.52761718  0.59332101  1  1.536867  0.009666  0.226589  0.614374  0.007726  4.140073  0.008
C  C166  1  0.96881151  0.97238669  0.09332716  1  1.537101  0.009676  0.226479  0.613996  0.00773  4.140637  0.008
C  C167  1  0.03119358  0.47238008  0.40667234  1  1.537135  0.00967  0.226521  0.614134  0.007727  4.140652  0.008
C  C168  1  0.08503333  0.81551400  0.03117648  1  1.534324  0.0075  0.223632  0.603562  0.00627  4.149983  0.006
C  C169  1  0.91495960  0.31551224  0.46882043  1  1.534343  0.007501  0.223653  0.60358  0.006271  4.150458  0.006
C  C170  1  0.91497495  0.18448396  0.96882556  1  1.534457  0.007507  0.223577  0.603523  0.006274  4.150267  0.006
C  C171  1  0.08502458  0.68448923  0.53116974  1  1.534199  0.007502  0.223614  0.603588  0.006272  4.15018  0.006
C  C172  1  0.35599037  0.77018017  0.13703597  1  1.545669  -0.00183  0.217196  0.612254  -0.00291  4.15935  -0.003
C  C173  1  0.64400238  0.27018096  0.36296427  1  1.545345  -0.001828  0.217401  0.612405  -0.002908  4.159581  -0.003
C  C174  1  0.64401790  0.22982270  0.86296672  1  1.546127  -0.001829  0.217273  0.612297  -0.002908  4.159513  -0.003
C  C175  1  0.35598488  0.72981560  0.63702962  1  1.545091  -0.00183  0.217326  0.612152  -0.002907  4.159685  -0.003
C  C176  1  0.06636713  0.63756450  0.20275882  1  1.56359  -0.001547  0.212932  0.568153  -0.002125  4.187191  -0.002
C  C177  1  0.93362912  0.13755582  0.29724343  1  1.563597  -0.001546  0.212965  0.568924  -0.002125  4.18718  -0.002
C  C178  1  0.93364738  0.36243977  0.79724514  1  1.563885  -0.001549  0.212778  0.5677  -0.002121  4.187207  -0.002
C  C179  1  0.06636435  0.86243513  0.70275531  1  1.563365  -0.001547  0.212853  0.568842  -0.00212  4.18709  -0.002
C  C180  1  0.99826911  0.57246843  0.27076939  1  0.076306  0.005914  -0.074796  -0.132041  0.003219  3.945132  0.005
C  C181  1  0.00173160  0.07247253  0.22923676  1  0.075459  0.005916  -0.0747  -0.131044  0.00322  3.946078  0.005
C  C182  1  0.00174222  0.42754637  0.72923964  1  0.075454  0.005918  -0.074755  -0.131989  0.00322  3.945909  0.005
C  C183  1  0.99825174  0.92754718  0.77075859  1  0.07576  0.005917  -0.074823  -0.131214  0.00322  3.946751  0.005
C  C184  1  0.23393011  0.83891214  0.98180313  1  0.56849  0.0083  0.127153  0.308228  0.004795  3.957411  0.006
C  C185  1  0.76606516  0.33890473  0.51819530  1  0.569545  0.008302  0.127189  0.308449  0.004797  3.957425  0.006
C  C186  1  0.76608128  0.16109143  0.01820101  1  0.569851  0.0083  0.127143  0.308415  0.004797  3.957261  0.006
C  C187  1  0.23392289  0.66109183  0.48179830  1  0.568718  0.008299  0.127125  0.30834  0.004795  3.957251  0.006
C  C188  1  0.74713975  0.76348572  0.14069203  1  1.535612  -0.001409  0.214827  0.603844  -0.002234  4.168865  -0.002
C  C189  1  0.25285449  0.26347857  0.35931383  1  1.536024  -0.001409  0.214678  0.6038  -0.002236  4.169065  -0.002
C  C190  1  0.25286149  0.23652768  0.85931034  1  1.535881  -0.001411  0.21473  0.603675  -0.002235  4.168992  -0.002
C  C191  1  0.74713584  0.73651869  0.64068608  1  1.535724  -0.001411  0.214703  0.603696  -0.002237  4.16889  -0.002
C  C192  1  0.13134770  0.85473041  0.99266769  1  0.006344  0.007359  -0.026021  -0.16493  0.004243  3.973571  0.006
C  C193  1  0.86864998  0.35472929  0.50732855  1  0.006661  0.007356  -0.026117  -0.16509  0.004242  3.973648  0.006
C  C194  1  0.86865589  0.14527247  0.00733414  1  0.006935  0.007356  -0.02603  -0.16515  0.004243  3.973705  0.006
C  C195  1  0.13134277  0.64527850  0.49266364  1  0.006682  0.007356  -0.026  -0.165027  0.004243  3.973566  0.006
C  C196  1  0.18926384  0.42888549  0.03187722  1  -0.048906  -0.001141  0.002774  0.016998  -0.003303  3.94153  0.0
C  C197  1  0.81072472  0.92887827  0.46812061  1  -0.049021  -0.001131  0.002748  0.017152  -0.003292  3.941659  0.0
C  C198  1  0.81074678  0.57112230  0.96812525  1  -0.049228  -0.001138  0.002829  0.017191  -0.0033  3.940937  0.0
C  C199  1  0.18924054  0.07113232  0.53188370  1  -0.050701  -0.001137  0.00288  0.016922  -0.003302  3.941623  0.0
C  C200  1  0.05598539  0.55939439  0.23505913  1  -0.064354  0.004661  0.001296  0.016369  0.000995  3.944669  0.005
C  C201  1  0.94401452  0.05939060  0.26494537  1  -0.063957  0.004655  0.001268  0.013205  0.00099  3.949112  0.005
C  C202  1  0.94404238  0.44060848  0.76494837  1  -0.06354  0.004658  0.001375  0.016438  0.000996  3.94509  0.005
C  C203  1  0.05597347  0.94060596  0.73505410  1  -0.063917  0.004657  0.001288  0.013154  0.000993  3.949363  0.005
C  C204  1  0.10935696  0.58017285  0.03804054  1  0.440024  -0.005426  0.04534  0.081384  -0.006459  3.946051  -0.004
C  C205  1  0.89064001  0.08017070  0.46195107  1  0.439438  -0.005424  0.045568  0.081709  -0.006459  3.94596  -0.004
C  C206  1  0.89063016  0.41982300  0.96196607  1  0.439922  -0.005418  0.045328  0.08135  -0.00645  3.946021  -0.004
C  C207  1  0.10935353  0.91982656  0.53804018  1  0.440559  -0.005425  0.045356  0.081477  -0.006457  3.945784  -0.004
C  C208  1  0.65087181  0.67257038  0.19547265  1  0.566729  0.003986  0.12694  0.307919  0.002298  3.941923  0.003
C  C209  1  0.34912067  0.17256977  0.30452676  1  0.567156  0.003987  0.126907  0.307923  0.002299  3.9422  0.003
C  C210  1  0.34914045  0.32742127  0.80452338  1  0.566249  0.003986  0.12693  0.308195  0.002298  3.941708  0.003
C  C211  1  0.65086576  0.82742047  0.69547199  1  0.566932  0.003985  0.126891  0.308126  0.002298  3.942048  0.003
C  C212  1  0.20580960  0.93834437  0.92074652  1  0.524297  0.008301  0.133215  0.324526  0.004783  3.930302  0.006
C  C213  1  0.79420150  0.43831349  0.57926064  1  0.523453  0.008303  0.133217  0.324776  0.004784  3.929812  0.006
C  C214  1  0.79420795  0.06168376  0.07926574  1  0.523343  0.008305  0.133149  0.324434  0.004786  3.929959  0.006
C  C215  1  0.20580365  0.56166834  0.42074224  1  0.524522  0.008302  0.133222  0.324446  0.004785  3.929919  0.006
C  C216  1  0.55224914  0.76713569  0.14059294  1  0.057708  0.003163  -0.070118  -0.067667  0.00166  3.973352  0.002
C  C217  1  0.44774516  0.26714018  0.35940835  1  0.058233  0.003162  -0.07013  -0.067722  0.00166  3.973585  0.002
C  C218  1  0.44775994  0.23286438  0.85940750  1  0.05787  0.003162  -0.070116  -0.067613  0.00166  3.973128  0.002
C  C219  1  0.55224910  0.73285077  0.64058880  1  0.057732  0.003162  -0.069995  -0.067375  0.00166  3.97309  0.002
C  C220  1  0.08506141  0.40005966  0.25901863  1  0.456557  -0.005722  0.049867  0.097419  -0.007023  3.93562  -0.004
C  C221  1  0.91493798  0.90006035  0.24098202  1  0.456407  -0.005719  0.049957  0.09748  -0.007021  3.935609  -0.004
C  C222  1  0.91494220  0.59996005  0.74098254  1  0.456338  -0.005725  0.049711  0.097065  -0.00703  3.934637  -0.004
C  C223  1  0.08508519  0.09994743  0.75901646  1  0.456083  -0.005722  0.049992  0.097672  -0.007025  3.934524  -0.004
C  C224  1  0.09976016  0.47104523  0.22922811  1  -0.020272  0.005783  -0.07894  -0.146116  0.003096  3.953376  0.005
C  C225  1  0.90023785  0.97103460  0.27077432  1  -0.02028  0.005781  -0.078963  -0.145134  0.003096  3.954368  0.005
C  C226  1  0.90025032  0.52895975  0.77078773  1  -0.020451  0.005786  -0.07895  -0.146139  0.003099  3.952739  0.005
C  C227  1  0.09977989  0.02895003  0.72922098  1  -0.020451  0.005784  -0.078922  -0.145276  0.003098  3.953601  0.005
C  C228  1  0.20289248  0.33898903  0.00727138  1  1.592361  -0.001628  0.213804  0.576255  -0.002289  4.185624  -0.002
C  C229  1  0.79709186  0.83899212  0.49273032  1  1.592745  -0.001623  0.21377  0.57622  -0.002286  4.185519  -0.002
C  C230  1  0.79711656  0.66101244  0.99273330  1  1.592398  -0.001625  0.213709  0.575985  -0.002286  4.185576  -0.002
C  C231  1  0.20287731  0.16101847  0.50727319  1  1.592872  -0.001624  0.213757  0.576105  -0.002286  4.185787  -0.002
C  C232  1  0.25280622  0.97920883  0.88219520  1  -0.103458  4.7e-05  -0.241912  -0.449639  -9.7e-05  3.930706  0.0
C  C233  1  0.74722135  0.47915322  0.61781819  1  -0.103249  4.7e-05  -0.241885  -0.449344  -9.7e-05  3.930441  0.0
C  C234  1  0.74722538  0.02082912  0.11782032  1  -0.103451  4.7e-05  -0.241781  -0.449107  -9.7e-05  3.93011  0.0
C  C235  1  0.25279079  0.52080195  0.38218826  1  -0.103876  4.7e-05  -0.241962  -0.449427  -9.7e-05  3.93029  0.0
C  C236  1  0.31046963  0.77514743  0.00759539  1  -0.070322  6.3e-05  -0.240024  -0.444698  -3.8e-05  3.931071  0.0
C  C237  1  0.68951300  0.27515680  0.49240275  1  -0.070588  6.3e-05  -0.239945  -0.444676  -3.8e-05  3.931141  0.0
C  C238  1  0.68953166  0.22483930  0.99240241  1  -0.069915  6.3e-05  -0.239846  -0.444489  -3.8e-05  3.930878  0.0
C  C239  1  0.31047031  0.72484678  0.50759488  1  -0.070118  6.3e-05  -0.239925  -0.4446  -3.8e-05  3.930937  0.0
C  C240  1  0.74832455  0.62552429  0.21611219  1  -0.017338  0.000149  -0.242228  -0.444264  9.9e-05  3.968751  0.0
C  C241  1  0.25167012  0.12553349  0.28388805  1  -0.017578  0.000149  -0.242181  -0.444199  9.9e-05  3.968923  0.0
C  C242  1  0.25169245  0.37445824  0.78387850  1  -0.016676  0.000149  -0.242268  -0.444433  9.9e-05  3.969256  0.0
C  C243  1  0.74831395  0.87446658  0.71611157  1  -0.016589  0.000149  -0.242274  -0.44448  9.9e-05  3.969235  0.0
C  C244  1  0.23048741  0.43783453  0.07573058  1  0.008874  0.00632  -0.076045  -0.142426  0.00347  3.950587  0.005
C  C245  1  0.76950431  0.93781811  0.42426640  1  0.008428  0.006324  -0.076095  -0.142679  0.003472  3.950056  0.005
C  C246  1  0.76955688  0.56219079  0.92426724  1  0.016522  0.006323  -0.076045  -0.142362  0.00347  3.950164  0.005
C  C247  1  0.23044456  0.06218616  0.57573552  1  0.018556  0.006317  -0.076093  -0.142482  0.003469  3.950644  0.005
C  C248  1  0.47020683  0.68488811  0.19648256  1  0.577015  0.003593  0.126316  0.306252  0.002056  3.956588  0.003
C  C249  1  0.52979349  0.18489056  0.30351785  1  0.576477  0.003595  0.126438  0.306438  0.002056  3.956317  0.003
C  C250  1  0.52981246  0.31509862  0.80351346  1  0.57581  0.003593  0.126657  0.306616  0.002055  3.955795  0.003
C  C251  1  0.47019842  0.81509898  0.69647985  1  0.576165  0.003593  0.126534  0.306495  0.002055  3.956342  0.003
C  C252  1  0.37892045  0.65888425  0.22082581  1  -0.105119  5.1e-05  -0.240059  -0.442065  -5e-05  3.957875  0.0
C  C253  1  0.62107511  0.15888905  0.27917377  1  -0.10355  5.1e-05  -0.240171  -0.44219  -5e-05  3.958103  0.0
C  C254  1  0.62110037  0.34110459  0.77917387  1  -0.103307  5.1e-05  -0.240252  -0.442418  -5e-05  3.957898  0.0
C  C255  1  0.37891212  0.84111313  0.72082274  1  -0.103487  5.1e-05  -0.240073  -0.442257  -5e-05  3.958101  0.0
N  N256  1  0.02938609  0.41310730  0.29337581  1  -1.217039  0.069132  -0.331633  -0.231569  0.039496  3.601228  0.062
N  N257  1  0.97061413  0.91311677  0.20662356  1  -1.21744  0.069134  -0.331736  -0.231636  0.039496  3.601307  0.062
N  N258  1  0.97061522  0.58687593  0.70662069  1  -1.217803  0.069138  -0.331625  -0.231412  0.039498  3.601173  0.062
N  N259  1  0.02940278  0.08688470  0.79337594  1  -1.216949  0.069132  -0.33183  -0.231814  0.039496  3.601195  0.062
N  N260  1  0.26746338  0.87910870  0.94603979  1  -1.195122  0.002025  -0.331675  -0.39582  0.000241  3.234775  0.0
N  N261  1  0.73254757  0.37908223  0.55396485  1  -1.194691  0.002026  -0.331606  -0.395928  0.000241  3.234878  0.0
N  N262  1  0.73255500  0.12091452  0.05396826  1  -1.19503  0.002026  -0.331582  -0.395867  0.000241  3.234973  0.0
N  N263  1  0.26745603  0.62090241  0.44603633  1  -1.195014  0.002026  -0.33164  -0.395777  0.000241  3.234911  0.0
N  N264  1  0.14874454  0.58833613  0.08037892  1  -1.226413  0.069217  -0.328985  -0.230269  0.039483  3.587678  0.062
N  N265  1  0.85124459  0.08831992  0.41961754  1  -1.225369  0.069216  -0.329272  -0.230785  0.039486  3.58885  0.062
N  N266  1  0.85126682  0.41166745  0.91962718  1  -1.225824  0.069211  -0.329047  -0.230354  0.03948  3.587559  0.062
N  N267  1  0.14874732  0.91166752  0.58038049  1  -1.225599  0.06921  -0.328959  -0.23039  0.039481  3.587552  0.062
N  N268  1  0.56306132  0.65120653  0.21348990  1  -1.203901  0.00306  -0.328977  -0.380512  0.001382  3.25659  0.002
N  N269  1  0.43693031  0.15121470  0.28650885  1  -1.204115  0.003062  -0.328951  -0.380539  0.001383  3.256446  0.002
N  N270  1  0.43695173  0.34877460  0.78650453  1  -1.20349  0.003061  -0.32914  -0.380738  0.001383  3.255965  0.002
N  N271  1  0.56305536  0.84877905  0.71348725  1  -1.203662  0.003061  -0.329093  -0.38064  0.001383  3.256272  0.002
O  O272  1  0.14686499  0.79921908  0.06651435  1  -1.15451  0.089254  -0.314573  -0.596704  0.04921  2.554249  0.078
O  O273  1  0.85313102  0.29921656  0.43348175  1  -1.154762  0.089246  -0.314607  -0.596741  0.049205  2.554234  0.078
O  O274  1  0.85314174  0.20077819  0.93348664  1  -1.154728  0.089257  -0.314542  -0.596672  0.049211  2.554161  0.078
O  O275  1  0.14685471  0.70078211  0.56650914  1  -1.154793  0.089258  -0.314568  -0.596625  0.04921  2.554114  0.078
O  O276  1  0.07270417  0.09987255  0.89050821  1  -1.161346  0.076005  -0.304642  -0.583761  0.042334  2.531156  0.065
O  O277  1  0.92727863  0.59986025  0.60949363  1  -1.160925  0.076035  -0.304546  -0.583847  0.042344  2.530921  0.065
O  O278  1  0.92730025  0.90013804  0.10948941  1  -1.161131  0.076011  -0.304703  -0.583946  0.042336  2.531516  0.065
O  O279  1  0.07270231  0.40013491  0.39050682  1  -1.160852  0.076016  -0.304617  -0.583755  0.042337  2.531346  0.065
O  O280  1  0.97285710  0.71332681  0.11140978  1  -1.109866  0.223962  -0.552978  -0.848332  0.126769  2.365879  0.201
O  O281  1  0.02713861  0.21332110  0.38859101  1  -1.109815  0.223955  -0.553062  -0.848478  0.126765  2.365653  0.201
O  O282  1  0.02714336  0.28667396  0.88859320  1  -1.109744  0.223975  -0.552993  -0.848436  0.126777  2.36603  0.201
O  O283  1  0.97284784  0.78666704  0.61140513  1  -1.109723  0.223958  -0.552939  -0.848359  0.126772  2.365734  0.201
O  O284  1  0.28998616  0.70428860  0.13214788  1  -1.122554  0.063092  -0.296462  -0.530585  0.034802  2.391784  0.059
O  O285  1  0.71000172  0.20428872  0.36785127  1  -1.122496  0.063089  -0.296612  -0.530811  0.034798  2.392092  0.059
O  O286  1  0.71001350  0.29571427  0.86785670  1  -1.122706  0.063074  -0.296461  -0.530615  0.034792  2.39191  0.059
O  O287  1  0.28998711  0.79570082  0.63214172  1  -1.122464  0.063076  -0.29646  -0.530507  0.034793  2.392075  0.059
O  O288  1  0.01779698  0.71304298  0.20952581  1  -1.13968  0.068727  -0.307852  -0.54663  0.037433  2.349306  0.063
O  O289  1  0.98219795  0.21304088  0.29047430  1  -1.139671  0.068735  -0.307978  -0.546664  0.037438  2.348722  0.063
O  O290  1  0.98219962  0.28694937  0.79047146  1  -1.1394  0.068736  -0.307763  -0.546448  0.037437  2.349063  0.063
O  O291  1  0.01779706  0.78694585  0.70952615  1  -1.139213  0.068731  -0.307831  -0.546504  0.037434  2.348374  0.063
O  O292  1  0.12069928  0.61979685  0.17134687  1  -1.140598  0.07101  -0.305003  -0.550812  0.038854  2.374326  0.065
O  O293  1  0.87929850  0.11978844  0.32865352  1  -1.140858  0.071005  -0.304945  -0.550537  0.03885  2.373879  0.065
O  O294  1  0.87931370  0.38020462  0.82865506  1  -1.141337  0.071003  -0.304975  -0.550607  0.038846  2.374481  0.065
O  O295  1  0.12070118  0.88019759  0.67134812  1  -1.140997  0.070994  -0.304961  -0.550553  0.038843  2.374029  0.065
O  O296  1  0.12919010  0.82862213  0.15264969  1  -1.144562  0.221866  -0.555471  -0.858534  0.125208  2.392277  0.199
O  O297  1  0.87080206  0.32861481  0.34734912  1  -1.144491  0.221867  -0.555462  -0.85851  0.125208  2.392385  0.199
O  O298  1  0.87081271  0.17137934  0.84735275  1  -1.144443  0.221871  -0.555467  -0.858578  0.125213  2.392314  0.199
O  O299  1  0.12917738  0.67136982  0.65264507  1  -1.144578  0.221865  -0.555407  -0.858733  0.125208  2.392238  0.199
O  O300  1  0.93384567  0.01087571  0.90580041  1  -1.129277  0.077267  -0.308678  -0.549725  0.042073  2.347031  0.071
O  O301  1  0.06615106  0.51089290  0.59419015  1  -1.129155  0.077255  -0.308826  -0.549929  0.042067  2.347068  0.07
O  O302  1  0.06616343  0.98912436  0.09419840  1  -1.129255  0.077269  -0.308694  -0.549719  0.042072  2.347194  0.071
O  O303  1  0.93384330  0.48912120  0.40579820  1  -1.129451  0.077244  -0.308696  -0.54979  0.042061  2.347223  0.07
O  O304  1  0.16194300  0.33727434  0.96748914  1  -1.133801  0.08045  -0.312243  -0.549602  0.043551  2.323788  0.073
O  O305  1  0.83804678  0.83727120  0.53250970  1  -1.1342  0.080438  -0.312218  -0.549545  0.043546  2.323702  0.073
O  O306  1  0.83804726  0.66272783  0.03251632  1  -1.133978  0.080437  -0.312268  -0.549517  0.043545  2.323753  0.073
O  O307  1  0.16193885  0.16273238  0.46749032  1  -1.133769  0.080439  -0.312256  -0.549499  0.043545  2.323852  0.073
O  O308  1  0.98752904  0.80289651  0.02632535  1  -1.132884  0.076451  -0.290531  -0.515911  0.041873  2.378186  0.07
O  O309  1  0.01246383  0.30289490  0.47367288  1  -1.13281  0.076455  -0.290521  -0.515922  0.041873  2.378507  0.07
O  O310  1  0.01248002  0.19710356  0.97367705  1  -1.133136  0.07645  -0.29051  -0.51587  0.041873  2.378312  0.07
O  O311  1  0.98751642  0.69709955  0.52631840  1  -1.132711  0.076456  -0.290543  -0.515983  0.041878  2.378137  0.07
O  O312  1  0.82503904  0.77817623  0.16889669  1  -1.142829  0.068617  -0.301403  -0.54214  0.037545  2.407362  0.064
O  O313  1  0.17495524  0.27816485  0.33110916  1  -1.142977  0.068614  -0.301318  -0.542116  0.037544  2.407254  0.064
O  O314  1  0.17495984  0.22185049  0.83110688  1  -1.142686  0.068613  -0.301286  -0.541924  0.037542  2.40733  0.064
O  O315  1  0.82504053  0.72183451  0.66889361  1  -1.142609  0.06863  -0.30127  -0.542013  0.037552  2.407041  0.064
O  O316  1  0.74416309  0.77199220  0.09901599  1  -1.126592  0.065666  -0.32079  -0.583069  0.035528  2.320588  0.06
O  O317  1  0.25583824  0.27197771  0.40098725  1  -1.126935  0.065659  -0.320722  -0.582978  0.035524  2.321021  0.06
O  O318  1  0.25584131  0.22802681  0.90098424  1  -1.126906  0.065662  -0.32081  -0.583013  0.035524  2.320714  0.06
O  O319  1  0.74415520  0.72801815  0.59901345  1  -1.126929  0.065651  -0.320725  -0.582833  0.035518  2.320857  0.06
O  O320  1  0.34073121  0.85634181  0.12534594  1  -1.164734  0.068992  -0.334026  -0.611086  0.037425  2.293913  0.063
O  O321  1  0.65926180  0.35634163  0.37465417  1  -1.164531  0.069004  -0.33403  -0.610997  0.037431  2.293945  0.063
O  O322  1  0.65927629  0.14365756  0.87465639  1  -1.164729  0.069002  -0.334022  -0.611072  0.037431  2.293974  0.063
O  O323  1  0.34072856  0.64364792  0.62534248  1  -1.164319  0.069  -0.334141  -0.611042  0.037428  2.293919  0.063
O  O324  1  0.25207812  0.02086305  0.15382657  1  -1.170322  0.055821  -0.541881  -0.713963  0.030983  2.045646  0.047
O  O325  1  0.74791395  0.52085360  0.34616883  1  -1.170438  0.055813  -0.541816  -0.713931  0.030983  2.045736  0.047
O  O326  1  0.74793253  0.97914262  0.84617362  1  -1.170727  0.055828  -0.541816  -0.713996  0.030988  2.045659  0.047
O  O327  1  0.25207722  0.47913734  0.65382492  1  -1.17048  0.055831  -0.541812  -0.713881  0.03099  2.045672  0.047
O  O328  1  0.26911864  0.00133708  0.06191304  1  -1.22105  0.035366  -0.558259  -0.769042  0.01951  2.074013  0.029
O  O329  1  0.73087882  0.50133258  0.43808492  1  -1.221174  0.035361  -0.55812  -0.768911  0.019507  2.073926  0.029
O  O330  1  0.73089043  0.99867211  0.93808903  1  -1.221017  0.035358  -0.558183  -0.768951  0.019506  2.073989  0.029
O  O331  1  0.26909979  0.49866749  0.56191347  1  -1.221082  0.035366  -0.558128  -0.768894  0.019511  2.074132  0.029
O  O332  1  0.77525229  0.87282335  0.01774107  1  -1.235198  0.051356  -0.559316  -0.762869  0.028266  2.062291  0.043
O  O333  1  0.22474384  0.37281341  0.48226437  1  -1.235435  0.051377  -0.559328  -0.76287  0.028271  2.062282  0.043
O  O334  1  0.22476143  0.12718654  0.98226415  1  -1.235248  0.051365  -0.559301  -0.76278  0.028271  2.062426  0.043
O  O335  1  0.77524652  0.62718315  0.51773195  1  -1.235227  0.051368  -0.559314  -0.762687  0.028273  2.062311  0.043
O  O336  1  0.25008261  0.27233292  0.02847199  1  -1.169147  -0.00024  -0.324137  -0.537282  -0.001557  2.147376  0.0
O  O337  1  0.74988744  0.77233574  0.47153210  1  -1.169313  -0.000235  -0.324163  -0.537326  -0.001553  2.147281  0.0
O  O338  1  0.74993505  0.72767206  0.97153048  1  -1.168751  -0.000235  -0.324081  -0.537187  -0.001553  2.147233  0.0
O  O339  1  0.25006998  0.22767134  0.52847413  1  -1.16939  -0.000236  -0.324114  -0.537196  -0.001554  2.147296  0.0
