# generated using pymatgen
data_La2H24C51(O2F3)6
_symmetry_space_group_name_H-M   'P 1'
_cell_length_a   7.66837542
_cell_length_b   21.35813964
_cell_length_c   36.89329755
_cell_angle_alpha   90.00003496
_cell_angle_beta   89.99989567
_cell_angle_gamma   90.00001652
_symmetry_Int_Tables_number   1
_chemical_formula_structural   La2H24C51(O2F3)6
_chemical_formula_sum   'La8 H96 C204 O48 F72'
_cell_volume   6042.46665065
_cell_formula_units_Z   4
loop_
 _symmetry_equiv_pos_site_id
 _symmetry_equiv_pos_as_xyz
  1  'x, y, z'
loop_
 _atom_site_type_symbol
 _atom_site_label
 _atom_site_symmetry_multiplicity
 _atom_site_fract_x
 _atom_site_fract_y
 _atom_site_fract_z
 _atom_site_occupancy
 _atom_site_pbe_bader_charge
 _atom_site_pbe_bader_spin_density
 _atom_site_pbe_cm5_charge
 _atom_site_pbe_ddec_charge
 _atom_site_pbe_ddec_spin_density
 _atom_site_pbe_ddec_sum_bond_order
 _atom_site_pbe_magmom
La  La0  1  0.70038045  0.50045345  0.33752468  1  2.210053  0  1.444236  1.796449  0  2.551408  0
La  La1  1  0.79961909  0.50045362  0.66247501  1  2.210039  0  1.444236  1.796481  0  2.551328  0
La  La2  1  0.79962113  0.99954634  0.83752478  1  2.210036  0  1.444232  1.796488  0  2.551377  0
La  La3  1  0.70037881  0.99954692  0.16247535  1  2.210054  0  1.444221  1.796491  0  2.551344  0
La  La4  1  0.29962009  0.49954668  0.66247510  1  2.210043  0  1.444203  1.796383  0  2.551485  0
La  La5  1  0.20038015  0.49954697  0.33752477  1  2.210058  0  1.444223  1.796442  0  2.551391  0
La  La6  1  0.20038072  0.00045426  0.16247500  1  2.210037  0  1.444229  1.796469  0  2.551363  0
La  La7  1  0.29962043  0.00045274  0.83752470  1  2.210056  0  1.444258  1.796531  0  2.551341  0
H  H8  1  0.21066788  0.33920435  0.31880210  1  0.086423  0  0.11306  0.105028  0  1.021327  0
H  H9  1  0.28933224  0.33920361  0.68119799  1  0.086446  0  0.113067  0.105029  0  1.021297  0
H  H10  1  0.28933287  0.16079675  0.81880127  1  0.086419  0  0.113059  0.105006  0  1.021345  0
H  H11  1  0.21066580  0.16079501  0.18119794  1  0.086411  0  0.113054  0.105033  0  1.02129  0
H  H12  1  0.78933397  0.66079484  0.68119795  1  0.086398  0  0.113063  0.105065  0  1.021288  0
H  H13  1  0.71066570  0.66079559  0.31880206  1  0.086432  0  0.113033  0.104948  0  1.021376  0
H  H14  1  0.71066376  0.83920337  0.18119878  1  0.086426  0  0.113062  0.105024  0  1.021324  0
H  H15  1  0.78933475  0.83920278  0.81880184  1  0.086463  0  0.113062  0.104994  0  1.021356  0
H  H16  1  0.74367621  0.27923851  0.37348211  1  0.120156  0  0.10804  0.117381  0  0.995611  0
H  H17  1  0.75632315  0.27923771  0.62651858  1  0.120173  0  0.108053  0.11741  0  0.995603  0
H  H18  1  0.75632336  0.22076130  0.87348213  1  0.120163  0  0.10804  0.11739  0  0.995602  0
H  H19  1  0.74367987  0.22076184  0.12651773  1  0.12021  0  0.108066  0.117422  0  0.995569  0
H  H20  1  0.25632173  0.72076209  0.62651794  1  0.120193  0  0.108059  0.117414  0  0.995592  0
H  H21  1  0.24367348  0.72076242  0.37348174  1  0.120149  0  0.108031  0.117384  0  0.995619  0
H  H22  1  0.24367588  0.77923742  0.12651819  1  0.120169  0  0.108058  0.117402  0  0.995619  0
H  H23  1  0.25632589  0.77923688  0.87348151  1  0.120164  0  0.108044  0.117388  0  0.995608  0
H  H24  1  0.87453043  0.17558389  0.38439868  1  0.071914  0  0.093504  0.104455  0  1.042989  0
H  H25  1  0.62547276  0.17558307  0.61560116  1  0.0719  0  0.093503  0.104483  0  1.042959  0
H  H26  1  0.62547034  0.32441593  0.88439852  1  0.071945  0  0.093508  0.104466  0  1.042996  0
H  H27  1  0.87453036  0.32441694  0.11560111  1  0.071911  0  0.093491  0.104465  0  1.042978  0
H  H28  1  0.12547011  0.82441624  0.61560110  1  0.071913  0  0.093498  0.104455  0  1.043  0
H  H29  1  0.37452909  0.82441659  0.38439835  1  0.071914  0  0.093496  0.104429  0  1.043002  0
H  H30  1  0.37453020  0.67558327  0.11560153  1  0.071918  0  0.093503  0.10446  0  1.042971  0
H  H31  1  0.12547018  0.67558272  0.88439868  1  0.071904  0  0.093489  0.104456  0  1.04298  0
H  H32  1  0.54166734  0.08053110  0.35066442  1  0.101748  0  0.0937  0.105039  0  1.041191  0
H  H33  1  0.95833447  0.08053035  0.64933593  1  0.101804  0  0.093715  0.105055  0  1.041165  0
H  H34  1  0.95833373  0.41947055  0.85066389  1  0.101773  0  0.093716  0.105064  0  1.041174  0
H  H35  1  0.54166835  0.41946923  0.14933496  1  0.101748  0  0.093756  0.10515  0  1.041083  0
H  H36  1  0.45833320  0.91946809  0.64933618  1  0.101775  0  0.093724  0.105068  0  1.041177  0
H  H37  1  0.04166607  0.91947025  0.35066412  1  0.101773  0  0.093707  0.105058  0  1.041156  0
H  H38  1  0.04166681  0.58053051  0.14933616  1  0.101788  0  0.093716  0.105087  0  1.04116  0
H  H39  1  0.45833219  0.58052997  0.85066428  1  0.101752  0  0.093692  0.105045  0  1.041198  0
H  H40  1  0.66334264  0.04735075  0.29184124  1  0.119912  0  0.108919  0.118237  0  0.99428  0
H  H41  1  0.83665784  0.04735051  0.70815910  1  0.119915  0  0.10893  0.118272  0  0.994285  0
H  H42  1  0.83665764  0.45264990  0.79184077  1  0.119901  0  0.108927  0.118271  0  0.994263  0
H  H43  1  0.66334186  0.45265146  0.20815809  1  0.119879  0  0.108915  0.118259  0  0.994284  0
H  H44  1  0.33666051  0.95264891  0.70815936  1  0.119941  0  0.108926  0.118243  0  0.994322  0
H  H45  1  0.16334270  0.95265008  0.29184095  1  0.119896  0  0.108917  0.118245  0  0.994306  0
H  H46  1  0.16334160  0.54735022  0.20815901  1  0.119906  0  0.108927  0.118234  0  0.994292  0
H  H47  1  0.33665607  0.54734914  0.79184088  1  0.119884  0  0.108925  0.11825  0  0.994242  0
H  H48  1  0.19098991  0.10398532  0.23806761  1  0.082713  0  0.113485  0.106582  0  1.016728  0
H  H49  1  0.30900871  0.10398747  0.76193294  1  0.082687  0  0.11352  0.106669  0  1.016753  0
H  H50  1  0.30900893  0.39601430  0.73806686  1  0.082691  0  0.113473  0.106569  0  1.016704  0
H  H51  1  0.19099253  0.39601544  0.26193243  1  0.082765  0  0.113489  0.106597  0  1.016694  0
H  H52  1  0.80901324  0.89601481  0.76193271  1  0.082683  0  0.113486  0.106605  0  1.016748  0
H  H53  1  0.69099183  0.89601359  0.23806712  1  0.082693  0  0.113505  0.106637  0  1.016746  0
H  H54  1  0.69099031  0.60398489  0.26193292  1  0.082703  0  0.11349  0.106616  0  1.016699  0
H  H55  1  0.80900931  0.60398468  0.73806708  1  0.082702  0  0.113504  0.106607  0  1.016733  0
H  H56  1  0.06937199  0.13935874  0.29649235  1  0.094915  0  0.105575  0.114957  0  0.993172  0
H  H57  1  0.43062796  0.13935991  0.70350794  1  0.094907  0  0.105554  0.114947  0  0.993148  0
H  H58  1  0.43062634  0.36064140  0.79649208  1  0.094938  0  0.105555  0.114938  0  0.993176  0
H  H59  1  0.06937640  0.36063967  0.20350775  1  0.09494  0  0.105545  0.114918  0  0.993174  0
H  H60  1  0.93062855  0.86063998  0.70350770  1  0.094895  0  0.105573  0.115004  0  0.993129  0
H  H61  1  0.56937389  0.86064069  0.29649211  1  0.094929  0  0.105548  0.114951  0  0.993185  0
H  H62  1  0.56937290  0.63935919  0.20350824  1  0.094901  0  0.105553  0.114947  0  0.993181  0
H  H63  1  0.93062545  0.63935859  0.79649204  1  0.094925  0  0.105549  0.114934  0  0.993178  0
H  H64  1  0.76810635  0.67606149  0.42541627  1  0.116724  0  0.107475  0.117804  0  0.999468  0
H  H65  1  0.73189594  0.67606110  0.57458321  1  0.116739  0  0.107481  0.117834  0  0.999397  0
H  H66  1  0.73189316  0.82393933  0.92541634  1  0.116725  0  0.107474  0.117799  0  0.999473  0
H  H67  1  0.76810533  0.82393982  0.07458374  1  0.116716  0  0.107477  0.117823  0  0.999439  0
H  H68  1  0.23189420  0.32393958  0.57458324  1  0.116767  0  0.107483  0.117822  0  0.999446  0
H  H69  1  0.26810721  0.32393997  0.42541657  1  0.116776  0  0.107487  0.117852  0  0.999437  0
H  H70  1  0.26810347  0.17606220  0.07458372  1  0.116679  0  0.107488  0.117817  0  0.99938  0
H  H71  1  0.23189521  0.17606125  0.92541577  1  0.116705  0  0.107469  0.117799  0  0.999454  0
H  H72  1  0.91478001  0.74425472  0.46982296  1  0.114208  0  0.094535  0.106132  0  1.038716  0
H  H73  1  0.58522233  0.74425521  0.53017708  1  0.114253  0  0.094517  0.10611  0  1.038724  0
H  H74  1  0.58522172  0.75574661  0.96982333  1  0.114143  0  0.094501  0.10608  0  1.038711  0
H  H75  1  0.91477802  0.75574613  0.03017726  1  0.114342  0  0.094501  0.106074  0  1.038704  0
H  H76  1  0.08522184  0.25574587  0.53017709  1  0.114201  0  0.09449  0.106056  0  1.038716  0
H  H77  1  0.41477821  0.25574633  0.46982297  1  0.114166  0  0.094503  0.106087  0  1.038679  0
H  H78  1  0.41477752  0.24425586  0.03017699  1  0.114236  0  0.094493  0.10605  0  1.038664  0
H  H79  1  0.08521991  0.24425447  0.96982253  1  0.114368  0  0.094474  0.106049  0  1.038736  0
H  H80  1  0.36259521  0.62128986  0.46823279  1  0.099289  0  0.106747  0.115802  0  0.991643  0
H  H81  1  0.13740252  0.62129035  0.53176740  1  0.099291  0  0.106734  0.115782  0  0.99159  0
H  H82  1  0.13740202  0.87871001  0.96823209  1  0.099271  0  0.10675  0.115795  0  0.991611  0
H  H83  1  0.36259461  0.87871093  0.03176737  1  0.099285  0  0.106757  0.11583  0  0.991634  0
H  H84  1  0.63740403  0.37871026  0.53176808  1  0.099285  0  0.106745  0.115793  0  0.991624  0
H  H85  1  0.86259672  0.37871071  0.46823265  1  0.099273  0  0.10676  0.115823  0  0.991608  0
H  H86  1  0.86259461  0.12128965  0.03176687  1  0.09915  0  0.106749  0.115782  0  0.991634  0
H  H87  1  0.63740593  0.12128873  0.96823295  1  0.099136  0  0.106755  0.115815  0  0.991659  0
H  H88  1  0.21278007  0.55324177  0.42428200  1  0.087455  0  0.114836  0.107092  0  1.007638  0
H  H89  1  0.28722412  0.55324186  0.57571735  1  0.087447  0  0.11484  0.107105  0  1.007639  0
H  H90  1  0.28721754  0.94675759  0.92428155  1  0.087437  0  0.114844  0.10712  0  1.007641  0
H  H91  1  0.21277784  0.94675994  0.07571740  1  0.087424  0  0.114899  0.107196  0  1.007614  0
H  H92  1  0.78722308  0.44675976  0.57571751  1  0.087429  0  0.11491  0.107213  0  1.00758  0
H  H93  1  0.71277903  0.44675968  0.42428270  1  0.08745  0  0.114868  0.107179  0  1.007608  0
H  H94  1  0.71277387  0.05324254  0.07571796  1  0.08747  0  0.114856  0.107131  0  1.007613  0
H  H95  1  0.78722140  0.05324065  0.92428211  1  0.087458  0  0.114852  0.10711  0  1.007602  0
H  H96  1  0.34124956  0.23522854  0.32848105  1  0.09122  0  0.105618  0.115672  0  0.992047  0
H  H97  1  0.15875178  0.23522778  0.67151873  1  0.091234  0  0.105596  0.115663  0  0.992035  0
H  H98  1  0.15875241  0.26477210  0.82848031  1  0.09121  0  0.105619  0.115691  0  0.991947  0
H  H99  1  0.34125156  0.26477036  0.17151867  1  0.091218  0  0.105616  0.115666  0  0.992005  0
H  H100  1  0.65874968  0.76476971  0.67151873  1  0.091229  0  0.105617  0.115675  0  0.992026  0
H  H101  1  0.84124876  0.76477095  0.32848078  1  0.091224  0  0.105609  0.115657  0  0.992019  0
H  H102  1  0.84124944  0.73522896  0.17151920  1  0.091211  0  0.105607  0.11565  0  0.992066  0
H  H103  1  0.65874898  0.73522743  0.82848084  1  0.091188  0  0.105589  0.115646  0  0.992013  0
C  C104  1  0.88501793  0.37771337  0.34005435  1  1.530654  0  0.225293  0.613104  0  4.141544  0
C  C105  1  0.61498020  0.37771305  0.65994584  1  1.530662  0  0.225315  0.613105  0  4.141454  0
C  C106  1  0.61498192  0.12228687  0.84005385  1  1.530645  0  0.2253  0.613099  0  4.141586  0
C  C107  1  0.88501601  0.12228653  0.15994517  1  1.530816  0  0.225278  0.613127  0  4.141474  0
C  C108  1  0.11498391  0.62228629  0.65994516  1  1.530788  0  0.225287  0.613117  0  4.141547  0
C  C109  1  0.38501512  0.62228661  0.34005449  1  1.530825  0  0.225228  0.613003  0  4.14166  0
C  C110  1  0.38501601  0.87771325  0.15994621  1  1.530667  0  0.225299  0.61312  0  4.141477  0
C  C111  1  0.11498453  0.87771173  0.84005407  1  1.530569  0  0.225261  0.612983  0  4.141668  0
C  C112  1  0.96720348  0.31551601  0.34514983  1  -0.015398  0  -0.011984  -0.038842  0  3.974682  0
C  C113  1  0.53279852  0.31551474  0.65485034  1  -0.015364  0  -0.012027  -0.038921  0  3.974657  0
C  C114  1  0.53279633  0.18448330  0.84514965  1  -0.015373  0  -0.012001  -0.038838  0  3.974708  0
C  C115  1  0.96720035  0.18448436  0.15484993  1  -0.015541  0  -0.012009  -0.038934  0  3.974701  0
C  C116  1  0.03279967  0.68448412  0.65484968  1  -0.015532  0  -0.011984  -0.03888  0  3.974642  0
C  C117  1  0.46720203  0.68448445  0.34514945  1  -0.015566  0  -0.012015  -0.038885  0  3.97478  0
C  C118  1  0.46720291  0.81551589  0.15485040  1  -0.015395  0  -0.012003  -0.038898  0  3.974749  0
C  C119  1  0.03279889  0.81551483  0.84514986  1  -0.015324  0  -0.012007  -0.038862  0  3.974629  0
C  C120  1  0.13637175  0.30303781  0.33274556  1  0.047016  0  -0.070685  -0.064405  0  3.952056  0
C  C121  1  0.36362834  0.30303706  0.66725397  1  0.047013  0  -0.070713  -0.06438  0  3.952009  0
C  C122  1  0.36362757  0.19696237  0.83274472  1  0.046972  0  -0.070744  -0.064432  0  3.952108  0
C  C123  1  0.13636982  0.19696060  0.16725369  1  0.046858  0  -0.070743  -0.064492  0  3.951925  0
C  C124  1  0.86362879  0.69696044  0.66725395  1  0.046878  0  -0.070757  -0.064549  0  3.951915  0
C  C125  1  0.63637090  0.69696260  0.33274581  1  0.047024  0  -0.070675  -0.064341  0  3.952148  0
C  C126  1  0.63637036  0.80303776  0.16725479  1  0.046993  0  -0.070703  -0.0644  0  3.952016  0
C  C127  1  0.86362811  0.80303672  0.83274555  1  0.047005  0  -0.070691  -0.064348  0  3.952049  0
C  C128  1  0.87441841  0.26891739  0.36355941  1  -0.063576  0  -0.075067  -0.065795  0  3.93701  0
C  C129  1  0.62558225  0.26891611  0.63644019  1  -0.06363  0  -0.075069  -0.065818  0  3.937075  0
C  C130  1  0.62558124  0.23108288  0.86355922  1  -0.063584  0  -0.075069  -0.065824  0  3.937079  0
C  C131  1  0.87442200  0.23108251  0.13643983  1  -0.063554  0  -0.075118  -0.065833  0  3.937114  0
C  C132  1  0.12557952  0.73108274  0.63643956  1  -0.06354  0  -0.075123  -0.065856  0  3.937106  0
C  C133  1  0.37441699  0.73108308  0.36355932  1  -0.063578  0  -0.075067  -0.065842  0  3.937047  0
C  C134  1  0.37441800  0.76891725  0.13644111  1  -0.063486  0  -0.075078  -0.065826  0  3.937077  0
C  C135  1  0.12558246  0.76891575  0.86355941  1  -0.063635  0  -0.075036  -0.065756  0  3.937005  0
C  C136  1  0.94920865  0.21046427  0.36963421  1  0.052718  0  -0.097807  -0.144525  0  3.990926  0
C  C137  1  0.55079066  0.21046345  0.63036619  1  0.05273  0  -0.097789  -0.144503  0  3.990915  0
C  C138  1  0.55079486  0.28953554  0.86963379  1  0.052684  0  -0.097782  -0.144481  0  3.990884  0
C  C139  1  0.94920712  0.28953470  0.13036583  1  0.052734  0  -0.097804  -0.14454  0  3.990863  0
C  C140  1  0.05079320  0.78953492  0.63036585  1  0.052712  0  -0.097807  -0.144515  0  3.990907  0
C  C141  1  0.44920728  0.78953621  0.36963359  1  0.052695  0  -0.097757  -0.144412  0  3.990858  0
C  C142  1  0.44920829  0.71046412  0.13036627  1  0.052618  0  -0.09779  -0.144482  0  3.990871  0
C  C143  1  0.05079082  0.71046356  0.86963368  1  0.052748  0  -0.097816  -0.144556  0  3.990936  0
C  C144  1  0.11766099  0.19764007  0.35709089  1  -0.03406  0  -0.011988  0.09016  0  3.950871  0
C  C145  1  0.38233901  0.19763930  0.64290888  1  -0.034411  0  -0.012051  0.090086  0  3.950898  0
C  C146  1  0.38233812  0.30235967  0.85709116  1  -0.034346  0  -0.011977  0.090172  0  3.950907  0
C  C147  1  0.11766458  0.30235881  0.14290864  1  -0.0343  0  -0.011965  0.090172  0  3.950748  0
C  C148  1  0.88233564  0.80235819  0.64290862  1  -0.033968  0  -0.011919  0.090229  0  3.950723  0
C  C149  1  0.61765892  0.80236036  0.35709063  1  -0.034414  0  -0.012049  0.090088  0  3.950935  0
C  C150  1  0.61765982  0.69764046  0.14290916  1  -0.034414  0  -0.011965  0.090177  0  3.950859  0
C  C151  1  0.88233727  0.69763991  0.85709087  1  -0.034845  0  -0.011988  0.090183  0  3.950911  0
C  C152  1  0.34386648  0.14583362  0.39479904  1  1.714282  0  0.303573  0.677902  0  3.965996  0
C  C153  1  0.15613218  0.14583325  0.60520098  1  1.714146  0  0.30356  0.677861  0  3.966039  0
C  C154  1  0.15613230  0.35416663  0.89479888  1  1.714144  0  0.303596  0.677912  0  3.965933  0
C  C155  1  0.34386652  0.35416669  0.10520068  1  1.714268  0  0.303598  0.67793  0  3.965979  0
C  C156  1  0.65613537  0.85416651  0.60520101  1  1.714259  0  0.303625  0.677988  0  3.965953  0
C  C157  1  0.84386706  0.85416687  0.39479880  1  1.714292  0  0.303521  0.6777  0  3.966265  0
C  C158  1  0.84386824  0.64583303  0.10520118  1  1.714278  0  0.303494  0.677675  0  3.966197  0
C  C159  1  0.65613011  0.64583297  0.89479910  1  1.714284  0  0.303554  0.677836  0  3.966028  0
C  C160  1  0.29706023  0.11319684  0.32778579  1  -0.08576  0  -0.012781  0.089599  0  3.950077  0
C  C161  1  0.20293970  0.11319702  0.67221449  1  -0.085748  0  -0.012833  0.089473  0  3.94998  0
C  C162  1  0.20293783  0.38680380  0.82778589  1  -0.085143  0  -0.012725  0.089636  0  3.950044  0
C  C163  1  0.29706363  0.38680159  0.17221422  1  -0.085394  0  -0.012767  0.089641  0  3.950049  0
C  C164  1  0.70293770  0.88680235  0.67221426  1  -0.085391  0  -0.012781  0.08965  0  3.950032  0
C  C165  1  0.79706084  0.88680357  0.32778556  1  -0.08562  0  -0.012752  0.089642  0  3.95004  0
C  C166  1  0.79706271  0.61319680  0.17221389  1  -0.085143  0  -0.012731  0.089661  0  3.949993  0
C  C167  1  0.70293692  0.61319573  0.82778610  1  -0.085275  0  -0.012745  0.089636  0  3.950077  0
C  C168  1  0.46404084  0.08684390  0.32629632  1  0.026903  0  -0.097411  -0.143771  0  3.987583  0
C  C169  1  0.03596038  0.08684359  0.67370395  1  0.026891  0  -0.097404  -0.143701  0  3.987502  0
C  C170  1  0.03595854  0.41315721  0.82629595  1  0.027008  0  -0.09744  -0.143795  0  3.987557  0
C  C171  1  0.46404163  0.41315642  0.17370335  1  0.027007  0  -0.097469  -0.143959  0  3.987432  0
C  C172  1  0.53595971  0.91315529  0.67370400  1  0.026868  0  -0.097409  -0.143792  0  3.987566  0
C  C173  1  0.96404016  0.91315747  0.32629610  1  0.027028  0  -0.097428  -0.143784  0  3.987471  0
C  C174  1  0.96404200  0.58684339  0.17370383  1  0.027012  0  -0.097464  -0.143886  0  3.987508  0
C  C175  1  0.53596021  0.58684231  0.82629616  1  0.027035  0  -0.097414  -0.14384  0  3.98753  0
C  C176  1  0.53345724  0.06793072  0.29320493  1  -0.036799  0  -0.075141  -0.067344  0  3.937461  0
C  C177  1  0.96654326  0.06793050  0.70679542  1  -0.03689  0  -0.075168  -0.067439  0  3.9375  0
C  C178  1  0.96654302  0.43207040  0.79320494  1  -0.036967  0  -0.07516  -0.067425  0  3.937435  0
C  C179  1  0.53345907  0.43207054  0.20679472  1  -0.036936  0  -0.07515  -0.067394  0  3.937272  0
C  C180  1  0.46654461  0.93206894  0.70679539  1  -0.03679  0  -0.075142  -0.067358  0  3.937492  0
C  C181  1  0.03345729  0.93207057  0.29320491  1  -0.036964  0  -0.075125  -0.067405  0  3.937432  0
C  C182  1  0.03345752  0.56792972  0.20679565  1  -0.03694  0  -0.07516  -0.067356  0  3.937393  0
C  C183  1  0.46654278  0.56792865  0.79320452  1  -0.036923  0  -0.075113  -0.067295  0  3.937318  0
C  C184  1  0.43661679  0.07453193  0.26124467  1  -0.020523  0  -0.01167  -0.039106  0  3.975036  0
C  C185  1  0.06338181  0.07453310  0.73875560  1  -0.020408  0  -0.011681  -0.039154  0  3.975166  0
C  C186  1  0.06338185  0.42546864  0.76124457  1  -0.020517  0  -0.011658  -0.039014  0  3.974987  0
C  C187  1  0.43661703  0.42546979  0.23875501  1  -0.020511  0  -0.011659  -0.039015  0  3.975  0
C  C188  1  0.56338636  0.92546820  0.73875538  1  -0.020485  0  -0.011661  -0.039067  0  3.974986  0
C  C189  1  0.93661874  0.92546796  0.26124473  1  -0.020525  0  -0.011638  -0.03896  0  3.97494  0
C  C190  1  0.93661609  0.57453149  0.23875521  1  -0.020522  0  -0.011629  -0.039015  0  3.974983  0
C  C191  1  0.56338351  0.57452987  0.76124477  1  -0.020518  0  -0.011687  -0.039124  0  3.975017  0
C  C192  1  0.26829953  0.09981503  0.26270595  1  0.028136  0  -0.071376  -0.066231  0  3.955303  0
C  C193  1  0.23170040  0.09981621  0.73729460  1  0.028124  0  -0.071374  -0.066279  0  3.955395  0
C  C194  1  0.23169910  0.40018508  0.76270577  1  0.028155  0  -0.071391  -0.066266  0  3.955309  0
C  C195  1  0.26830106  0.40018527  0.23729407  1  0.028103  0  -0.071383  -0.066266  0  3.955316  0
C  C196  1  0.73170362  0.90018463  0.73729410  1  0.028129  0  -0.071408  -0.066292  0  3.955319  0
C  C197  1  0.76830145  0.90018485  0.26270545  1  0.028146  0  -0.071415  -0.066329  0  3.955285  0
C  C198  1  0.76829753  0.59981505  0.23729374  1  0.028143  0  -0.071389  -0.066288  0  3.955291  0
C  C199  1  0.73170209  0.59981392  0.76270598  1  0.028139  0  -0.071372  -0.0662  0  3.955317  0
C  C200  1  0.19966556  0.11913320  0.29568675  1  -0.100464  0  -0.089092  -0.129441  0  3.965539  0
C  C201  1  0.30033308  0.11913436  0.70431380  1  -0.100459  0  -0.089071  -0.129388  0  3.965379  0
C  C202  1  0.30033278  0.38086741  0.79568654  1  -0.10058  0  -0.089052  -0.1294  0  3.965443  0
C  C203  1  0.19966867  0.38086616  0.20431329  1  -0.100446  0  -0.089067  -0.129392  0  3.965475  0
C  C204  1  0.80033498  0.88086599  0.70431330  1  -0.100454  0  -0.089095  -0.129526  0  3.96544  0
C  C205  1  0.69966747  0.88086671  0.29568652  1  -0.100579  0  -0.089094  -0.129503  0  3.965515  0
C  C206  1  0.69966646  0.61913225  0.20431324  1  -0.100565  0  -0.089094  -0.129469  0  3.965475  0
C  C207  1  0.80033187  0.61913210  0.79568676  1  -0.100545  0  -0.089086  -0.129468  0  3.965508  0
C  C208  1  0.88722684  0.57083836  0.39524652  1  1.516295  0  0.219652  0.601601  0  4.159569  0
C  C209  1  0.61277536  0.57083893  0.60475265  1  1.516344  0  0.219645  0.601631  0  4.159504  0
C  C210  1  0.61277423  0.92916149  0.89524667  1  1.516295  0  0.219649  0.601541  0  4.159637  0
C  C211  1  0.88722565  0.92916296  0.10475317  1  1.516347  0  0.219683  0.601622  0  4.159419  0
C  C212  1  0.11277370  0.42916270  0.60475299  1  1.516332  0  0.219661  0.601559  0  4.15946  0
C  C213  1  0.38722779  0.42916261  0.39524686  1  1.515938  0  0.21964  0.601553  0  4.159538  0
C  C214  1  0.38722370  0.07083958  0.10475284  1  1.51604  0  0.21969  0.601592  0  4.159565  0
C  C215  1  0.11277359  0.07083858  0.89524716  1  1.515908  0  0.219675  0.601588  0  4.159454  0
C  C216  1  0.97958529  0.61010304  0.42229966  1  -0.011909  0  -0.012159  -0.036041  0  3.976872  0
C  C217  1  0.52041695  0.61010216  0.57770006  1  -0.011999  0  -0.01211  -0.035922  0  3.976649  0
C  C218  1  0.52041425  0.88989731  0.92229956  1  -0.011921  0  -0.01218  -0.036044  0  3.976942  0
C  C219  1  0.97958429  0.88989923  0.07770026  1  -0.012044  0  -0.012125  -0.035881  0  3.976591  0
C  C220  1  0.02041656  0.38989943  0.57770012  1  -0.012047  0  -0.012125  -0.035854  0  3.976576  0
C  C221  1  0.47958620  0.38989844  0.42229945  1  -0.012037  0  -0.012087  -0.035856  0  3.976679  0
C  C222  1  0.47958238  0.11010282  0.07770049  1  -0.011934  0  -0.012074  -0.035954  0  3.976854  0
C  C223  1  0.02041625  0.11010184  0.92229952  1  -0.01203  0  -0.01216  -0.036043  0  3.976827  0
C  C224  1  0.89779348  0.66417142  0.43532672  1  0.019364  0  -0.075526  -0.0689  0  3.938949  0
C  C225  1  0.60220880  0.66417241  0.56467384  1  0.019312  0  -0.075539  -0.068934  0  3.938797  0
C  C226  1  0.60220725  0.83582894  0.93532656  1  0.019362  0  -0.075524  -0.068901  0  3.938957  0
C  C227  1  0.89779256  0.83582943  0.06467378  1  0.019391  0  -0.075503  -0.068928  0  3.938828  0
C  C228  1  0.10220706  0.33582918  0.56467388  1  0.019313  0  -0.075504  -0.068921  0  3.938805  0
C  C229  1  0.39779305  0.33582912  0.43532621  1  0.0193  0  -0.075552  -0.069014  0  3.938938  0
C  C230  1  0.39779069  0.16417259  0.06467376  1  0.019343  0  -0.075485  -0.068796  0  3.938795  0
C  C231  1  0.10220798  0.16417116  0.93532654  1  0.019367  0  -0.075484  -0.068874  0  3.938936  0
C  C232  1  0.98156472  0.70242851  0.46042151  1  -0.057116  0  -0.096599  -0.142343  0  3.985053  0
C  C233  1  0.51843629  0.70242900  0.53957879  1  -0.057177  0  -0.096635  -0.142386  0  3.985004  0
C  C234  1  0.51843449  0.79757234  0.96042165  1  -0.057083  0  -0.096567  -0.142276  0  3.984941  0
C  C235  1  0.98156398  0.79757235  0.03957896  1  -0.057247  0  -0.096606  -0.14227  0  3.984976  0
C  C236  1  0.01843583  0.29757208  0.53957882  1  -0.057077  0  -0.096596  -0.142296  0  3.98492  0
C  C237  1  0.48156426  0.29757300  0.46042153  1  -0.057093  0  -0.096604  -0.142301  0  3.985022  0
C  C238  1  0.48156345  0.20242826  0.03957895  1  -0.057154  0  -0.096623  -0.142337  0  3.985011  0
C  C239  1  0.01843395  0.20242825  0.96042109  1  -0.057175  0  -0.09659  -0.14226  0  3.985086  0
C  C240  1  0.14887720  0.68721882  0.47286403  1  -0.019577  0  -0.012313  0.088782  0  3.944252  0
C  C241  1  0.35112450  0.68721933  0.52713645  1  -0.019645  0  -0.012328  0.088719  0  3.94421  0
C  C242  1  0.35112260  0.81278153  0.97286405  1  -0.019714  0  -0.012277  0.088772  0  3.944225  0
C  C243  1  0.14887529  0.81278242  0.02713648  1  -0.019447  0  -0.012333  0.088681  0  3.944229  0
C  C244  1  0.85112334  0.31278131  0.52713656  1  -0.019459  0  -0.012328  0.088768  0  3.944179  0
C  C245  1  0.64887474  0.31278174  0.47286414  1  -0.019495  0  -0.012311  0.088749  0  3.944346  0
C  C246  1  0.64887403  0.18721907  0.02713600  1  -0.019528  0  -0.012311  0.088714  0  3.944289  0
C  C247  1  0.85112395  0.18721864  0.97286357  1  -0.019536  0  -0.012337  0.088694  0  3.944242  0
C  C248  1  0.23179180  0.63349878  0.45917724  1  -0.089949  0  -0.087382  -0.127604  0  3.96412  0
C  C249  1  0.26820985  0.63349929  0.54082269  1  -0.089916  0  -0.087364  -0.127521  0  3.963989  0
C  C250  1  0.26820812  0.86650108  0.95917676  1  -0.089925  0  -0.087356  -0.127524  0  3.964038  0
C  C251  1  0.23179111  0.86650200  0.04082297  1  -0.089977  0  -0.08743  -0.127612  0  3.964179  0
C  C252  1  0.76820874  0.36650135  0.54082309  1  -0.08997  0  -0.087375  -0.127507  0  3.964061  0
C  C253  1  0.73179069  0.36650130  0.45917764  1  -0.089926  0  -0.087385  -0.127531  0  3.964049  0
C  C254  1  0.73178851  0.13349811  0.04082275  1  -0.090074  0  -0.087411  -0.127547  0  3.964123  0
C  C255  1  0.76820943  0.13349813  0.95917735  1  -0.089788  0  -0.087404  -0.127627  0  3.964144  0
C  C256  1  0.24999891  0.72824114  0.50000011  1  0.0684  0  -0.011243  -0.275103  0  3.845564  0
C  C257  1  0.24999981  0.77176011  0.00000036  1  0.068396  0  -0.011223  -0.275083  0  3.845656  0
C  C258  1  0.74999903  0.27176040  0.50000021  1  0.068182  0  -0.011248  -0.27515  0  3.845563  0
C  C259  1  0.75000074  0.22824048  0.99999996  1  0.068207  0  -0.011254  -0.2751  0  3.845635  0
C  C260  1  0.51486950  0.05337745  0.22657711  1  1.539859  0  0.22462  0.612487  0  4.144014  0
C  C261  1  0.98513099  0.05337730  0.77342296  1  1.539837  0  0.224668  0.612614  0  4.143973  0
C  C262  1  0.98513005  0.44662360  0.72657685  1  1.539868  0  0.224619  0.612458  0  4.144025  0
C  C263  1  0.51487075  0.44662334  0.27342254  1  1.539857  0  0.224579  0.61243  0  4.144066  0
C  C264  1  0.48513235  0.94662221  0.77342294  1  1.54044  0  0.224621  0.612521  0  4.144021  0
C  C265  1  0.01487086  0.94662330  0.22657709  1  1.539865  0  0.224606  0.612451  0  4.143991  0
C  C266  1  0.01487050  0.55337746  0.27342293  1  1.539861  0  0.224651  0.612549  0  4.143869  0
C  C267  1  0.48512849  0.55337632  0.72657724  1  1.53987  0  0.224607  0.612491  0  4.144018  0
C  C268  1  0.14765282  0.59507454  0.43434591  1  -0.027142  0  -0.070511  -0.067176  0  3.956199  0
C  C269  1  0.35234880  0.59507462  0.56565400  1  -0.027113  0  -0.070512  -0.06724  0  3.956174  0
C  C270  1  0.35234732  0.90492577  0.93434569  1  -0.02715  0  -0.070541  -0.067246  0  3.956237  0
C  C271  1  0.14765195  0.90492670  0.06565406  1  -0.02713  0  -0.070562  -0.067365  0  3.956408  0
C  C272  1  0.85234772  0.40492653  0.56565387  1  -0.027116  0  -0.070608  -0.067475  0  3.956307  0
C  C273  1  0.64765305  0.40492645  0.43434632  1  -0.027164  0  -0.070595  -0.067435  0  3.956261  0
C  C274  1  0.64764801  0.09507483  0.06565382  1  -0.026806  0  -0.07058  -0.067294  0  3.956404  0
C  C275  1  0.85234729  0.09507436  0.93434572  1  -0.02715  0  -0.070481  -0.067115  0  3.956206  0
C  C276  1  0.21034956  0.24457065  0.33855445  1  -0.114969  0  -0.088791  -0.12938  0  3.960338  0
C  C277  1  0.28965178  0.24457082  0.66144561  1  -0.114974  0  -0.088696  -0.129338  0  3.960395  0
C  C278  1  0.28965232  0.25542954  0.83855393  1  -0.114932  0  -0.088774  -0.12941  0  3.960385  0
C  C279  1  0.21035034  0.25542731  0.16144613  1  -0.114975  0  -0.088718  -0.129269  0  3.960093  0
C  C280  1  0.78964968  0.75542667  0.66144587  1  -0.114993  0  -0.088734  -0.129295  0  3.960128  0
C  C281  1  0.71034876  0.75542977  0.33855418  1  -0.11461  0  -0.088752  -0.129316  0  3.960449  0
C  C282  1  0.71034953  0.74456965  0.16144639  1  -0.11459  0  -0.088786  -0.129355  0  3.960345  0
C  C283  1  0.78965151  0.74456955  0.83855365  1  -0.114596  0  -0.088764  -0.129381  0  3.960432  0
C  C284  1  0.08437220  0.08085275  0.37495266  1  1.715821  0  0.30289  0.677094  0  3.968001  0
C  C285  1  0.41562641  0.08085243  0.62504734  1  1.715537  0  0.302873  0.677019  0  3.968088  0
C  C286  1  0.41562545  0.41914794  0.87495214  1  1.715487  0  0.303009  0.677244  0  3.968072  0
C  C287  1  0.08437082  0.41914613  0.12504879  1  1.715558  0  0.302848  0.676978  0  3.968696  0
C  C288  1  0.91563095  0.91914644  0.62504821  1  1.715876  0  0.302931  0.677144  0  3.968359  0
C  C289  1  0.58437153  0.91914770  0.37495244  1  1.715693  0  0.302918  0.677113  0  3.968086  0
C  C290  1  0.58437248  0.58085218  0.12504818  1  1.71572  0  0.302969  0.677112  0  3.968212  0
C  C291  1  0.91562451  0.58085260  0.87495235  1  1.715637  0  0.302957  0.677125  0  3.968233  0
C  C292  1  0.12809947  0.77103420  0.52326128  1  1.722619  0  0.303959  0.679976  0  3.96344  0
C  C293  1  0.37189968  0.77103512  0.47673896  1  1.722624  0  0.303907  0.679841  0  3.963537  0
C  C294  1  0.37190034  0.72896661  0.02326092  1  1.722864  0  0.303906  0.679888  0  3.963543  0
C  C295  1  0.12810139  0.72896570  0.97673931  1  1.722622  0  0.30396  0.679945  0  3.963449  0
C  C296  1  0.87189977  0.22896546  0.47673877  1  1.722649  0  0.303942  0.679897  0  3.963497  0
C  C297  1  0.62809955  0.22896594  0.52326082  1  1.722614  0  0.303945  0.679986  0  3.96342  0
C  C298  1  0.62810150  0.27103445  0.97673913  1  1.722616  0  0.303883  0.679767  0  3.963614  0
C  C299  1  0.87190176  0.27103396  0.02326156  1  1.722857  0  0.303972  0.679932  0  3.963554  0
C  C300  1  0.21064152  0.13471559  0.36328386  1  0.056735  0  -0.010555  -0.273111  0  3.847335  0
C  C301  1  0.28935843  0.13471574  0.63671616  1  0.057057  0  -0.01057  -0.27306  0  3.847286  0
C  C302  1  0.28935754  0.36528463  0.86328364  1  0.056588  0  -0.01059  -0.273184  0  3.84744  0
C  C303  1  0.21064260  0.36528330  0.13671619  1  0.056649  0  -0.010525  -0.273049  0  3.847425  0
C  C304  1  0.78935772  0.86528314  0.63671620  1  0.05634  0  -0.010579  -0.273185  0  3.84737  0
C  C305  1  0.71064081  0.86528486  0.36328389  1  0.056749  0  -0.010591  -0.273116  0  3.847423  0
C  C306  1  0.71064170  0.63471550  0.13671614  1  0.056266  0  -0.0106  -0.273117  0  3.847276  0
C  C307  1  0.78935533  0.63471589  0.86328387  1  0.056776  0  -0.010561  -0.273104  0  3.84734  0
O  O308  1  0.73056014  0.38692203  0.35115911  1  -1.178761  0  -0.361699  -0.570559  0  2.198071  0
O  O309  1  0.76943931  0.38692359  0.64884108  1  -1.178735  0  -0.361715  -0.570589  0  2.198093  0
O  O310  1  0.76944092  0.11307775  0.85115881  1  -1.17875  0  -0.361668  -0.570565  0  2.198094  0
O  O311  1  0.73055961  0.11307691  0.14884047  1  -1.178816  0  -0.361656  -0.570525  0  2.198013  0
O  O312  1  0.26944171  0.61307669  0.64884068  1  -1.178783  0  -0.361664  -0.570505  0  2.198115  0
O  O313  1  0.23055732  0.61307841  0.35115897  1  -1.178795  0  -0.361639  -0.57049  0  2.198123  0
O  O314  1  0.23055832  0.88692284  0.14884097  1  -1.178786  0  -0.361694  -0.570551  0  2.198026  0
O  O315  1  0.26944354  0.88692087  0.85115850  1  -1.178767  0  -0.361668  -0.570504  0  2.198118  0
O  O316  1  0.96395630  0.52131345  0.38212054  1  -1.219783  0  -0.430966  -0.683915  0  2.295721  0
O  O317  1  0.53604456  0.52131355  0.61787916  1  -1.219742  0  -0.430926  -0.683928  0  2.295625  0
O  O318  1  0.53604228  0.97868686  0.88212046  1  -1.219787  0  -0.431007  -0.683924  0  2.295704  0
O  O319  1  0.96395764  0.97868788  0.11787940  1  -1.219823  0  -0.430985  -0.683961  0  2.295663  0
O  O320  1  0.03604163  0.47868762  0.61787925  1  -1.219817  0  -0.43097  -0.683921  0  2.29569  0
O  O321  1  0.46395990  0.47868798  0.38212062  1  -1.219445  0  -0.430969  -0.683907  0  2.295699  0
O  O322  1  0.46395696  0.02131421  0.11787905  1  -1.219707  0  -0.430964  -0.683949  0  2.295642  0
O  O323  1  0.03604291  0.02131225  0.88212039  1  -1.219392  0  -0.431006  -0.683946  0  2.295634  0
O  O324  1  0.42693705  0.05728976  0.19663050  1  -1.219712  0  -0.41906  -0.670181  0  2.291571  0
O  O325  1  0.07306284  0.05728912  0.80337004  1  -1.219732  0  -0.419081  -0.670222  0  2.291538  0
O  O326  1  0.07306346  0.44271028  0.69663012  1  -1.219722  0  -0.419087  -0.670238  0  2.291586  0
O  O327  1  0.42693804  0.44271149  0.30336919  1  -1.219677  0  -0.419035  -0.670147  0  2.291571  0
O  O328  1  0.57306349  0.94271037  0.80336983  1  -1.21973  0  -0.419074  -0.670217  0  2.291571  0
O  O329  1  0.92693770  0.94271054  0.19663029  1  -1.219691  0  -0.419067  -0.670202  0  2.291545  0
O  O330  1  0.92693708  0.55728891  0.30336993  1  -1.219706  0  -0.419088  -0.670235  0  2.291544  0
O  O331  1  0.57306250  0.55728910  0.69663005  1  -1.219693  0  -0.419071  -0.67019  0  2.291537  0
O  O332  1  0.66857349  0.03143735  0.22674730  1  -1.169168  0  -0.363353  -0.569079  0  2.205291  0
O  O333  1  0.83142698  0.03143765  0.77325331  1  -1.169148  0  -0.363335  -0.56909  0  2.205285  0
O  O334  1  0.83142736  0.46856371  0.72674684  1  -1.169184  0  -0.36333  -0.569018  0  2.205296  0
O  O335  1  0.66857476  0.46856299  0.27325257  1  -1.169205  0  -0.363321  -0.569039  0  2.205313  0
O  O336  1  0.33142966  0.96856278  0.77325330  1  -1.169715  0  -0.363325  -0.56907  0  2.205295  0
O  O337  1  0.16857356  0.96856342  0.22674674  1  -1.169194  0  -0.363332  -0.569031  0  2.205282  0
O  O338  1  0.16857449  0.53143736  0.27325295  1  -1.16916  0  -0.363355  -0.569082  0  2.205244  0
O  O339  1  0.33142448  0.53143714  0.72674694  1  -1.169206  0  -0.363321  -0.569035  0  2.20532  0
O  O340  1  0.73500952  0.58530777  0.38507506  1  -1.174599  0  -0.349749  -0.559893  0  2.185449  0
O  O341  1  0.76499139  0.58530743  0.61492493  1  -1.174609  0  -0.349751  -0.559907  0  2.185491  0
O  O342  1  0.76499035  0.91469206  0.88507514  1  -1.174598  0  -0.349747  -0.559866  0  2.185491  0
O  O343  1  0.73500691  0.91469400  0.11492442  1  -1.174508  0  -0.349771  -0.559918  0  2.185411  0
O  O344  1  0.26499364  0.41469423  0.61492445  1  -1.174506  0  -0.349766  -0.559887  0  2.185407  0
O  O345  1  0.23500915  0.41469410  0.38507566  1  -1.17447  0  -0.349738  -0.559864  0  2.185403  0
O  O346  1  0.23500759  0.08530806  0.11492518  1  -1.17442  0  -0.349786  -0.559893  0  2.185501  0
O  O347  1  0.26499233  0.08530707  0.88507482  1  -1.174525  0  -0.349766  -0.559896  0  2.185422  0
O  O348  1  0.97164784  0.42247850  0.32448756  1  -1.222498  0  -0.42604  -0.671719  0  2.301741  0
O  O349  1  0.52835033  0.42247819  0.67551265  1  -1.222513  0  -0.426046  -0.671678  0  2.301663  0
O  O350  1  0.52835215  0.07752032  0.82448761  1  -1.222512  0  -0.426082  -0.671745  0  2.301735  0
O  O351  1  0.97164575  0.07752141  0.17551220  1  -1.222474  0  -0.426055  -0.671722  0  2.301677  0
O  O352  1  0.02835400  0.57752116  0.67551223  1  -1.22248  0  -0.426053  -0.671717  0  2.301671  0
O  O353  1  0.47164630  0.57752147  0.32448795  1  -1.222469  0  -0.426028  -0.671664  0  2.301742  0
O  O354  1  0.47164839  0.92247840  0.17551244  1  -1.222498  0  -0.426054  -0.67175  0  2.301735  0
O  O355  1  0.02835349  0.92247778  0.82448786  1  -1.222438  0  -0.426038  -0.671691  0  2.301769  0
F  F356  1  0.94711827  0.07619929  0.35154661  1  -0.624911  0  -0.091865  -0.1954  0  1.323574  0
F  F357  1  0.55288093  0.07619849  0.64845374  1  -0.624805  0  -0.091873  -0.195388  0  1.323547  0
F  F358  1  0.55288018  0.42380143  0.85154597  1  -0.624809  0  -0.091853  -0.195375  0  1.323518  0
F  F359  1  0.94711408  0.42379687  0.14845450  1  -0.624762  0  -0.091872  -0.195351  0  1.323594  0
F  F360  1  0.05288879  0.92379663  0.64845371  1  -0.624894  0  -0.091886  -0.195394  0  1.323555  0
F  F361  1  0.44711701  0.92380071  0.35154659  1  -0.624832  0  -0.091857  -0.195374  0  1.323569  0
F  F362  1  0.44711775  0.57619963  0.14845435  1  -0.624853  0  -0.09191  -0.195397  0  1.323543  0
F  F363  1  0.05287994  0.57620045  0.85154582  1  -0.624901  0  -0.091879  -0.195397  0  1.323569  0
F  F364  1  0.01685189  0.08846625  0.40876152  1  -0.606246  0  -0.09739  -0.200596  0  1.313495  0
F  F365  1  0.48314803  0.08846591  0.59123848  1  -0.606243  0  -0.097408  -0.200612  0  1.313523  0
F  F366  1  0.48314808  0.41153401  0.90876125  1  -0.606211  0  -0.097485  -0.20071  0  1.313618  0
F  F367  1  0.01685470  0.41153496  0.09123941  1  -0.606158  0  -0.097427  -0.200636  0  1.313782  0
F  F368  1  0.98314475  0.91153387  0.59123853  1  -0.606211  0  -0.097482  -0.200683  0  1.313706  0
F  F369  1  0.51685251  0.91153422  0.40876157  1  -0.60624  0  -0.097425  -0.200643  0  1.313489  0
F  F370  1  0.51685247  0.58846519  0.09123934  1  -0.606186  0  -0.097433  -0.200619  0  1.313693  0
F  F371  1  0.98314845  0.58846564  0.90876092  1  -0.606206  0  -0.097462  -0.20065  0  1.313692  0
F  F372  1  0.26629191  0.17516858  0.42328933  1  -0.614566  0  -0.097637  -0.202559  0  1.344604  0
F  F373  1  0.23370677  0.17516773  0.57671097  1  -0.614525  0  -0.097621  -0.202556  0  1.344674  0
F  F374  1  0.23370792  0.32483076  0.92328858  1  -0.614532  0  -0.097603  -0.202526  0  1.344599  0
F  F375  1  0.26629218  0.32483172  0.07671096  1  -0.614552  0  -0.097637  -0.202582  0  1.344621  0
F  F376  1  0.73370733  0.82483154  0.57671072  1  -0.614559  0  -0.097656  -0.202614  0  1.34467  0
F  F377  1  0.76629378  0.82483100  0.42328881  1  -0.614527  0  -0.097625  -0.202522  0  1.3447  0
F  F378  1  0.76629523  0.67516797  0.07671120  1  -0.614505  0  -0.097602  -0.202501  0  1.344696  0
F  F379  1  0.73370575  0.67516701  0.92328936  1  -0.614519  0  -0.097673  -0.202578  0  1.344627  0
F  F380  1  0.47798491  0.18334578  0.38378293  1  -0.623473  0  -0.090945  -0.196378  0  1.324867  0
F  F381  1  0.02201248  0.18334541  0.61621765  1  -0.623351  0  -0.09098  -0.196386  0  1.324851  0
F  F382  1  0.02201136  0.31665586  0.88378172  1  -0.623345  0  -0.090971  -0.196397  0  1.324856  0
F  F383  1  0.47798743  0.31665547  0.11621701  1  -0.623455  0  -0.090945  -0.196359  0  1.324853  0
F  F384  1  0.52201303  0.81665481  0.61621685  1  -0.623452  0  -0.090956  -0.196372  0  1.324815  0
F  F385  1  0.97798807  0.81665565  0.38378186  1  -0.623479  0  -0.090989  -0.19636  0  1.324934  0
F  F386  1  0.97798788  0.68334474  0.11621779  1  -0.623492  0  -0.09097  -0.196337  0  1.324885  0
F  F387  1  0.52201181  0.68334559  0.88378304  1  -0.623497  0  -0.09092  -0.196329  0  1.324846  0
F  F388  1  0.16716416  0.02451077  0.37459484  1  -0.612999  0  -0.09705  -0.201377  0  1.346382  0
F  F389  1  0.33283701  0.02451044  0.62540514  1  -0.61282  0  -0.096997  -0.201305  0  1.346439  0
F  F390  1  0.33283219  0.47548946  0.87459492  1  -0.612793  0  -0.097062  -0.201381  0  1.346367  0
F  F391  1  0.16715630  0.47548905  0.12540874  1  -0.612915  0  -0.096986  -0.201315  0  1.346584  0
F  F392  1  0.83284290  0.97548889  0.62540765  1  -0.613062  0  -0.096982  -0.201342  0  1.346493  0
F  F393  1  0.66716223  0.97548922  0.37459464  1  -0.612967  0  -0.097006  -0.201321  0  1.346423  0
F  F394  1  0.66716314  0.52451067  0.12540594  1  -0.613012  0  -0.09702  -0.201358  0  1.346429  0
F  F395  1  0.83283642  0.52450967  0.87459457  1  -0.61283  0  -0.097056  -0.201377  0  1.346398  0
F  F396  1  0.41622462  0.09225780  0.40789218  1  -0.604913  0  -0.097512  -0.201226  0  1.315059  0
F  F397  1  0.08377400  0.09225695  0.59210809  1  -0.604959  0  -0.097471  -0.201187  0  1.315059  0
F  F398  1  0.08377796  0.40774339  0.90789234  1  -0.604932  0  -0.097527  -0.201223  0  1.315031  0
F  F399  1  0.41622221  0.40774345  0.09210778  1  -0.604938  0  -0.097543  -0.201255  0  1.315051  0
F  F400  1  0.58377853  0.90774326  0.59210787  1  -0.604913  0  -0.097537  -0.201246  0  1.315008  0
F  F401  1  0.91622263  0.90774412  0.40789223  1  -0.604944  0  -0.097424  -0.201108  0  1.315042  0
F  F402  1  0.91622389  0.59225627  0.09210853  1  -0.604964  0  -0.097427  -0.201113  0  1.315087  0
F  F403  1  0.58377312  0.59225668  0.90789200  1  -0.604983  0  -0.097484  -0.201192  0  1.315054  0
F  F404  1  0.05117976  0.81798631  0.50411690  1  -0.610363  0  -0.096681  -0.201076  0  1.309578  0
F  F405  1  0.44881813  0.81798679  0.49588281  1  -0.610376  0  -0.096662  -0.201029  0  1.309585  0
F  F406  1  0.44881631  0.68201448  0.00411704  1  -0.610343  0  -0.096649  -0.201027  0  1.309628  0
F  F407  1  0.05118017  0.68201405  0.99588371  1  -0.610371  0  -0.096684  -0.201064  0  1.309599  0
F  F408  1  0.94881687  0.18201429  0.49588342  1  -0.610361  0  -0.096649  -0.201024  0  1.309593  0
F  F409  1  0.55118242  0.18201334  0.50411697  1  -0.610366  0  -0.096655  -0.201047  0  1.309528  0
F  F410  1  0.55118163  0.31798658  0.99588328  1  -0.610371  0  -0.096677  -0.201028  0  1.309559  0
F  F411  1  0.94882689  0.31798327  0.00411634  1  -0.610351  0  -0.096608  -0.201029  0  1.309704  0
F  F412  1  0.21803367  0.79857126  0.55074919  1  -0.615373  0  -0.094547  -0.200119  0  1.348779  0
F  F413  1  0.28196421  0.79857168  0.44925134  1  -0.615376  0  -0.094483  -0.200058  0  1.348828  0
F  F414  1  0.28196591  0.70143052  0.05074858  1  -0.615583  0  -0.094517  -0.200077  0  1.348764  0
F  F415  1  0.21803450  0.70142958  0.94925136  1  -0.615336  0  -0.094506  -0.200081  0  1.348779  0
F  F416  1  0.78196427  0.20143027  0.44925114  1  -0.615355  0  -0.094487  -0.200056  0  1.348839  0
F  F417  1  0.71803503  0.20142939  0.55074845  1  -0.615344  0  -0.094545  -0.200128  0  1.348791  0
F  F418  1  0.71803594  0.29857195  0.94925147  1  -0.615363  0  -0.094476  -0.200034  0  1.34883  0
F  F419  1  0.78197126  0.29857148  0.05074842  1  -0.615572  0  -0.094555  -0.200113  0  1.348879  0
F  F420  1  0.99789249  0.73657666  0.53865578  1  -0.626717  0  -0.090762  -0.195716  0  1.328314  0
F  F421  1  0.50210724  0.73657706  0.46134454  1  -0.626682  0  -0.090776  -0.195689  0  1.328325  0
F  F422  1  0.50210779  0.76342422  0.03865557  1  -0.626729  0  -0.090775  -0.195729  0  1.328309  0
F  F423  1  0.99789065  0.76342379  0.96134502  1  -0.626694  0  -0.090782  -0.19572  0  1.328261  0
F  F424  1  0.00210675  0.26342440  0.46134482  1  -0.626706  0  -0.090791  -0.195719  0  1.328321  0
F  F425  1  0.49789070  0.26342260  0.53865606  1  -0.626715  0  -0.090766  -0.195736  0  1.328293  0
F  F426  1  0.49789406  0.23657779  0.96134421  1  -0.626679  0  -0.090756  -0.195648  0  1.328318  0
F  F427  1  0.00210598  0.23657353  0.03865584  1  -0.626771  0  -0.090799  -0.195701  0  1.328226  0
