# generated using pymatgen
data_CdH14C24S4(NO2)2
_symmetry_space_group_name_H-M   'P 1'
_cell_length_a   17.04092492
_cell_length_b   19.38644453
_cell_length_c   19.62640556
_cell_angle_alpha   90.00010823
_cell_angle_beta   89.99993561
_cell_angle_gamma   99.15669382
_symmetry_Int_Tables_number   1
_chemical_formula_structural   CdH14C24S4(NO2)2
_chemical_formula_sum   'Cd8 H112 C192 S32 N16 O32'
_cell_volume   6401.21249505
_cell_formula_units_Z   8
loop_
 _symmetry_equiv_pos_site_id
 _symmetry_equiv_pos_as_xyz
  1  'x, y, z'
loop_
 _atom_site_type_symbol
 _atom_site_label
 _atom_site_symmetry_multiplicity
 _atom_site_fract_x
 _atom_site_fract_y
 _atom_site_fract_z
 _atom_site_occupancy
 _atom_site_pbe_bader_charge
 _atom_site_pbe_bader_spin_density
 _atom_site_pbe_cm5_charge
 _atom_site_pbe_ddec_charge
 _atom_site_pbe_ddec_spin_density
 _atom_site_pbe_ddec_sum_bond_order
 _atom_site_pbe_magmom
Cd  Cd0  1  0.66041820  0.65837787  0.43764131  1  1.272219  0  0.765131  0.856184  0  2.263888  0
Cd  Cd1  1  0.83957926  0.34162230  0.93764129  1  1.272192  0  0.765114  0.856184  0  2.263883  0
Cd  Cd2  1  0.33958038  0.34162379  0.56235937  1  1.272122  0  0.765116  0.856156  0  2.263926  0
Cd  Cd3  1  0.16041818  0.65837623  0.06235735  1  1.272195  0  0.765128  0.856198  0  2.263906  0
Cd  Cd4  1  0.83777635  0.69398198  0.55997389  1  1.268735  0  0.765082  0.862285  0  2.243789  0
Cd  Cd5  1  0.66222158  0.30601805  0.05997427  1  1.268797  0  0.765107  0.86234  0  2.243749  0
Cd  Cd6  1  0.16222186  0.30601759  0.44002627  1  1.268733  0  0.765112  0.862328  0  2.243773  0
Cd  Cd7  1  0.33777645  0.69398048  0.94002641  1  1.268705  0  0.765111  0.862375  0  2.243727  0
H  H8  1  0.01364491  0.72093320  0.39611905  1  0.118819  0  0.087184  0.088549  0  1.072598  0
H  H9  1  0.48635557  0.27906689  0.89611877  1  0.118834  0  0.087198  0.088592  0  1.072563  0
H  H10  1  0.98635583  0.27906742  0.60388112  1  0.118864  0  0.087208  0.088606  0  1.072547  0
H  H11  1  0.51364363  0.72093164  0.10388037  1  0.118836  0  0.0872  0.088602  0  1.072504  0
H  H12  1  0.10164006  0.70567950  0.29584847  1  0.097841  0  0.088018  0.084312  0  1.066966  0
H  H13  1  0.39836139  0.29432199  0.79584779  1  0.097869  0  0.088025  0.084322  0  1.066903  0
H  H14  1  0.89836195  0.29432166  0.70415221  1  0.097878  0  0.088031  0.084327  0  1.066942  0
H  H15  1  0.60163809  0.70567811  0.20415135  1  0.097887  0  0.08803  0.084306  0  1.066882  0
H  H16  1  0.89523838  0.64468312  0.17136471  1  0.072552  0  0.096377  0.097751  0  1.022473  0
H  H17  1  0.60476268  0.35531555  0.67136444  1  0.072539  0  0.096369  0.097731  0  1.022483  0
H  H18  1  0.10476366  0.35531490  0.82863597  1  0.072537  0  0.096356  0.097705  0  1.022515  0
H  H19  1  0.39523621  0.64468455  0.32863369  1  0.072564  0  0.096357  0.097725  0  1.022535  0
H  H20  1  0.80725184  0.65279481  0.27327797  1  0.075416  0  0.102735  0.113689  0  1.00268  0
H  H21  1  0.69274872  0.34720508  0.77327862  1  0.075401  0  0.102746  0.113696  0  1.002634  0
H  H22  1  0.19274949  0.34720582  0.72672118  1  0.075389  0  0.102729  0.113648  0  1.002683  0
H  H23  1  0.30724899  0.65279501  0.22672002  1  0.075358  0  0.102728  0.113635  0  1.002698  0
H  H24  1  0.69141503  0.68422654  0.72984510  1  0.099902  0  0.1016  0.111221  0  1.006606  0
H  H25  1  0.80858113  0.31576803  0.22984586  1  0.099831  0  0.101604  0.111233  0  1.00652  0
H  H26  1  0.30858390  0.31577042  0.27015659  1  0.099891  0  0.101592  0.111202  0  1.006593  0
H  H27  1  0.19141557  0.68422631  0.77015481  1  0.099888  0  0.101597  0.111218  0  1.006583  0
H  H28  1  0.60749211  0.69984806  0.83267550  1  0.074935  0  0.089258  0.08895  0  1.046429  0
H  H29  1  0.89250562  0.30014618  0.33267411  1  0.075211  0  0.089273  0.08898  0  1.046444  0
H  H30  1  0.39250790  0.30014839  0.16732823  1  0.075012  0  0.089261  0.088968  0  1.046358  0
H  H31  1  0.10749275  0.69984765  0.66732402  1  0.074904  0  0.089289  0.088982  0  1.04639  0
H  H32  1  0.40023873  0.68247183  0.70580263  1  0.066422  0  0.091089  0.089531  0  1.055632  0
H  H33  1  0.09976270  0.31753890  0.20580258  1  0.066358  0  0.091097  0.089531  0  1.055644  0
H  H34  1  0.59976204  0.31753558  0.29420161  1  0.066347  0  0.091089  0.089534  0  1.055675  0
H  H35  1  0.90023871  0.68247218  0.79419657  1  0.066434  0  0.091069  0.089474  0  1.055699  0
H  H36  1  0.48495016  0.67076458  0.60256055  1  0.083297  0  0.091165  0.09422  0  1.06893  0
H  H37  1  0.01504904  0.32925275  0.10256264  1  0.084033  0  0.09117  0.094116  0  1.069131  0
H  H38  1  0.51504877  0.32924910  0.39744064  1  0.084153  0  0.091119  0.094082  0  1.069186  0
H  H39  1  0.98494936  0.67076458  0.89743855  1  0.083315  0  0.091172  0.094267  0  1.068904  0
H  H40  1  0.88270553  0.84180661  0.48716394  1  0.131629  0  0.118023  0.097805  0  1.000665  0
H  H41  1  0.61729198  0.15819417  0.98716481  1  0.131423  0  0.117989  0.097768  0  1.000749  0
H  H42  1  0.11729201  0.15819244  0.51283470  1  0.131446  0  0.118013  0.09778  0  1.00071  0
H  H43  1  0.38270731  0.84180489  0.01283586  1  0.131602  0  0.118001  0.09776  0  1.000721  0
H  H44  1  0.87227202  0.96810488  0.50119210  1  0.071666  0  0.100756  0.112987  0  1.019401  0
H  H45  1  0.62772967  0.03189609  0.00118996  1  0.071653  0  0.10081  0.113064  0  1.01938  0
H  H46  1  0.12772854  0.03189470  0.49880704  1  0.071671  0  0.100756  0.112987  0  1.019432  0
H  H47  1  0.37227247  0.96810245  0.99880970  1  0.071683  0  0.100804  0.113047  0  1.019389  0
H  H48  1  0.74047418  0.91129666  0.68719255  1  0.067081  0  0.101643  0.107963  0  1.015713  0
H  H49  1  0.75952909  0.08870465  0.18719038  1  0.067092  0  0.101627  0.107918  0  1.015787  0
H  H50  1  0.25952919  0.08870554  0.31280813  1  0.067072  0  0.101657  0.107968  0  1.015652  0
H  H51  1  0.24047351  0.91129650  0.81280825  1  0.067111  0  0.101628  0.107949  0  1.015754  0
H  H52  1  0.75768245  0.78852616  0.66492905  1  0.105341  0  0.119532  0.093709  0  1.005964  0
H  H53  1  0.74231469  0.21147353  0.16492917  1  0.105362  0  0.119501  0.09367  0  1.005954  0
H  H54  1  0.24231771  0.21147447  0.33507162  1  0.105347  0  0.119495  0.093665  0  1.005996  0
H  H55  1  0.25768429  0.78852709  0.83507049  1  0.105366  0  0.119519  0.093691  0  1.005933  0
H  H56  1  0.70872625  0.01788450  0.68539109  1  0.09074  0  0.11529  0.143604  0  0.990068  0
H  H57  1  0.79127310  0.98211784  0.18539159  1  0.090627  0  0.115289  0.143557  0  0.990054  0
H  H58  1  0.29127626  0.98211613  0.31460805  1  0.090603  0  0.115307  0.143581  0  0.990031  0
H  H59  1  0.20872891  0.01788331  0.81460909  1  0.090654  0  0.115278  0.14359  0  0.99005  0
H  H60  1  0.94185532  0.35522979  0.45072836  1  0.177539  0  0.120455  0.159664  0  1.012402  0
H  H61  1  0.55814837  0.64477252  0.95072460  1  0.177611  0  0.120477  0.159659  0  1.012424  0
H  H62  1  0.05814941  0.64477346  0.54927487  1  0.177647  0  0.120498  0.159715  0  1.012393  0
H  H63  1  0.44185549  0.35522917  0.04927455  1  0.177497  0  0.120525  0.159754  0  1.012397  0
H  H64  1  0.92460445  0.58960652  0.46740102  1  0.080014  0  0.117058  0.091248  0  0.993955  0
H  H65  1  0.57539534  0.41039371  0.96739884  1  0.079965  0  0.117053  0.091219  0  0.994006  0
H  H66  1  0.07539571  0.41039411  0.53260118  1  0.07994  0  0.117039  0.091199  0  0.994069  0
H  H67  1  0.42460423  0.58960691  0.03259877  1  0.080024  0  0.117057  0.091212  0  0.993978  0
H  H68  1  0.93606393  0.46470892  0.45605394  1  0.063968  0  0.110519  0.121707  0  0.997657  0
H  H69  1  0.56393460  0.53529077  0.95605303  1  0.06394  0  0.110513  0.121673  0  0.997669  0
H  H70  1  0.06393622  0.53529171  0.54394877  1  0.06393  0  0.110546  0.121728  0  0.997611  0
H  H71  1  0.43606556  0.46470986  0.04394612  1  0.063948  0  0.110517  0.121678  0  0.997661  0
H  H72  1  0.76013436  0.42181300  0.61647205  1  0.119364  0  0.105622  0.118233  0  1.008465  0
H  H73  1  0.73986360  0.57818765  0.11647133  1  0.119401  0  0.105607  0.11822  0  1.008544  0
H  H74  1  0.23986385  0.57818658  0.38352811  1  0.119381  0  0.105611  0.118221  0  1.00849  0
H  H75  1  0.26013609  0.42181036  0.88352833  1  0.119228  0  0.105631  0.118251  0  1.008474  0
H  H76  1  0.75496209  0.54962924  0.61923478  1  0.139107  0  0.122528  0.104404  0  0.986365  0
H  H77  1  0.74503587  0.45037141  0.11923483  1  0.139148  0  0.122544  0.104428  0  0.986345  0
H  H78  1  0.24503494  0.45037033  0.38076539  1  0.13915  0  0.122554  0.104423  0  0.986365  0
H  H79  1  0.25496257  0.54962607  0.88076482  1  0.139176  0  0.122533  0.104366  0  0.986415  0
H  H80  1  0.73513657  0.53327666  0.37454147  1  0.130859  0  0.12189  0.102124  0  0.98799  0
H  H81  1  0.76486416  0.46672498  0.87454074  1  0.130877  0  0.121896  0.10213  0  0.98798  0
H  H82  1  0.26486201  0.46672500  0.62546073  1  0.13083  0  0.121912  0.102175  0  0.987929  0
H  H83  1  0.23513630  0.53327408  0.12545841  1  0.130905  0  0.121898  0.102142  0  0.987949  0
H  H84  1  0.72899028  0.40429524  0.38235226  1  0.061775  0  0.105062  0.117927  0  1.004487  0
H  H85  1  0.77101036  0.59570589  0.88235176  1  0.062088  0  0.105049  0.117906  0  1.004472  0
H  H86  1  0.27100870  0.59570538  0.61764944  1  0.062013  0  0.105072  0.117952  0  1.004496  0
H  H87  1  0.22898961  0.40429369  0.11764687  1  0.062103  0  0.105069  0.117914  0  1.004507  0
H  H88  1  0.55672816  0.40543290  0.54533124  1  0.150899  0  0.110587  0.136641  0  1.039592  0
H  H89  1  0.94327154  0.59456711  0.04533086  1  0.150914  0  0.110589  0.136621  0  1.039546  0
H  H90  1  0.44326906  0.59456771  0.45467045  1  0.150963  0  0.110613  0.136638  0  1.039545  0
H  H91  1  0.05672892  0.40543195  0.95466675  1  0.150853  0  0.11057  0.136596  0  1.03962  0
H  H92  1  0.57097016  0.53399011  0.52957401  1  0.102255  0  0.117272  0.090433  0  0.999201  0
H  H93  1  0.92903014  0.46600986  0.02957392  1  0.102255  0  0.117269  0.090395  0  0.999228  0
H  H94  1  0.42902833  0.46601103  0.47042666  1  0.10231  0  0.117257  0.090308  0  0.999355  0
H  H95  1  0.07097033  0.53398919  0.97042472  1  0.102257  0  0.117265  0.0904  0  0.999234  0
H  H96  1  0.54763199  0.29499238  0.55136893  1  0.228653  0  0.121199  0.172873  0  1.025545  0
H  H97  1  0.95236789  0.70500868  0.05137027  1  0.228629  0  0.12118  0.172856  0  1.025533  0
H  H98  1  0.45236681  0.70500719  0.44863073  1  0.228655  0  0.121194  0.172884  0  1.025528  0
H  H99  1  0.04763023  0.29499037  0.94862989  1  0.228591  0  0.121178  0.172844  0  1.025538  0
H  H100  1  0.79731992  0.02389564  0.32614748  1  0.092313  0  0.116128  0.145601  0  0.98602  0
H  H101  1  0.70267973  0.97610278  0.82614879  1  0.092291  0  0.116128  0.145618  0  0.986024  0
H  H102  1  0.20268317  0.97610500  0.67385319  1  0.092028  0  0.116123  0.145575  0  0.98599  0
H  H103  1  0.29732124  0.02389576  0.17384934  1  0.092317  0  0.11614  0.145627  0  0.985998  0
H  H104  1  0.75538379  0.78048411  0.34364556  1  0.119356  0  0.120892  0.096842  0  0.986038  0
H  H105  1  0.74461652  0.21951486  0.84364388  1  0.119329  0  0.1209  0.096837  0  0.986023  0
H  H106  1  0.24461813  0.21951652  0.65635410  1  0.11905  0  0.120906  0.096834  0  0.986083  0
H  H107  1  0.25538318  0.78048315  0.15635527  1  0.119015  0  0.120922  0.096864  0  0.986008  0
H  H108  1  0.77097907  0.90819190  0.32334445  1  0.07481  0  0.10179  0.107196  0  1.012194  0
H  H109  1  0.72902203  0.09180808  0.82334356  1  0.074776  0  0.101773  0.10716  0  1.012243  0
H  H110  1  0.22902245  0.09180977  0.67665419  1  0.07486  0  0.101804  0.107167  0  1.012211  0
H  H111  1  0.27097835  0.90819046  0.17665711  1  0.074786  0  0.101771  0.107154  0  1.01223  0
H  H112  1  0.62447374  0.92192704  0.50198906  1  0.067682  0  0.099788  0.111008  0  1.023216  0
H  H113  1  0.87552375  0.07807340  0.00198982  1  0.067681  0  0.099798  0.111032  0  1.0232  0
H  H114  1  0.37552398  0.07807305  0.49800753  1  0.067613  0  0.099815  0.111079  0  1.023127  0
H  H115  1  0.12447672  0.92192566  0.99800983  1  0.067705  0  0.099808  0.111017  0  1.023225  0
H  H116  1  0.61565057  0.79290698  0.51394885  1  0.136076  0  0.116989  0.094974  0  1.004174  0
H  H117  1  0.88434632  0.20709348  0.01394883  1  0.136502  0  0.11696  0.094894  0  1.004237  0
H  H118  1  0.38434715  0.20709311  0.48604876  1  0.1365  0  0.116961  0.094927  0  1.004215  0
H  H119  1  0.11565180  0.79290557  0.98605134  1  0.136523  0  0.116991  0.094946  0  1.004208  0
C  C120  1  0.85436942  0.68847616  0.40229498  1  1.562872  0  0.200314  0.564824  0  4.25565  0
C  C121  1  0.64563033  0.31152344  0.90229459  1  1.563036  0  0.200279  0.564769  0  4.25566  0
C  C122  1  0.14563154  0.31152238  0.59770467  1  1.562532  0  0.200305  0.564825  0  4.255687  0
C  C123  1  0.35436905  0.68847614  0.09770303  1  1.562868  0  0.20037  0.564971  0  4.255336  0
C  C124  1  0.90583174  0.68681884  0.34053683  1  -0.103996  0  -0.023897  -0.033933  0  3.981096  0
C  C125  1  0.59416799  0.31318012  0.84053649  1  -0.104128  0  -0.023902  -0.033905  0  3.981082  0
C  C126  1  0.09416873  0.31318022  0.65946232  1  -0.104041  0  -0.023863  -0.033853  0  3.981009  0
C  C127  1  0.40583072  0.68681893  0.15946164  1  -0.103924  0  -0.023915  -0.033974  0  3.98106  0
C  C128  1  0.98861207  0.70335647  0.34684311  1  -0.018574  0  -0.095258  -0.09892  0  3.975977  0
C  C129  1  0.51138977  0.29664460  0.84684231  1  -0.018585  0  -0.095289  -0.098984  0  3.976038  0
C  C130  1  0.01139052  0.29664468  0.65315808  1  -0.018678  0  -0.09531  -0.099012  0  3.97618  0
C  C131  1  0.48860961  0.70335498  0.15315735  1  -0.018688  0  -0.09523  -0.098881  0  3.97605  0
C  C132  1  0.03712111  0.69578560  0.29130716  1  -0.001212  0  -0.09151  -0.094642  0  3.974652  0
C  C133  1  0.46287957  0.30421484  0.79130746  1  -0.001195  0  -0.09151  -0.094665  0  3.974612  0
C  C134  1  0.96287963  0.30421503  0.70869148  1  -0.001055  0  -0.09152  -0.094679  0  3.974686  0
C  C135  1  0.53711932  0.69578526  0.20869117  1  -0.001073  0  -0.091536  -0.094696  0  3.974663  0
C  C136  1  0.00346570  0.67418149  0.22815346  1  -0.038128  0  -0.017735  -0.015144  0  3.961039  0
C  C137  1  0.49653563  0.32581883  0.72815224  1  -0.038154  0  -0.017735  -0.015135  0  3.961181  0
C  C138  1  0.99653681  0.32581914  0.77184823  1  -0.037978  0  -0.017731  -0.01512  0  3.961122  0
C  C139  1  0.50346384  0.67418127  0.27184639  1  -0.038216  0  -0.01767  -0.015043  0  3.960883  0
C  C140  1  0.92049247  0.66041086  0.22111045  1  -0.074942  0  -0.092282  -0.10678  0  3.995579  0
C  C141  1  0.57950873  0.33958894  0.72111017  1  -0.074945  0  -0.092264  -0.106742  0  3.995724  0
C  C142  1  0.07950877  0.33958925  0.77888921  1  -0.074964  0  -0.092251  -0.106757  0  3.995874  0
C  C143  1  0.42048890  0.66041063  0.27888846  1  -0.074758  0  -0.092352  -0.106896  0  3.995794  0
C  C144  1  0.87181030  0.66541223  0.27729550  1  -0.029142  0  -0.091762  -0.10668  0  3.985575  0
C  C145  1  0.62819076  0.33458715  0.77729465  1  -0.029033  0  -0.09178  -0.106689  0  3.985492  0
C  C146  1  0.12819094  0.33458788  0.72270518  1  -0.029017  0  -0.091776  -0.106646  0  3.985481  0
C  C147  1  0.37180854  0.66541191  0.22270398  1  -0.029318  0  -0.091735  -0.106596  0  3.985708  0
C  C148  1  0.05695304  0.66557590  0.16934796  1  1.527764  0  0.185833  0.55188  0  4.231746  0
C  C149  1  0.44304622  0.33442222  0.66934834  1  1.527704  0  0.185809  0.55178  0  4.231857  0
C  C150  1  0.94304657  0.33442159  0.83065272  1  1.527488  0  0.185816  0.551779  0  4.231838  0
C  C151  1  0.55695335  0.66557840  0.33065183  1  1.527746  0  0.185827  0.551859  0  4.23166  0
C  C152  1  0.64078577  0.66909092  0.59754733  1  1.545929  0  0.202867  0.568368  0  4.241854  0
C  C153  1  0.85921100  0.33091282  0.09754857  1  1.546017  0  0.202908  0.568527  0  4.241496  0
C  C154  1  0.35921182  0.33091178  0.40245386  1  1.546068  0  0.202823  0.568301  0  4.241771  0
C  C155  1  0.14078501  0.66909092  0.90245261  1  1.545938  0  0.202888  0.568427  0  4.241742  0
C  C156  1  0.59249657  0.67681354  0.66025777  1  -0.020546  0  -0.022497  -0.031203  0  3.976296  0
C  C157  1  0.90750092  0.32319136  0.16025997  1  -0.020614  0  -0.022498  -0.031346  0  3.976464  0
C  C158  1  0.40750257  0.32319125  0.33974392  1  -0.020738  0  -0.022358  -0.031126  0  3.976246  0
C  C159  1  0.09249664  0.67681448  0.83974223  1  -0.020544  0  -0.022486  -0.031164  0  3.976317  0
C  C160  1  0.62769038  0.68474417  0.72506433  1  -0.054353  0  -0.09327  -0.109966  0  3.988984  0
C  C161  1  0.87230847  0.31525563  0.22506350  1  -0.054377  0  -0.093235  -0.10986  0  3.988859  0
C  C162  1  0.37230959  0.31525541  0.27493787  1  -0.054295  0  -0.093329  -0.109973  0  3.988964  0
C  C163  1  0.12769033  0.68474394  0.77493565  1  -0.054357  0  -0.093281  -0.109972  0  3.988973  0
C  C164  1  0.58105481  0.69270976  0.78203709  1  -0.020471  0  -0.096135  -0.109436  0  3.995624  0
C  C165  1  0.91894408  0.30729066  0.28203875  1  -0.020738  0  -0.096209  -0.109587  0  3.995526  0
C  C166  1  0.41894535  0.30729086  0.21796511  1  -0.02048  0  -0.096188  -0.109553  0  3.995528  0
C  C167  1  0.08105481  0.69270944  0.71796244  1  -0.020445  0  -0.096189  -0.10949  0  3.995635  0
C  C168  1  0.49886651  0.69143647  0.77495229  1  -0.00394  0  -0.018332  -0.014225  0  3.957888  0
C  C169  1  0.00113547  0.30857125  0.27495232  1  -0.003983  0  -0.018335  -0.014249  0  3.957886  0
C  C170  1  0.50113593  0.30857043  0.22505144  1  -0.003967  0  -0.018286  -0.014158  0  3.957809  0
C  C171  1  0.99886705  0.69143617  0.72504683  1  -0.003974  0  -0.018318  -0.014231  0  3.95793  0
C  C172  1  0.46409626  0.68333520  0.71015235  1  -0.068023  0  -0.091198  -0.095396  0  3.982503  0
C  C173  1  0.03590634  0.31667553  0.21015338  1  -0.067686  0  -0.091114  -0.095378  0  3.982397  0
C  C174  1  0.53590663  0.31667431  0.28984832  1  -0.067825  0  -0.091179  -0.095435  0  3.982394  0
C  C175  1  0.96409625  0.68333554  0.78984678  1  -0.067971  0  -0.091134  -0.095228  0  3.982438  0
C  C176  1  0.51065874  0.67662397  0.65330289  1  -0.056436  0  -0.096019  -0.101005  0  3.983416  0
C  C177  1  0.98934035  0.32338666  0.15330298  1  -0.057366  0  -0.096093  -0.100823  0  3.983515  0
C  C178  1  0.48934014  0.32338604  0.34670033  1  -0.057444  0  -0.096074  -0.10086  0  3.983403  0
C  C179  1  0.01065890  0.67662544  0.84669667  1  -0.05646  0  -0.096056  -0.101177  0  3.98352  0
C  C180  1  0.44619648  0.69657577  0.83523284  1  1.539307  0  0.18261  0.550072  0  4.239939  0
C  C181  1  0.05380561  0.30342631  0.33523077  1  1.539185  0  0.182728  0.550252  0  4.239768  0
C  C182  1  0.55380640  0.30342695  0.16477089  1  1.539335  0  0.182727  0.550206  0  4.239801  0
C  C183  1  0.94619686  0.69657746  0.66476685  1  1.539204  0  0.182538  0.55  0  4.239942  0
C  C184  1  0.85190955  0.86021480  0.53066200  1  0.539176  0  0.047521  0.101864  0  3.956875  0
C  C185  1  0.64809076  0.13978518  0.03066208  1  0.539382  0  0.047529  0.101867  0  3.956976  0
C  C186  1  0.14809052  0.13978530  0.46933714  1  0.539405  0  0.047536  0.101862  0  3.956891  0
C  C187  1  0.35191021  0.86021336  0.96933707  1  0.539216  0  0.047518  0.101877  0  3.956983  0
C  C188  1  0.84578553  0.93028472  0.53907879  1  -0.055373  0  -0.093787  -0.188075  0  3.950431  0
C  C189  1  0.65421613  0.06971632  0.03907618  1  -0.055425  0  -0.093825  -0.188148  0  3.950451  0
C  C190  1  0.15421612  0.06971434  0.46092086  1  -0.055352  0  -0.093781  -0.188045  0  3.950385  0
C  C191  1  0.34578561  0.93028326  0.96092296  1  -0.05547  0  -0.093834  -0.188121  0  3.950447  0
C  C192  1  0.80374297  0.95149194  0.59509928  1  -0.016568  0  0.002526  0.118432  0  4.027913  0
C  C193  1  0.69626156  0.04850922  0.09509659  1  -0.016561  0  0.002441  0.118363  0  4.028005  0
C  C194  1  0.19626012  0.04850870  0.40490140  1  -0.016605  0  0.002444  0.118306  0  4.027949  0
C  C195  1  0.30374076  0.95149037  0.90490358  1  -0.016211  0  0.002548  0.118417  0  4.027962  0
C  C196  1  0.77183121  0.89895663  0.64152700  1  -0.077899  0  -0.088927  -0.177647  0  3.944759  0
C  C197  1  0.72817074  0.10104355  0.14152540  1  -0.07788  0  -0.088878  -0.177528  0  3.944733  0
C  C198  1  0.22817188  0.10104401  0.35847418  1  -0.077938  0  -0.088897  -0.177525  0  3.94465  0
C  C199  1  0.27183176  0.89895708  0.85847375  1  -0.077919  0  -0.088919  -0.177637  0  3.94482  0
C  C200  1  0.78118229  0.83022339  0.62969797  1  0.547824  0  0.04649  0.097364  0  3.956584  0
C  C201  1  0.71881625  0.16977728  0.12969803  1  0.547833  0  0.046544  0.097441  0  3.956387  0
C  C202  1  0.21881845  0.16977723  0.37030270  1  0.547883  0  0.046536  0.097377  0  3.956515  0
C  C203  1  0.28118342  0.83022387  0.87030162  1  0.547829  0  0.046479  0.097399  0  3.956508  0
C  C204  1  0.79409873  0.02430935  0.60324102  1  -0.074786  0  -0.022522  -0.008679  0  4.070935  0
C  C205  1  0.70590657  0.97569286  0.10323700  1  -0.074345  0  -0.022568  -0.008872  0  4.070883  0
C  C206  1  0.20590495  0.97569129  0.39675915  1  -0.074896  0  -0.022533  -0.008763  0  4.070685  0
C  C207  1  0.29409535  0.02430777  0.89676368  1  -0.074775  0  -0.022564  -0.008753  0  4.07099  0
C  C208  1  0.74629045  0.05010748  0.64896823  1  -0.195519  0  -0.095956  -0.215415  0  4.029576  0
C  C209  1  0.75371255  0.94989533  0.14896667  1  -0.195552  0  -0.095849  -0.215144  0  4.029328  0
C  C210  1  0.25371264  0.94989316  0.35103091  1  -0.195344  0  -0.095929  -0.215301  0  4.029357  0
C  C211  1  0.24628947  0.05010582  0.85103503  1  -0.195453  0  -0.095854  -0.215262  0  4.029546  0
C  C212  1  0.80776605  0.15815703  0.58082745  1  -0.268817  0  -0.047454  -0.099775  0  4.074943  0
C  C213  1  0.69223430  0.84184356  0.08082931  1  -0.268775  0  -0.04748  -0.099794  0  4.075086  0
C  C214  1  0.19223803  0.84184257  0.41917169  1  -0.268928  0  -0.047527  -0.099855  0  4.075056  0
C  C215  1  0.30776626  0.15815602  0.91917391  1  -0.20178  0  -0.047477  -0.099761  0  4.075156  0
C  C216  1  0.82926327  0.22360074  0.55511775  1  -0.204841  0  -0.043414  -0.114128  0  4.091761  0
C  C217  1  0.67073661  0.77640033  0.05511951  1  -0.204678  0  -0.043398  -0.114184  0  4.091782  0
C  C218  1  0.17074109  0.77640042  0.44488088  1  -0.204367  0  -0.043351  -0.114144  0  4.091816  0
C  C219  1  0.32926405  0.22359978  0.94488371  1  -0.271849  0  -0.04339  -0.114205  0  4.091938  0
C  C220  1  0.90089809  0.32773857  0.48781461  1  -0.162434  0  -0.084782  -0.203662  0  3.996215  0
C  C221  1  0.59910440  0.67226379  0.98781392  1  -0.162461  0  -0.084761  -0.203535  0  3.996294  0
C  C222  1  0.09910705  0.67226364  0.51218606  1  -0.162472  0  -0.084846  -0.203707  0  3.996301  0
C  C223  1  0.40089771  0.32773788  0.01218777  1  -0.162464  0  -0.084846  -0.203688  0  3.996373  0
C  C224  1  0.85411527  0.35698041  0.53181508  1  -0.14086  0  -0.021508  -0.019702  0  4.061891  0
C  C225  1  0.64588648  0.64302114  0.03181355  1  -0.140827  0  -0.021577  -0.019901  0  4.062074  0
C  C226  1  0.14588742  0.64302126  0.46818662  1  -0.140808  0  -0.021533  -0.019751  0  4.061999  0
C  C227  1  0.35411593  0.35697897  0.96818712  1  -0.140733  0  -0.021552  -0.019814  0  4.062029  0
C  C228  1  0.88907101  0.55056112  0.49950214  1  0.516503  0  0.041674  0.089952  0  3.9765  0
C  C229  1  0.61092866  0.44943865  0.99950102  1  0.516546  0  0.041728  0.090009  0  3.97635  0
C  C230  1  0.11092720  0.44943846  0.50050057  1  0.516518  0  0.041734  0.090012  0  3.976317  0
C  C231  1  0.38907191  0.55056093  0.00049710  1  0.516663  0  0.04171  0.090043  0  3.976389  0
C  C232  1  0.89544669  0.48052403  0.49364415  1  -0.034095  0  -0.086815  -0.179892  0  3.945532  0
C  C233  1  0.60455325  0.51947730  0.99364317  1  -0.033891  0  -0.086806  -0.1798  0  3.945586  0
C  C234  1  0.10455424  0.51947765  0.50635653  1  -0.034092  0  -0.086922  -0.179986  0  3.945708  0
C  C235  1  0.39544681  0.48052280  0.00635547  1  -0.034122  0  -0.086903  -0.179968  0  3.945724  0
C  C236  1  0.84944592  0.43106849  0.53615318  1  -0.021627  0  0.005976  0.123726  0  4.029204  0
C  C237  1  0.65055429  0.56893097  0.03614998  1  -0.021859  0  0.005924  0.123656  0  4.02935  0
C  C238  1  0.15055338  0.56893056  0.46384953  1  -0.021651  0  0.006009  0.123783  0  4.029329  0
C  C239  1  0.34944736  0.43106809  0.96384814  1  -0.021662  0  0.005996  0.123791  0  4.02935  0
C  C240  1  0.79806452  0.45694038  0.58237361  1  -0.035845  0  -0.088381  -0.183348  0  3.935425  0
C  C241  1  0.70193483  0.54306125  0.08237286  1  -0.035783  0  -0.088331  -0.183282  0  3.935355  0
C  C242  1  0.20193505  0.54306024  0.41762655  1  -0.035779  0  -0.088387  -0.183371  0  3.935316  0
C  C243  1  0.29806613  0.45693729  0.91762628  1  -0.035652  0  -0.088325  -0.183319  0  3.93529  0
C  C244  1  0.79478776  0.52807975  0.58452130  1  0.465029  0  0.05089  0.106377  0  3.943184  0
C  C245  1  0.70521063  0.47191979  0.08452041  1  0.464997  0  0.050873  0.106356  0  3.943061  0
C  C246  1  0.20520977  0.47191929  0.41547988  1  0.465078  0  0.050875  0.106375  0  3.943219  0
C  C247  1  0.29478857  0.52807874  0.91547771  1  0.464952  0  0.050937  0.106497  0  3.943258  0
C  C248  1  0.69615699  0.50241350  0.41112992  1  0.513049  0  0.049415  0.107619  0  3.945817  0
C  C249  1  0.80384285  0.49758664  0.91112921  1  0.513045  0  0.049477  0.107675  0  3.945817  0
C  C250  1  0.30384199  0.49758712  0.58887177  1  0.513032  0  0.049448  0.107599  0  3.945741  0
C  C251  1  0.19615762  0.50241242  0.08886942  1  0.513057  0  0.049393  0.10756  0  3.945676  0
C  C252  1  0.69257255  0.43054770  0.41635343  1  -0.062723  0  -0.088576  -0.184234  0  3.941012  0
C  C253  1  0.80742806  0.56945349  0.91635387  1  -0.063047  0  -0.08859  -0.184242  0  3.94109  0
C  C254  1  0.30742535  0.56945344  0.58364826  1  -0.06307  0  -0.088662  -0.184402  0  3.941075  0
C  C255  1  0.19257250  0.43054609  0.08364527  1  -0.063052  0  -0.088599  -0.184285  0  3.940947  0
C  C256  1  0.64231199  0.39281484  0.46501286  1  0.008548  0  0.006724  0.119356  0  4.025024  0
C  C257  1  0.85768711  0.60718486  0.96501384  1  0.008525  0  0.006728  0.119346  0  4.025149  0
C  C258  1  0.35768581  0.60718577  0.53498781  1  0.008537  0  0.006851  0.119551  0  4.024998  0
C  C259  1  0.14231267  0.39281368  0.03498531  1  0.008552  0  0.006842  0.119516  0  4.024786  0
C  C260  1  0.59734925  0.43109539  0.50672764  1  -0.045212  0  -0.082979  -0.172515  0  3.902775  0
C  C261  1  0.90264863  0.56890402  0.00672776  1  -0.045211  0  -0.082931  -0.172402  0  3.902781  0
C  C262  1  0.40264738  0.56890522  0.49327354  1  -0.04521  0  -0.083057  -0.172621  0  3.902818  0
C  C263  1  0.09734989  0.43109399  0.99327036  1  -0.045243  0  -0.08292  -0.172391  0  3.902735  0
C  C264  1  0.60467548  0.50274554  0.49806692  1  0.46652  0  0.042077  0.085415  0  3.972036  0
C  C265  1  0.89532310  0.49725474  0.99806765  1  0.466523  0  0.042056  0.085405  0  3.972111  0
C  C266  1  0.39532115  0.49725507  0.50193324  1  0.466571  0  0.042067  0.085571  0  3.972225  0
C  C267  1  0.10467737  0.50274432  0.00193149  1  0.466555  0  0.042048  0.085334  0  3.972215  0
C  C268  1  0.63652742  0.31739632  0.47130483  1  -0.103364  0  -0.01857  -0.015905  0  4.060088  0
C  C269  1  0.86347236  0.68260392  0.97130594  1  -0.099843  0  -0.018585  -0.015954  0  4.059974  0
C  C270  1  0.36347147  0.68260378  0.52869584  1  -0.103396  0  -0.018602  -0.015984  0  4.060075  0
C  C271  1  0.13652625  0.31739461  0.02869372  1  -0.103374  0  -0.018673  -0.01605  0  4.060016  0
C  C272  1  0.58813654  0.27603160  0.51493532  1  -0.228845  0  -0.084707  -0.197385  0  3.954881  0
C  C273  1  0.91186396  0.72396940  0.01493674  1  -0.228878  0  -0.084644  -0.19728  0  3.954715  0
C  C274  1  0.41186343  0.72396798  0.48506484  1  -0.228828  0  -0.0847  -0.197389  0  3.954864  0
C  C275  1  0.08813552  0.27603070  0.98506444  1  -0.228832  0  -0.084659  -0.197287  0  3.954799  0
C  C276  1  0.66022665  0.19020429  0.44824597  1  -0.286927  0  -0.042853  -0.097818  0  4.095929  0
C  C277  1  0.83977492  0.80979592  0.94824632  1  -0.287335  0  -0.042811  -0.097714  0  4.095933  0
C  C278  1  0.33977116  0.80979633  0.55175318  1  -0.286982  0  -0.042818  -0.097788  0  4.095892  0
C  C279  1  0.16022302  0.19020209  0.05175486  1  -0.287003  0  -0.042779  -0.097675  0  4.095958  0
C  C280  1  0.68503858  0.13138587  0.42446467  1  -0.185762  0  -0.049555  -0.109942  0  4.084581  0
C  C281  1  0.81496301  0.86861429  0.92446465  1  -0.185351  0  -0.049592  -0.110056  0  4.084695  0
C  C282  1  0.31495944  0.86861266  0.57553192  1  -0.185598  0  -0.049606  -0.110009  0  4.084708  0
C  C283  1  0.18503453  0.13138475  0.07553653  1  -0.185354  0  -0.04964  -0.11013  0  4.085023  0
C  C284  1  0.70690860  0.00303386  0.40399263  1  -0.128209  0  -0.022004  -0.006397  0  4.066464  0
C  C285  1  0.79309252  0.99696679  0.90399287  1  -0.128247  0  -0.021997  -0.006378  0  4.066389  0
C  C286  1  0.29309274  0.99696677  0.59600651  1  -0.128249  0  -0.022011  -0.006479  0  4.066438  0
C  C287  1  0.20690551  0.00303174  0.09600831  1  -0.128131  0  -0.022041  -0.006476  0  4.066403  0
C  C288  1  0.75601470  0.04387142  0.36040902  1  -0.186785  0  -0.096929  -0.220276  0  4.034585  0
C  C289  1  0.74398501  0.95612757  0.86040872  1  -0.186762  0  -0.096929  -0.220284  0  4.034463  0
C  C290  1  0.24398781  0.95612921  0.63959115  1  -0.186445  0  -0.096911  -0.220175  0  4.03455  0
C  C291  1  0.25601361  0.04387096  0.13959094  1  -0.186854  0  -0.096894  -0.220218  0  4.034504  0
C  C292  1  0.72847006  0.81427913  0.37800696  1  0.515638  0  0.047802  0.099518  0  3.959847  0
C  C293  1  0.77152864  0.18572094  0.87800570  1  0.515749  0  0.047763  0.099469  0  3.959676  0
C  C294  1  0.27153019  0.18572202  0.62199167  1  0.516006  0  0.047809  0.099551  0  3.959807  0
C  C295  1  0.22847115  0.81427759  0.12199293  1  0.516015  0  0.047682  0.099455  0  3.959903  0
C  C296  1  0.73669256  0.88572706  0.36707482  1  -0.067052  0  -0.087711  -0.175164  0  3.943373  0
C  C297  1  0.76330587  0.11427142  0.86707394  1  -0.067085  0  -0.087687  -0.17508  0  3.943249  0
C  C298  1  0.26330741  0.11427252  0.63292382  1  -0.067031  0  -0.087673  -0.175088  0  3.943252  0
C  C299  1  0.23669373  0.88572607  0.13292622  1  -0.067019  0  -0.087628  -0.175086  0  3.9432  0
C  C300  1  0.69980974  0.92761567  0.41179371  1  0.028353  0  0.002614  0.117718  0  4.029354  0
C  C301  1  0.80018933  0.07238342  0.91179374  1  0.028363  0  0.002635  0.117686  0  4.029206  0
C  C302  1  0.30019042  0.07238495  0.58820442  1  0.028353  0  0.002603  0.117779  0  4.029204  0
C  C303  1  0.19980919  0.92761459  0.08820643  1  0.028713  0  0.002572  0.117754  0  4.029086  0
C  C304  1  0.65478495  0.89299890  0.46540005  1  -0.007542  0  -0.093693  -0.188148  0  3.953655  0
C  C305  1  0.84521141  0.10700184  0.96540112  1  -0.007534  0  -0.093746  -0.188216  0  3.953535  0
C  C306  1  0.34521268  0.10700067  0.53459757  1  -0.007454  0  -0.093787  -0.188332  0  3.953543  0
C  C307  1  0.15478789  0.89299722  0.03460007  1  -0.007851  0  -0.093684  -0.188122  0  3.953668  0
C  C308  1  0.64982757  0.82118779  0.47281754  1  0.451035  0  0.045447  0.101243  0  3.959847  0
C  C309  1  0.85016928  0.17881244  0.97281670  1  0.450661  0  0.045539  0.101438  0  3.959858  0
C  C310  1  0.35017083  0.17881283  0.52718109  1  0.450522  0  0.045513  0.101363  0  3.959861  0
C  C311  1  0.14982884  0.82118661  0.02718244  1  0.450579  0  0.04543  0.101283  0  3.959708  0
S  S312  1  0.84684519  0.08638105  0.54770261  1  0.164286  0  0.035844  0.046276  0  2.834787  0
S  S313  1  0.65315636  0.91361949  0.04770209  1  0.164094  0  0.035871  0.046339  0  2.834771  0
S  S314  1  0.15315586  0.91361801  0.45229501  1  0.164445  0  0.035843  0.046296  0  2.834769  0
S  S315  1  0.34684479  0.08638009  0.95229960  1  0.164025  0  0.035848  0.046293  0  2.834768  0
S  S316  1  0.74020740  0.13765076  0.64815105  1  0.241091  0  0.0646  0.138367  0  2.86265  0
S  S317  1  0.75978954  0.86235098  0.14815543  1  0.241128  0  0.064576  0.138321  0  2.862678  0
S  S318  1  0.25979452  0.86234987  0.35184554  1  0.241248  0  0.064622  0.138411  0  2.862722  0
S  S319  1  0.24021189  0.13765017  0.85184677  1  0.241036  0  0.064571  0.138326  0  2.862772  0
S  S320  1  0.89761911  0.23915366  0.48757149  1  0.295623  0  0.092508  0.183047  0  3.014038  0
S  S321  1  0.60238269  0.76084819  0.98757147  1  0.295258  0  0.092541  0.183092  0  3.01405  0
S  S322  1  0.10238543  0.76084855  0.51242766  1  0.295027  0  0.092584  0.183157  0  3.014061  0
S  S323  1  0.39761864  0.23915244  0.01243073  1  0.295531  0  0.092559  0.18314  0  3.014015  0
S  S324  1  0.79407556  0.29781350  0.58590952  1  0.17578  0  0.060042  0.08023  0  2.835484  0
S  S325  1  0.70592488  0.70218763  0.08590957  1  0.175766  0  0.060033  0.080284  0  2.83554  0
S  S326  1  0.20592735  0.70218609  0.41409013  1  0.175609  0  0.059986  0.080174  0  2.835519  0
S  S327  1  0.29407627  0.29781196  0.91409212  1  0.175775  0  0.059991  0.080189  0  2.8356  0
S  S328  1  0.75649917  0.13245953  0.35969730  1  0.279663  0  0.071242  0.148005  0  2.885249  0
S  S329  1  0.74350239  0.86754000  0.85969786  1  0.279769  0  0.071228  0.148007  0  2.885278  0
S  S330  1  0.24350099  0.86754110  0.64030133  1  0.279725  0  0.071216  0.147954  0  2.885268  0
S  S331  1  0.25649808  0.13245906  0.14030129  1  0.279738  0  0.071214  0.147996  0  2.885348  0
S  S332  1  0.64693209  0.04775354  0.45567563  1  0.152691  0  0.031978  0.041969  0  2.823071  0
S  S333  1  0.85306830  0.95224667  0.95567572  1  0.152668  0  0.031981  0.041973  0  2.823098  0
S  S334  1  0.35306671  0.95224603  0.54432199  1  0.152537  0  0.031991  0.04199  0  2.823087  0
S  S335  1  0.14692729  0.04775133  0.04432750  1  0.152626  0  0.032002  0.041985  0  2.823128  0
S  S336  1  0.69515035  0.27395419  0.41687044  1  0.170798  0  0.057044  0.071958  0  2.846019  0
S  S337  1  0.80485066  0.72604596  0.91687067  1  0.167325  0  0.057049  0.071969  0  2.84601  0
S  S338  1  0.30484854  0.72604591  0.58312972  1  0.170703  0  0.057074  0.072029  0  2.845984  0
S  S339  1  0.19514922  0.27395310  0.08312847  1  0.170534  0  0.057056  0.071987  0  2.845931  0
S  S340  1  0.58905923  0.18772310  0.51334962  1  0.224511  0  0.06341  0.131848  0  2.890344  0
S  S341  1  0.91094176  0.81227737  0.01335019  1  0.224441  0  0.063371  0.131768  0  2.890391  0
S  S342  1  0.41093898  0.81227647  0.48664902  1  0.224536  0  0.0634  0.131837  0  2.890418  0
S  S343  1  0.08905636  0.18772168  0.98665100  1  0.224416  0  0.063433  0.131803  0  2.89032  0
N  N344  1  0.81978062  0.81065158  0.57471945  1  -1.243102  0  -0.327828  -0.236193  0  3.490141  0
N  N345  1  0.68021788  0.18934847  0.07471908  1  -1.243171  0  -0.327838  -0.236232  0  3.490062  0
N  N346  1  0.18021876  0.18934800  0.42528071  1  -1.243135  0  -0.327834  -0.236188  0  3.490149  0
N  N347  1  0.31978151  0.81065111  0.92528058  1  -1.243144  0  -0.327816  -0.236215  0  3.490148  0
N  N348  1  0.83961138  0.57461309  0.54410536  1  -1.223561  0  -0.33064  -0.242114  0  3.50578  0
N  N349  1  0.66038900  0.42538743  0.04410443  1  -1.22353  0  -0.33065  -0.242159  0  3.505754  0
N  N350  1  0.16038928  0.42538701  0.45589480  1  -1.223553  0  -0.330607  -0.24206  0  3.505702  0
N  N351  1  0.33961146  0.57461163  0.95589318  1  -1.223584  0  -0.330684  -0.242218  0  3.505949  0
N  N352  1  0.65298996  0.53838494  0.45116838  1  -1.218686  0  -0.333082  -0.242672  0  3.507954  0
N  N353  1  0.84700934  0.46161579  0.95116807  1  -1.218655  0  -0.333153  -0.242728  0  3.508035  0
N  N354  1  0.34700852  0.46161620  0.54883229  1  -1.218594  0  -0.33309  -0.242629  0  3.507986  0
N  N355  1  0.15299054  0.53838327  0.04883005  1  -1.218556  0  -0.333127  -0.242616  0  3.507944  0
N  N356  1  0.68629052  0.78214987  0.43032677  1  -1.230496  0  -0.327797  -0.242691  0  3.490591  0
N  N357  1  0.81370804  0.21784976  0.93032655  1  -1.23062  0  -0.327822  -0.242747  0  3.490526  0
N  N358  1  0.31370946  0.21784970  0.56967135  1  -1.230564  0  -0.327834  -0.242753  0  3.490648  0
N  N359  1  0.18629175  0.78214877  0.06967361  1  -1.230645  0  -0.327751  -0.242728  0  3.490486  0
O  O360  1  0.88394101  0.72457136  0.45329925  1  -1.177476  0  -0.334566  -0.565994  0  2.30051  0
O  O361  1  0.61606241  0.27542939  0.95329729  1  -1.177662  0  -0.334504  -0.565894  0  2.30066  0
O  O362  1  0.11606172  0.27542719  0.54670194  1  -1.17748  0  -0.334542  -0.565953  0  2.300639  0
O  O363  1  0.38393991  0.72457020  0.04670084  1  -1.177499  0  -0.334603  -0.566061  0  2.300595  0
O  O364  1  0.78584826  0.65165457  0.39996343  1  -1.183985  0  -0.33015  -0.575811  0  2.37602  0
O  O365  1  0.71415264  0.34834815  0.89996100  1  -1.183956  0  -0.330167  -0.575867  0  2.375986  0
O  O366  1  0.21415326  0.34834710  0.60003674  1  -1.183651  0  -0.330144  -0.57585  0  2.375984  0
O  O367  1  0.28584585  0.65165299  0.10003509  1  -1.184088  0  -0.330184  -0.575922  0  2.375856  0
O  O368  1  0.13047711  0.66593455  0.18093690  1  -1.146275  0  -0.339866  -0.550109  0  2.163682  0
O  O369  1  0.36952312  0.33406255  0.68093735  1  -1.146245  0  -0.339863  -0.550044  0  2.163718  0
O  O370  1  0.86952212  0.33406085  0.81906225  1  -1.146278  0  -0.339912  -0.550085  0  2.163647  0
O  O371  1  0.63047555  0.66593963  0.31906230  1  -1.146241  0  -0.339914  -0.550072  0  2.163567  0
O  O372  1  0.02715925  0.65856181  0.10923456  1  -1.182398  0  -0.336751  -0.571497  0  2.221909  0
O  O373  1  0.47283998  0.34143569  0.60923442  1  -1.182377  0  -0.336747  -0.571466  0  2.221909  0
O  O374  1  0.97283851  0.34143515  0.89076560  1  -1.182372  0  -0.336714  -0.571416  0  2.221959  0
O  O375  1  0.52715882  0.65856389  0.39076473  1  -1.182387  0  -0.336732  -0.571497  0  2.221901  0
O  O376  1  0.71210722  0.65957815  0.60533679  1  -1.189399  0  -0.332106  -0.575813  0  2.347305  0
O  O377  1  0.78789152  0.34042352  0.10533659  1  -1.189475  0  -0.332122  -0.575875  0  2.347383  0
O  O378  1  0.28789194  0.34042351  0.39466440  1  -1.189481  0  -0.332101  -0.575825  0  2.347339  0
O  O379  1  0.21210697  0.65957762  0.89466306  1  -1.189384  0  -0.332107  -0.575857  0  2.347247  0
O  O380  1  0.60531666  0.67267924  0.54054302  1  -1.16907  0  -0.33027  -0.554912  0  2.314132  0
O  O381  1  0.89468270  0.32732545  0.04054321  1  -1.168963  0  -0.330296  -0.554952  0  2.31375  0
O  O382  1  0.39468084  0.32732294  0.45945867  1  -1.169048  0  -0.330241  -0.554817  0  2.313954  0
O  O383  1  0.10531557  0.67267778  0.95945696  1  -1.16909  0  -0.330284  -0.554892  0  2.314064  0
O  O384  1  0.47618919  0.70203369  0.89505785  1  -1.183272  0  -0.341973  -0.576041  0  2.223357  0
O  O385  1  0.02381170  0.29796536  0.39505936  1  -1.183131  0  -0.342045  -0.57619  0  2.223188  0
O  O386  1  0.52381137  0.29796589  0.10494334  1  -1.183159  0  -0.342002  -0.576124  0  2.223252  0
O  O387  1  0.97619013  0.70203475  0.60494131  1  -1.183201  0  -0.341945  -0.576001  0  2.223245  0
O  O388  1  0.37195800  0.69369668  0.82425022  1  -1.144699  0  -0.342059  -0.549816  0  2.187777  0
O  O389  1  0.12804021  0.30630327  0.32424910  1  -1.144728  0  -0.342096  -0.549812  0  2.18782  0
O  O390  1  0.62804049  0.30630446  0.17575198  1  -1.144767  0  -0.342128  -0.549863  0  2.187875  0
O  O391  1  0.87195914  0.69369943  0.67574902  1  -1.144671  0  -0.342031  -0.549789  0  2.18782  0
