# generated using pymatgen
data_Zn4H44C51(N4O9)2
_symmetry_space_group_name_H-M   'P 1'
_cell_length_a   16.02039707
_cell_length_b   21.41002268
_cell_length_c   29.92909952
_cell_angle_alpha   89.99998224
_cell_angle_beta   90.00024678
_cell_angle_gamma   97.81540647
_symmetry_Int_Tables_number   1
_chemical_formula_structural   Zn4H44C51(N4O9)2
_chemical_formula_sum   'Zn16 H176 C204 N32 O72'
_cell_volume   10170.23938311
_cell_formula_units_Z   4
loop_
 _symmetry_equiv_pos_site_id
 _symmetry_equiv_pos_as_xyz
  1  'x, y, z'
loop_
 _atom_site_type_symbol
 _atom_site_label
 _atom_site_symmetry_multiplicity
 _atom_site_fract_x
 _atom_site_fract_y
 _atom_site_fract_z
 _atom_site_occupancy
 _atom_site_pbe_bader_charge
 _atom_site_pbe_bader_spin_density
 _atom_site_pbe_cm5_charge
 _atom_site_pbe_ddec_charge
 _atom_site_pbe_ddec_spin_density
 _atom_site_pbe_ddec_sum_bond_order
 _atom_site_pbe_magmom
Zn  Zn0  1  0.32984420  0.56333204  0.22720896  1  1.390816  0  0.664014  1.004659  0  2.306312  0
Zn  Zn1  1  0.67015372  0.93666853  0.72720965  1  1.390871  0  0.663991  1.004586  0  2.306376  0
Zn  Zn2  1  0.67015674  0.43666905  0.77279077  1  1.390834  0  0.664013  1.004636  0  2.306299  0
Zn  Zn3  1  0.32984401  0.06333206  0.27279208  1  1.390765  0  0.664017  1.004629  0  2.306187  0
Zn  Zn4  1  0.34737623  0.41382125  0.21789365  1  1.301036  0  0.655977  0.947757  0  2.346942  0
Zn  Zn5  1  0.65262548  0.08617703  0.71789170  1  1.300931  0  0.655993  0.947805  0  2.346952  0
Zn  Zn6  1  0.65262292  0.58618030  0.78210708  1  1.301024  0  0.655971  0.947735  0  2.347043  0
Zn  Zn7  1  0.34737522  0.91382264  0.28210735  1  1.300915  0  0.655969  0.947744  0  2.346898  0
Zn  Zn8  1  0.37686703  0.48182709  0.31080125  1  1.308225  0  0.65691  0.954952  0  2.402318  0
Zn  Zn9  1  0.62312886  0.01816929  0.81080025  1  1.308263  0  0.65691  0.954986  0  2.402411  0
Zn  Zn10  1  0.62312945  0.51817349  0.68920015  1  1.308296  0  0.656881  0.954879  0  2.402443  0
Zn  Zn11  1  0.37686895  0.98182801  0.18919981  1  1.308182  0  0.656862  0.954842  0  2.402384  0
Zn  Zn12  1  0.19164481  0.45417799  0.27391252  1  1.306275  0  0.65851  0.957688  0  2.344953  0
Zn  Zn13  1  0.80835603  0.04582359  0.77391128  1  1.306242  0  0.658519  0.957702  0  2.344899  0
Zn  Zn14  1  0.80835730  0.54582263  0.72608854  1  1.306476  0  0.658555  0.957786  0  2.344798  0
Zn  Zn15  1  0.19164171  0.95417700  0.22608744  1  1.306461  0  0.658488  0.957663  0  2.34501  0
H  H16  1  0.40172781  0.86838958  0.41867484  1  0.455783  0  0.319894  0.276702  0  0.949619  0
H  H17  1  0.59827252  0.63160872  0.91867677  1  0.456163  0  0.319907  0.276671  0  0.949605  0
H  H18  1  0.59827008  0.13161196  0.58132555  1  0.455823  0  0.319873  0.276634  0  0.949739  0
H  H19  1  0.40172935  0.36839049  0.08132295  1  0.455771  0  0.319925  0.276674  0  0.949657  0
H  H20  1  0.80199805  0.78950069  0.15655283  1  0.428977  0  0.326613  0.276161  0  0.928755  0
H  H21  1  0.19800071  0.71050081  0.65655181  1  0.428924  0  0.326634  0.276158  0  0.928792  0
H  H22  1  0.19800351  0.21050040  0.84344757  1  0.428928  0  0.326621  0.276114  0  0.928814  0
H  H23  1  0.80199883  0.28949933  0.34344858  1  0.428887  0  0.326625  0.276163  0  0.928822  0
H  H24  1  0.17778146  0.37267721  0.56756920  1  0.423197  0  0.324844  0.273587  0  0.933942  0
H  H25  1  0.82221372  0.12732662  0.06756728  1  0.423122  0  0.324828  0.273652  0  0.9338  0
H  H26  1  0.82221979  0.62732576  0.43243320  1  0.423232  0  0.324817  0.273576  0  0.933894  0
H  H27  1  0.17778207  0.87267725  0.93243077  1  0.423071  0  0.324836  0.273619  0  0.933894  0
H  H28  1  0.91351253  0.75376748  0.16616935  1  0.430705  0  0.326925  0.276253  0  0.928537  0
H  H29  1  0.08648615  0.74623308  0.66616941  1  0.430694  0  0.326896  0.276215  0  0.928612  0
H  H30  1  0.08648638  0.24623265  0.83383104  1  0.430684  0  0.326907  0.276213  0  0.928663  0
H  H31  1  0.91351682  0.25376897  0.33383031  1  0.430676  0  0.326896  0.276238  0  0.928566  0
H  H32  1  0.40565298  0.92574423  0.47738927  1  0.470882  0  0.32053  0.276883  0  0.942016  0
H  H33  1  0.59434588  0.57425360  0.97738954  1  0.470848  0  0.320488  0.276779  0  0.942148  0
H  H34  1  0.59434968  0.07425593  0.52261179  1  0.47085  0  0.320479  0.276878  0  0.942047  0
H  H35  1  0.40565178  0.42574652  0.02261086  1  0.470805  0  0.320508  0.276857  0  0.942098  0
H  H36  1  0.11599710  0.32741217  0.62206325  1  0.439954  0  0.3256  0.275407  0  0.930531  0
H  H37  1  0.88399743  0.17258884  0.12206448  1  0.439855  0  0.325592  0.275395  0  0.930457  0
H  H38  1  0.88400111  0.67258748  0.37793748  1  0.439957  0  0.325613  0.275419  0  0.930431  0
H  H39  1  0.11599797  0.82741644  0.87793558  1  0.439917  0  0.325584  0.275361  0  0.930486  0
H  H40  1  0.62270001  0.89854769  0.61215202  1  0.129504  0  0.108696  0.119702  0  1.00575  0
H  H41  1  0.37729564  0.60144858  0.11215009  1  0.129276  0  0.108686  0.11966  0  1.005681  0
H  H42  1  0.37730374  0.10145153  0.38784838  1  0.129633  0  0.108711  0.119755  0  1.005696  0
H  H43  1  0.62269420  0.39854959  0.88784730  1  0.129632  0  0.108707  0.119724  0  1.005705  0
H  H44  1  0.48044961  0.05345901  0.59879036  1  0.095399  0  0.104006  0.106547  0  1.007133  0
H  H45  1  0.51955059  0.44653969  0.09879270  1  0.095424  0  0.104016  0.106575  0  1.007011  0
H  H46  1  0.51955422  0.94654069  0.40120869  1  0.095381  0  0.104026  0.106559  0  1.00709  0
H  H47  1  0.48044746  0.55346278  0.90120803  1  0.095598  0  0.104044  0.106582  0  1.00702  0
H  H48  1  0.52991322  0.78753190  0.26513012  1  0.124134  0  0.110238  0.11708  0  0.991345  0
H  H49  1  0.47008485  0.71246397  0.76513040  1  0.124186  0  0.110202  0.11698  0  0.991318  0
H  H50  1  0.47008617  0.21247105  0.73486927  1  0.124141  0  0.110238  0.117099  0  0.99141  0
H  H51  1  0.52991452  0.28753146  0.23487300  1  0.12472  0  0.110239  0.117065  0  0.991336  0
H  H52  1  0.28048184  0.40654953  0.51993273  1  0.046456  0  0.101533  0.104334  0  1.000422  0
H  H53  1  0.71951686  0.09345148  0.01993192  1  0.046424  0  0.101507  0.104295  0  1.00054  0
H  H54  1  0.71952215  0.59345111  0.48006867  1  0.046492  0  0.101549  0.104428  0  1.000479  0
H  H55  1  0.28048307  0.90655101  0.98006713  1  0.046416  0  0.101511  0.10431  0  1.000445  0
H  H56  1  0.36478212  0.82606353  0.35287096  1  0.106152  0  0.101105  0.115837  0  1.048759  0
H  H57  1  0.63522267  0.67393477  0.85287163  1  0.106079  0  0.101092  0.11579  0  1.048719  0
H  H58  1  0.63521624  0.17393706  0.64712910  1  0.106197  0  0.101089  0.115777  0  1.048825  0
H  H59  1  0.36478295  0.32606447  0.14712743  1  0.106219  0  0.101075  0.115809  0  1.048787  0
H  H60  1  0.07444214  0.38363089  0.39520806  1  0.068666  0  0.101341  0.101979  0  1.003064  0
H  H61  1  0.92555422  0.11637164  0.89520908  1  0.068789  0  0.101318  0.101916  0  1.002892  0
H  H62  1  0.92555827  0.61637443  0.60479367  1  0.068662  0  0.101321  0.101928  0  1.003022  0
H  H63  1  0.07444421  0.88362566  0.10479198  1  0.068762  0  0.101334  0.101942  0  1.002937  0
H  H64  1  0.09197501  0.26565865  0.68233567  1  0.061625  0  0.100184  0.106411  0  1.013549  0
H  H65  1  0.90801938  0.23433861  0.18233761  1  0.062011  0  0.100172  0.106344  0  1.013356  0
H  H66  1  0.90802498  0.73433678  0.31766472  1  0.062163  0  0.100161  0.106356  0  1.013571  0
H  H67  1  0.09198031  0.76566246  0.81766345  1  0.062035  0  0.100151  0.106325  0  1.013444  0
H  H68  1  0.27090110  0.68660484  0.22958750  1  0.123558  0  0.127449  0.058367  0  1.005908  0
H  H69  1  0.72909621  0.81339196  0.72958802  1  0.123567  0  0.127432  0.058317  0  1.005961  0
H  H70  1  0.72909999  0.31339342  0.77041156  1  0.123324  0  0.127418  0.058364  0  1.005908  0
H  H71  1  0.27090011  0.18660391  0.27041103  1  0.123493  0  0.127426  0.058348  0  1.005884  0
H  H72  1  0.32753785  0.43304246  0.44216699  1  0.07214  0  0.109185  0.11567  0  0.98837  0
H  H73  1  0.67246092  0.06696104  0.94216710  1  0.072152  0  0.109193  0.115658  0  0.988408  0
H  H74  1  0.67246380  0.56696287  0.55783340  1  0.072236  0  0.109196  0.115669  0  0.988389  0
H  H75  1  0.32753838  0.93304144  0.05783362  1  0.072093  0  0.109203  0.115699  0  0.98838  0
H  H76  1  0.58887886  0.90762187  0.15150063  1  0.111768  0  0.10934  0.115413  0  0.991542  0
H  H77  1  0.41112041  0.59238293  0.65149679  1  0.111964  0  0.109377  0.115467  0  0.991505  0
H  H78  1  0.41112936  0.09238540  0.84850144  1  0.112396  0  0.109405  0.115475  0  0.9915  0
H  H79  1  0.58887600  0.40761718  0.34850494  1  0.111946  0  0.109356  0.115407  0  0.991455  0
H  H80  1  0.34617756  0.73375386  0.30221857  1  0.10001  0  0.104159  0.108463  0  1.00742  0
H  H81  1  0.65382237  0.76624392  0.80221859  1  0.100102  0  0.104171  0.108523  0  1.007463  0
H  H82  1  0.65382260  0.26624628  0.69778216  1  0.099993  0  0.104209  0.108545  0  1.007397  0
H  H83  1  0.34617645  0.23375573  0.19778046  1  0.100149  0  0.10416  0.108452  0  1.00746  0
H  H84  1  0.87608222  0.63493888  0.25709722  1  0.125014  0  0.10175  0.116918  0  1.037483  0
H  H85  1  0.12391571  0.86506405  0.75709533  1  0.125072  0  0.101696  0.116857  0  1.037535  0
H  H86  1  0.12391450  0.36506311  0.74290451  1  0.125115  0  0.101675  0.116844  0  1.037514  0
H  H87  1  0.87608648  0.13494082  0.24290306  1  0.125104  0  0.101675  0.116819  0  1.037631  0
H  H88  1  0.65914526  0.73647080  0.25153448  1  0.126347  0  0.106772  0.127906  0  1.023816  0
H  H89  1  0.34085161  0.76352600  0.75153612  1  0.126242  0  0.106734  0.127909  0  1.023803  0
H  H90  1  0.34085404  0.26353169  0.74846391  1  0.126215  0  0.106723  0.127851  0  1.023816  0
H  H91  1  0.65914464  0.23646940  0.24846661  1  0.126337  0  0.106774  0.127895  0  1.023842  0
H  H92  1  0.42588408  0.61827028  0.40701735  1  0.076838  0  0.103088  0.106973  0  1.000005  0
H  H93  1  0.57411014  0.88172560  0.90701583  1  0.076887  0  0.103096  0.106975  0  1.000038  0
H  H94  1  0.57411545  0.38172985  0.59298371  1  0.076823  0  0.103111  0.106971  0  1.000015  0
H  H95  1  0.42588400  0.11827214  0.09298223  1  0.076782  0  0.103107  0.107025  0  1.000003  0
H  H96  1  0.54506728  0.84393185  0.54778080  1  0.111472  0  0.107374  0.129004  0  1.027282  0
H  H97  1  0.45492581  0.65606344  0.04777737  1  0.111419  0  0.107299  0.128866  0  1.027459  0
H  H98  1  0.45493139  0.15606686  0.45221993  1  0.11145  0  0.107317  0.128887  0  1.027276  0
H  H99  1  0.54506512  0.34393380  0.95221935  1  0.111499  0  0.107251  0.128834  0  1.027339  0
H  H100  1  0.99234992  0.19266186  0.72793382  1  0.099102  0  0.101985  0.105937  0  1.001766  0
H  H101  1  0.00764868  0.30733969  0.22793299  1  0.099164  0  0.101999  0.105997  0  1.001682  0
H  H102  1  0.00765094  0.80733499  0.27206825  1  0.098734  0  0.101962  0.106014  0  1.001721  0
H  H103  1  0.99234953  0.69266373  0.77206673  1  0.098631  0  0.101945  0.105974  0  1.00178  0
H  H104  1  0.02605340  0.35436324  0.47294874  1  0.102724  0  0.104306  0.125326  0  1.035264  0
H  H105  1  0.97394983  0.14563560  0.97294886  1  0.102752  0  0.104321  0.125293  0  1.035297  0
H  H106  1  0.97395058  0.64563740  0.52705299  1  0.102671  0  0.104313  0.125323  0  1.035201  0
H  H107  1  0.02605391  0.85435986  0.02705120  1  0.102633  0  0.104326  0.125325  0  1.035245  0
H  H108  1  0.44211268  0.71037440  0.45892136  1  0.133006  0  0.102948  0.124496  0  1.03842  0
H  H109  1  0.55788853  0.78962344  0.95891982  1  0.132978  0  0.102919  0.124538  0  1.038517  0
H  H110  1  0.55788772  0.28962715  0.54107904  1  0.133017  0  0.102976  0.124533  0  1.038497  0
H  H111  1  0.44211335  0.21037577  0.04107790  1  0.132979  0  0.102997  0.124599  0  1.038459  0
H  H112  1  0.41838007  0.73389071  0.14011020  1  0.0866  0  0.112377  0.130722  0  0.995384  0
H  H113  1  0.58161792  0.76610701  0.64011039  1  0.086596  0  0.112374  0.130689  0  0.99532  0
H  H114  1  0.58162141  0.26610614  0.85988886  1  0.086688  0  0.112361  0.130694  0  0.995422  0
H  H115  1  0.41837848  0.23388934  0.35988933  1  0.086588  0  0.112355  0.130692  0  0.99543  0
H  H116  1  0.39613474  0.81375579  0.14370132  1  0.065185  0  0.108804  0.128877  0  0.990809  0
H  H117  1  0.60386617  0.68624430  0.64370191  1  0.06514  0  0.108814  0.128825  0  0.990835  0
H  H118  1  0.60386674  0.18624106  0.85629774  1  0.065095  0  0.108782  0.128771  0  0.990813  0
H  H119  1  0.39613445  0.31375490  0.35629714  1  0.065222  0  0.108795  0.128866  0  0.990792  0
H  H120  1  0.33295930  0.75837503  0.10908043  1  0.072599  0  0.107271  0.118135  0  0.970651  0
H  H121  1  0.66704040  0.74162316  0.60908016  1  0.072803  0  0.107252  0.118076  0  0.970615  0
H  H122  1  0.66704242  0.24162323  0.89091896  1  0.072787  0  0.107242  0.118072  0  0.970668  0
H  H123  1  0.33295812  0.25837462  0.39091857  1  0.072636  0  0.107248  0.118119  0  0.970663  0
H  H124  1  0.51012569  0.63605217  0.19673113  1  0.117553  0  0.124208  0.054245  0  1.000356  0
H  H125  1  0.48987840  0.86394937  0.69673243  1  0.117696  0  0.124213  0.054245  0  1.000424  0
H  H126  1  0.48987791  0.36394988  0.80326726  1  0.117723  0  0.124225  0.054298  0  1.000401  0
H  H127  1  0.51011997  0.13605122  0.30326763  1  0.117675  0  0.124226  0.054232  0  1.000493  0
H  H128  1  0.71725453  0.85701571  0.13703192  1  0.048992  0  0.103566  0.107069  0  0.996634  0
H  H129  1  0.28274689  0.64299145  0.63702978  1  0.048909  0  0.103565  0.107084  0  0.996737  0
H  H130  1  0.28275486  0.14299110  0.86296714  1  0.048552  0  0.103546  0.107042  0  0.996681  0
H  H131  1  0.71725350  0.35701010  0.36297262  1  0.048639  0  0.103601  0.10719  0  0.996669  0
H  H132  1  0.40544225  0.00140844  0.53311774  1  0.064458  0  0.104217  0.116171  0  0.988869  0
H  H133  1  0.59455601  0.49858928  0.03311857  1  0.064475  0  0.104214  0.116156  0  0.988809  0
H  H134  1  0.59455994  0.99859266  0.46688065  1  0.06446  0  0.10422  0.116212  0  0.9889  0
H  H135  1  0.40544196  0.50140895  0.96687915  1  0.064518  0  0.104224  0.11616  0  0.988831  0
H  H136  1  0.79138515  0.21907503  0.63795961  1  0.098409  0  0.101541  0.103866  0  1.029032  0
H  H137  1  0.20861246  0.28091754  0.13796293  1  0.098501  0  0.10152  0.103887  0  1.029124  0
H  H138  1  0.20861648  0.78091900  0.36204045  1  0.098341  0  0.101503  0.103821  0  1.029043  0
H  H139  1  0.79138637  0.71908588  0.86203646  1  0.098355  0  0.101529  0.103827  0  1.029222  0
H  H140  1  0.14427279  0.65231294  0.17153449  1  0.110802  0  0.106882  0.110077  0  1.00421  0
H  H141  1  0.85572179  0.84768523  0.67153463  1  0.110771  0  0.106873  0.110048  0  1.00427  0
H  H142  1  0.85572471  0.34768624  0.82846523  1  0.110833  0  0.106902  0.11011  0  1.004224  0
H  H143  1  0.14427312  0.15230969  0.32846710  1  0.110816  0  0.106907  0.110106  0  1.00417  0
H  H144  1  0.98392656  0.56416227  0.27450048  1  0.094927  0  0.106826  0.110861  0  0.991475  0
H  H145  1  0.01607370  0.93583880  0.77450000  1  0.094883  0  0.106838  0.110864  0  0.991437  0
H  H146  1  0.01607353  0.43584116  0.72550025  1  0.095001  0  0.106846  0.110868  0  0.99144  0
H  H147  1  0.98392645  0.06416134  0.22550039  1  0.094915  0  0.106862  0.110882  0  0.991409  0
H  H148  1  0.03826444  0.72367869  0.15373897  1  0.043981  0  0.101387  0.105031  0  1.001527  0
H  H149  1  0.96173405  0.77632139  0.65373837  1  0.043996  0  0.101439  0.105165  0  1.001383  0
H  H150  1  0.96173368  0.27632049  0.84626042  1  0.04401  0  0.101412  0.105083  0  1.001494  0
H  H151  1  0.03826649  0.22367734  0.34626169  1  0.044007  0  0.101442  0.105179  0  1.001452  0
H  H152  1  0.63110199  0.65384501  0.16324847  1  0.046992  0  0.109354  0.121078  0  1.002218  0
H  H153  1  0.36890018  0.84615415  0.66324982  1  0.046953  0  0.109327  0.121048  0  1.00223  0
H  H154  1  0.36890005  0.34615514  0.83675059  1  0.046939  0  0.109329  0.121045  0  1.002245  0
H  H155  1  0.63109717  0.15384785  0.33675191  1  0.046836  0  0.109314  0.121075  0  1.002344  0
H  H156  1  0.65325933  0.58401876  0.13554904  1  0.06812  0  0.102102  0.117098  0  0.989783  0
H  H157  1  0.34674214  0.91598134  0.63555066  1  0.068197  0  0.102089  0.117069  0  0.989744  0
H  H158  1  0.34674348  0.41598234  0.86444968  1  0.068157  0  0.102099  0.1171  0  0.989761  0
H  H159  1  0.65325482  0.08402207  0.36445007  1  0.067891  0  0.102104  0.117111  0  0.989726  0
H  H160  1  0.71492675  0.61410940  0.18288932  1  0.05275  0  0.103427  0.118002  0  1.001842  0
H  H161  1  0.28507449  0.88589071  0.68289181  1  0.052707  0  0.103445  0.118011  0  1.001844  0
H  H162  1  0.28507615  0.38589217  0.81711007  1  0.052774  0  0.103417  0.117951  0  1.001873  0
H  H163  1  0.71492364  0.11411224  0.31711159  1  0.052775  0  0.103447  0.11804  0  1.001802  0
H  H164  1  0.57923534  0.49440543  0.24289432  1  0.123143  0  0.112629  0.137075  0  1.002249  0
H  H165  1  0.42076994  0.00559429  0.74289487  1  0.122693  0  0.112639  0.13715  0  1.002152  0
H  H166  1  0.42076795  0.50559473  0.75710440  1  0.123039  0  0.112597  0.137061  0  1.002206  0
H  H167  1  0.57923108  0.99440727  0.25710619  1  0.122758  0  0.112646  0.137153  0  1.002144  0
H  H168  1  0.67930390  0.50909506  0.21521669  1  0.071002  0  0.109323  0.120014  0  0.979157  0
H  H169  1  0.32070017  0.99090555  0.71521791  1  0.071106  0  0.109348  0.12006  0  0.979068  0
H  H170  1  0.32069876  0.49090510  0.78478270  1  0.071083  0  0.109322  0.120035  0  0.979037  0
H  H171  1  0.67930046  0.00909741  0.28478449  1  0.07087  0  0.109324  0.120052  0  0.979018  0
H  H172  1  0.58802910  0.47236099  0.18583148  1  0.064981  0  0.106036  0.122899  0  0.986241  0
H  H173  1  0.41197462  0.02763964  0.68583200  1  0.064929  0  0.106009  0.122851  0  0.986356  0
H  H174  1  0.41197371  0.52764011  0.81416691  1  0.064943  0  0.106035  0.122879  0  0.986368  0
H  H175  1  0.58802703  0.97236192  0.31416906  1  0.064992  0  0.106031  0.122876  0  0.986261  0
H  H176  1  0.21278474  0.79612553  0.16113331  1  0.048714  0  0.102637  0.116713  0  0.98841  0
H  H177  1  0.78721248  0.70387030  0.66113566  1  0.048957  0  0.102628  0.116758  0  0.98842  0
H  H178  1  0.78721642  0.20386944  0.83886441  1  0.048798  0  0.102636  0.116761  0  0.988368  0
H  H179  1  0.21278478  0.29612746  0.33886373  1  0.048845  0  0.102636  0.116764  0  0.988445  0
H  H180  1  0.28542103  0.83507948  0.20055355  1  0.051967  0  0.100757  0.109971  0  1.035902  0
H  H181  1  0.71457925  0.66491780  0.70055507  1  0.052016  0  0.10075  0.109972  0  1.035905  0
H  H182  1  0.71457991  0.16491784  0.79944517  1  0.052018  0  0.100755  0.110002  0  1.035872  0
H  H183  1  0.28541957  0.33508186  0.29944499  1  0.05205  0  0.100755  0.109959  0  1.035897  0
H  H184  1  0.21239769  0.76866941  0.21741131  1  0.070986  0  0.110073  0.122857  0  1.009336  0
H  H185  1  0.78759991  0.73132597  0.71741232  1  0.070912  0  0.11008  0.122929  0  1.009345  0
H  H186  1  0.78760175  0.23132648  0.78258674  1  0.070908  0  0.110048  0.122908  0  1.009361  0
H  H187  1  0.21239603  0.26867131  0.28258740  1  0.070869  0  0.110063  0.122895  0  1.009386  0
H  H188  1  0.89048425  0.29028332  0.59082465  1  0.124799  0  0.108514  0.129658  0  1.017167  0
H  H189  1  0.10951751  0.20970644  0.09083010  1  0.124863  0  0.108586  0.129675  0  1.017155  0
H  H190  1  0.10951785  0.70970977  0.40917374  1  0.12475  0  0.108529  0.129671  0  1.017228  0
H  H191  1  0.89048273  0.79029417  0.90916929  1  0.124866  0  0.108618  0.129687  0  1.017116  0
C  C192  1  0.57507560  0.92052054  0.59428774  1  -0.103196  0  -0.084965  -0.071231  0  3.99136  0
C  C193  1  0.42492179  0.57947575  0.09428659  1  -0.10312  0  -0.084858  -0.071061  0  3.991156  0
C  C194  1  0.42492792  0.07947727  0.40571265  1  -0.103445  0  -0.084974  -0.071392  0  3.991516  0
C  C195  1  0.57506946  0.42052338  0.90571146  1  -0.103102  0  -0.084953  -0.071321  0  3.991433  0
C  C196  1  0.49568658  0.00815542  0.58694539  1  -0.091248  0  -0.096689  -0.106692  0  4.052035  0
C  C197  1  0.50431179  0.49184043  0.08694635  1  -0.091895  0  -0.096614  -0.106613  0  4.051778  0
C  C198  1  0.50431482  0.99184096  0.41305634  1  -0.090615  0  -0.096567  -0.10652  0  4.051713  0
C  C199  1  0.49568219  0.50816013  0.91305271  1  -0.091355  0  -0.096662  -0.106669  0  4.051701  0
C  C200  1  0.99782193  0.28159052  0.63301649  1  0.295761  0  0.1001  0.264872  0  4.037997  0
C  C201  1  0.00218104  0.21840445  0.13301801  1  0.295517  0  0.100103  0.265032  0  4.037854  0
C  C202  1  0.00218196  0.71840212  0.36698290  1  0.295477  0  0.100098  0.264951  0  4.037995  0
C  C203  1  0.99782014  0.78159805  0.86698205  1  0.295035  0  0.100124  0.265042  0  4.037772  0
C  C204  1  0.57159443  0.80248777  0.23718145  1  -0.035187  0  -0.078482  -0.064332  0  3.972488  0
C  C205  1  0.42840255  0.69751044  0.73718097  1  -0.036335  0  -0.07842  -0.064092  0  3.972286  0
C  C206  1  0.42840964  0.19751711  0.76281961  1  -0.035691  0  -0.078414  -0.064199  0  3.972402  0
C  C207  1  0.57159299  0.30248448  0.26282310  1  -0.036454  0  -0.078499  -0.064211  0  3.972043  0
C  C208  1  0.23513476  0.40104627  0.49246175  1  0.041246  0  -0.105596  -0.209113  0  4.014733  0
C  C209  1  0.76486294  0.09895583  0.99246240  1  0.041381  0  -0.105628  -0.209159  0  4.014801  0
C  C210  1  0.76486533  0.59895717  0.50753998  1  0.041463  0  -0.105702  -0.209459  0  4.014942  0
C  C211  1  0.23513520  0.90104712  0.00753765  1  0.041396  0  -0.105635  -0.209175  0  4.014865  0
C  C212  1  0.37803457  0.78032686  0.36470929  1  -0.028092  0  -0.102238  -0.201274  0  3.977148  0
C  C213  1  0.62196517  0.71967047  0.86470992  1  -0.028085  0  -0.102174  -0.201039  0  3.977015  0
C  C214  1  0.62196512  0.21967422  0.63529010  1  -0.028084  0  -0.102185  -0.201129  0  3.977179  0
C  C215  1  0.37803546  0.28032873  0.13528947  1  -0.02831  0  -0.102144  -0.201107  0  3.977117  0
C  C216  1  0.47156419  0.91971023  0.53545591  1  0.295415  0  0.100907  0.263311  0  4.051743  0
C  C217  1  0.52843209  0.58028602  0.03545467  1  0.295433  0  0.100921  0.263391  0  4.051632  0
C  C218  1  0.52843948  0.08028852  0.46454448  1  0.295415  0  0.100967  0.263478  0  4.051626  0
C  C219  1  0.47156182  0.41971406  0.96454372  1  0.295368  0  0.101043  0.2635  0  4.051528  0
C  C220  1  0.11912518  0.38771221  0.42286547  1  0.028001  0  -0.086792  -0.074745  0  4.016943  0
C  C221  1  0.88086930  0.11229267  0.92286606  1  0.028091  0  -0.086743  -0.074557  0  4.016747  0
C  C222  1  0.88087460  0.61229311  0.57713525  1  0.027855  0  -0.086793  -0.074687  0  4.01686  0
C  C223  1  0.11912812  0.88770604  0.07713400  1  0.027911  0  -0.086807  -0.074722  0  4.016865  0
C  C224  1  0.02599669  0.25495093  0.67228351  1  0.045413  0  -0.105487  -0.208062  0  4.007101  0
C  C225  1  0.97400206  0.24504307  0.17228493  1  0.045218  0  -0.105435  -0.207878  0  4.006763  0
C  C226  1  0.97400658  0.74504170  0.32771622  1  0.045021  0  -0.105413  -0.207921  0  4.007038  0
C  C227  1  0.02599677  0.75496035  0.82771413  1  0.045506  0  -0.105391  -0.207825  0  4.006612  0
C  C228  1  0.15001020  0.37854466  0.50137572  1  0.295427  0  0.101099  0.26928  0  4.040914  0
C  C229  1  0.84998742  0.12145822  0.00137588  1  0.295353  0  0.101144  0.269381  0  4.04089  0
C  C230  1  0.84999153  0.62145738  0.49862534  1  0.295278  0  0.101176  0.269428  0  4.040816  0
C  C231  1  0.15001219  0.87854238  0.99862351  1  0.295279  0  0.101106  0.269302  0  4.040985  0
C  C232  1  0.43483638  0.83414791  0.47990159  1  1.839021  0  0.330321  0.631972  0  4.182117  0
C  C233  1  0.56516531  0.66585182  0.97990276  1  1.83918  0  0.33036  0.631943  0  4.18182  0
C  C234  1  0.56516597  0.16585413  0.52009914  1  1.83906  0  0.330423  0.632113  0  4.181806  0
C  C235  1  0.43483430  0.33414878  0.02009796  1  1.838991  0  0.330337  0.631906  0  4.181928  0
C  C236  1  0.95015369  0.68366897  0.20443183  1  0.30072  0  0.097719  0.260793  0  4.050166  0
C  C237  1  0.04984405  0.81633159  0.70443145  1  0.300624  0  0.097547  0.260605  0  4.05017  0
C  C238  1  0.04984397  0.31633115  0.79556789  1  0.30062  0  0.097556  0.260587  0  4.050136  0
C  C239  1  0.95015744  0.18366903  0.29556827  1  0.300446  0  0.097575  0.260644  0  4.050394  0
C  C240  1  0.55208701  0.85132318  0.20954878  1  -0.015804  0  -0.030274  -0.070576  0  4.014174  0
C  C241  1  0.44791226  0.64867881  0.70954702  1  -0.014535  0  -0.030314  -0.070781  0  4.014408  0
C  C242  1  0.44791894  0.14868172  0.79045228  1  -0.015296  0  -0.030422  -0.070964  0  4.014362  0
C  C243  1  0.55208594  0.35132085  0.29045638  1  -0.014885  0  -0.030368  -0.070804  0  4.014091  0
C  C244  1  0.47851272  0.88516091  0.21857202  1  1.53206  0  0.216676  0.583251  0  4.206831  0
C  C245  1  0.52148592  0.61484060  0.71856843  1  1.532363  0  0.216643  0.583156  0  4.206983  0
C  C246  1  0.52149244  0.11484303  0.78142938  1  1.53236  0  0.216641  0.583343  0  4.206745  0
C  C247  1  0.47851088  0.38515810  0.28143263  1  1.53238  0  0.2166  0.583127  0  4.206775  0
C  C248  1  0.31545395  0.69332245  0.20141631  1  1.345056  0  0.177315  0.306218  0  4.083202  0
C  C249  1  0.68454283  0.80667622  0.70141673  1  1.34506  0  0.177375  0.306286  0  4.083158  0
C  C250  1  0.68454660  0.30667628  0.79858309  1  1.345239  0  0.177231  0.306129  0  4.083306  0
C  C251  1  0.31545389  0.19332201  0.29858300  1  1.345082  0  0.177251  0.306212  0  4.083212  0
C  C252  1  0.13636714  0.56257847  0.23463429  1  1.545949  0  0.219735  0.600641  0  4.179639  0
C  C253  1  0.86363303  0.93742400  0.73463309  1  1.545982  0  0.219623  0.600538  0  4.179634  0
C  C254  1  0.86363263  0.43742308  0.76536678  1  1.54593  0  0.219645  0.600548  0  4.179629  0
C  C255  1  0.13636658  0.06257661  0.26536731  1  1.545915  0  0.219597  0.600334  0  4.179951  0
C  C256  1  0.26171309  0.41586453  0.44922694  1  -0.01954  0  -0.083745  -0.070064  0  4.008029  0
C  C257  1  0.73828262  0.08413895  0.94922720  1  -0.019676  0  -0.083739  -0.070031  0  4.008156  0
C  C258  1  0.73828598  0.58414031  0.55077379  1  -0.019864  0  -0.083697  -0.069856  0  4.008113  0
C  C259  1  0.26171606  0.91586353  0.05077253  1  -0.019587  0  -0.083726  -0.070043  0  4.008068  0
C  C260  1  0.60477413  0.87004450  0.17309870  1  -0.103155  0  -0.08409  -0.072131  0  4.010693  0
C  C261  1  0.39522477  0.62996077  0.67309648  1  -0.101784  0  -0.084089  -0.07205  0  4.010929  0
C  C262  1  0.39523339  0.12996229  0.82690370  1  -0.101683  0  -0.084133  -0.072111  0  4.010823  0
C  C263  1  0.60477164  0.37003934  0.32690892  1  -0.10125  0  -0.084132  -0.072077  0  4.010818  0
C  C264  1  0.05295609  0.33350553  0.56236743  1  1.835638  0  0.332721  0.633905  0  4.187634  0
C  C265  1  0.94704942  0.16648190  0.06237114  1  1.836689  0  0.332539  0.633757  0  4.187984  0
C  C266  1  0.94705037  0.66648006  0.43763029  1  1.836583  0  0.332525  0.633707  0  4.188179  0
C  C267  1  0.05295409  0.83351215  0.93763092  1  1.836241  0  0.332457  0.633569  0  4.187977  0
C  C268  1  0.36797367  0.72867724  0.33632487  1  -0.060896  0  -0.081888  -0.064885  0  3.988523  0
C  C269  1  0.63202591  0.77132055  0.83632484  1  -0.060975  0  -0.081832  -0.065102  0  3.988829  0
C  C270  1  0.63202632  0.27132195  0.66367519  1  -0.060868  0  -0.081942  -0.065022  0  3.988645  0
C  C271  1  0.36797425  0.22867959  0.16367388  1  -0.060991  0  -0.081836  -0.065017  0  3.988825  0
C  C272  1  0.93470787  0.63845639  0.23850635  1  -0.040702  0  -0.104532  -0.200376  0  3.983791  0
C  C273  1  0.06529156  0.86154513  0.73850533  1  -0.040829  0  -0.104443  -0.200137  0  3.983724  0
C  C274  1  0.06528800  0.36154418  0.76149405  1  -0.040701  0  -0.104451  -0.20021  0  3.983631  0
C  C275  1  0.93471009  0.13845643  0.26149573  1  -0.040664  0  -0.104451  -0.20019  0  3.983957  0
C  C276  1  0.64338212  0.77371168  0.22975164  1  -0.029112  0  -0.101045  -0.199287  0  3.963068  0
C  C277  1  0.35661371  0.72628746  0.72975333  1  -0.02867  0  -0.101046  -0.199383  0  3.963046  0
C  C278  1  0.35662063  0.22629272  0.77024742  1  -0.028517  0  -0.100956  -0.199174  0  3.962832  0
C  C279  1  0.64338550  0.27371079  0.27024874  1  -0.029157  0  -0.101027  -0.199336  0  3.96296  0
C  C280  1  0.41260028  0.66420350  0.39557462  1  -0.066075  0  -0.086488  -0.074938  0  4.012216  0
C  C281  1  0.58739853  0.83579431  0.89557347  1  -0.066032  0  -0.086548  -0.075051  0  4.01225  0
C  C282  1  0.58739988  0.33579664  0.60442644  1  -0.066047  0  -0.086515  -0.074892  0  4.012247  0
C  C283  1  0.41260170  0.16420630  0.10442592  1  -0.065925  0  -0.086545  -0.075076  0  4.012261  0
C  C284  1  0.07101341  0.60415622  0.22441940  1  -0.020353  0  -0.026279  -0.057337  0  3.985588  0
C  C285  1  0.92898934  0.89584721  0.72441903  1  -0.020393  0  -0.026225  -0.057299  0  3.985563  0
C  C286  1  0.92899027  0.39584630  0.77558100  1  -0.020425  0  -0.026242  -0.057306  0  3.985619  0
C  C287  1  0.07101082  0.10415293  0.27558203  1  -0.020332  0  -0.026226  -0.057236  0  3.985483  0
C  C288  1  0.81448635  0.73010786  0.20963530  1  1.834505  0  0.332768  0.62958  0  4.197595  0
C  C289  1  0.18551073  0.76989222  0.70963358  1  1.834599  0  0.332938  0.629928  0  4.197338  0
C  C290  1  0.18551264  0.26989274  0.79036576  1  1.834635  0  0.332861  0.629777  0  4.197439  0
C  C291  1  0.81449084  0.23010887  0.29036414  1  1.834772  0  0.332994  0.629892  0  4.197246  0
C  C292  1  0.40445758  0.77410300  0.40908419  1  0.272025  0  0.098194  0.264791  0  4.026152  0
C  C293  1  0.59554525  0.72589578  0.90908543  1  0.27199  0  0.098144  0.26464  0  4.026295  0
C  C294  1  0.59554078  0.22589760  0.59091553  1  0.271946  0  0.098201  0.264833  0  4.026244  0
C  C295  1  0.40445553  0.27410436  0.09091363  1  0.272086  0  0.098123  0.26473  0  4.026269  0
C  C296  1  0.53215759  0.89011147  0.55849510  1  0.047057  0  -0.10183  -0.195537  0  3.966035  0
C  C297  1  0.46783700  0.60988477  0.05849338  1  0.046986  0  -0.101816  -0.195442  0  3.966142  0
C  C298  1  0.46784553  0.10988775  0.44150496  1  0.047144  0  -0.101757  -0.195354  0  3.965863  0
C  C299  1  0.53215323  0.39011199  0.94150401  1  0.047237  0  -0.101751  -0.195347  0  3.965824  0
C  C300  1  0.97057397  0.21454904  0.69803346  1  -0.041631  0  -0.084276  -0.066472  0  4.006554  0
C  C301  1  0.02942398  0.28544638  0.19803403  1  -0.041831  0  -0.084306  -0.066613  0  4.006593  0
C  C302  1  0.02942992  0.78544360  0.30196627  1  -0.041891  0  -0.084213  -0.066559  0  4.006504  0
C  C303  1  0.97057337  0.71455562  0.80196436  1  -0.041089  0  -0.084207  -0.066593  0  4.006525  0
C  C304  1  0.69717966  0.79419044  0.19395543  1  0.297903  0  0.099159  0.261741  0  4.049433  0
C  C305  1  0.30281722  0.70581293  0.69395533  1  0.297806  0  0.099253  0.261909  0  4.049454  0
C  C306  1  0.30282449  0.20581491  0.80604429  1  0.297757  0  0.099131  0.261654  0  4.049399  0
C  C307  1  0.69718005  0.29418859  0.30604707  1  0.297489  0  0.099239  0.261925  0  4.04917  0
C  C308  1  0.09160175  0.37176539  0.46598301  1  -0.030691  0  -0.10332  -0.197906  0  3.968057  0
C  C309  1  0.90839737  0.12823906  0.96598399  1  -0.030807  0  -0.103347  -0.197936  0  3.96808  0
C  C310  1  0.90840045  0.62823947  0.53401738  1  -0.030596  0  -0.103336  -0.197906  0  3.968049  0
C  C311  1  0.09160247  0.87175919  0.03401640  1  -0.030486  0  -0.103309  -0.197831  0  3.967998  0
C  C312  1  0.55855319  0.97995481  0.60878631  1  -0.087393  0  -0.039684  -0.079301  0  4.034265  0
C  C313  1  0.44144564  0.52004196  0.10878488  1  -0.086687  0  -0.039883  -0.079562  0  4.034412  0
C  C314  1  0.44144680  0.02004062  0.39121742  1  -0.087733  0  -0.039816  -0.079388  0  4.034359  0
C  C315  1  0.55854686  0.47995717  0.89121250  1  -0.087832  0  -0.039815  -0.079398  0  4.034265  0
C  C316  1  0.23266413  0.42713763  0.36763841  1  1.520504  0  0.216844  0.591876  0  4.202107  0
C  C317  1  0.76733005  0.07286440  0.86763741  1  1.521479  0  0.216803  0.592016  0  4.201951  0
C  C318  1  0.76733338  0.57286532  0.63236231  1  1.521204  0  0.216854  0.592041  0  4.202135  0
C  C319  1  0.23266831  0.92713619  0.13236232  1  1.521225  0  0.216958  0.592123  0  4.201831  0
C  C320  1  0.42181242  0.71526957  0.42467005  1  -0.008399  0  -0.107124  -0.202646  0  3.980474  0
C  C321  1  0.57818929  0.78472921  0.92466956  1  -0.008318  0  -0.107067  -0.202647  0  3.980626  0
C  C322  1  0.57818571  0.28472961  0.57533034  1  -0.008405  0  -0.107119  -0.202688  0  3.980557  0
C  C323  1  0.42181352  0.21527189  0.07532916  1  -0.008396  0  -0.107131  -0.202773  0  3.980639  0
C  C324  1  0.37422895  0.61367287  0.32164887  1  1.554354  0  0.213599  0.599672  0  4.176595  0
C  C325  1  0.62577099  0.88632398  0.82164813  1  1.554365  0  0.213472  0.599448  0  4.176793  0
C  C326  1  0.62577246  0.38632728  0.67835186  1  1.554438  0  0.21364  0.599708  0  4.176488  0
C  C327  1  0.37422768  0.11367473  0.17835092  1  1.554477  0  0.213561  0.599576  0  4.176656  0
C  C328  1  0.36851771  0.76411680  0.14064106  1  0.254543  0  -0.126762  -0.26203  0  3.884694  0
C  C329  1  0.63147911  0.73588138  0.64064104  1  0.254347  0  -0.126726  -0.261863  0  3.884401  0
C  C330  1  0.63148322  0.23588052  0.85935833  1  0.254394  0  -0.126702  -0.261797  0  3.884629  0
C  C331  1  0.36851729  0.26411497  0.35935768  1  0.254538  0  -0.126757  -0.262012  0  3.884789  0
C  C332  1  0.88575197  0.20057629  0.68548604  1  -0.027474  0  -0.032105  -0.07236  0  4.009623  0
C  C333  1  0.11424619  0.29941724  0.18548747  1  -0.027687  0  -0.032126  -0.072313  0  4.0096  0
C  C334  1  0.11425084  0.79942105  0.31451402  1  -0.027069  0  -0.032032  -0.07222  0  4.009591  0
C  C335  1  0.88575210  0.70058288  0.81451058  1  -0.027612  0  -0.03211  -0.072133  0  4.009575  0
C  C336  1  0.51934093  0.58896197  0.20917322  1  1.37953  0  0.179497  0.310283  0  4.071574  0
C  C337  1  0.48066247  0.91103864  0.70917281  1  1.379322  0  0.179511  0.310352  0  4.071577  0
C  C338  1  0.48066314  0.41103914  0.79082651  1  1.379103  0  0.179547  0.310319  0  4.071483  0
C  C339  1  0.51933401  0.08896194  0.29082658  1  1.37972  0  0.179523  0.310416  0  4.071632  0
C  C340  1  0.60789770  0.01027865  0.64696971  1  1.553643  0  0.198646  0.56968  0  4.227011  0
C  C341  1  0.39210140  0.48972241  0.14696974  1  1.55365  0  0.19862  0.569674  0  4.227186  0
C  C342  1  0.39210284  0.98972008  0.35303268  1  1.553627  0  0.198578  0.569609  0  4.226993  0
C  C343  1  0.60789719  0.51027960  0.85302999  1  1.553777  0  0.198614  0.569565  0  4.227064  0
C  C344  1  0.82707675  0.15433491  0.71130967  1  1.525723  0  0.22019  0.596542  0  4.188271  0
C  C345  1  0.17292405  0.34566194  0.21131190  1  1.525511  0  0.220166  0.596424  0  4.188321  0
C  C346  1  0.17292419  0.84566241  0.28868871  1  1.525552  0  0.220119  0.596418  0  4.188463  0
C  C347  1  0.82707557  0.65433866  0.78868716  1  1.525473  0  0.22011  0.596245  0  4.188483  0
C  C348  1  0.38549433  0.66985739  0.35142190  1  0.046683  0  -0.031375  -0.068231  0  4.010348  0
C  C349  1  0.61450100  0.83014037  0.85142082  1  0.046598  0  -0.031355  -0.067954  0  4.010285  0
C  C350  1  0.61450583  0.33014275  0.64857782  1  0.046665  0  -0.031459  -0.068383  0  4.010347  0
C  C351  1  0.38549986  0.16986024  0.14857857  1  0.046635  0  -0.031387  -0.068013  0  4.01024  0
C  C352  1  0.67613015  0.84179174  0.16525892  1  0.044343  0  -0.10426  -0.207248  0  4.01561  0
C  C353  1  0.32386782  0.65821210  0.66525854  1  0.042398  0  -0.104269  -0.20734  0  4.015947  0
C  C354  1  0.32387728  0.15821458  0.83474081  1  0.042326  0  -0.104167  -0.207132  0  4.015796  0
C  C355  1  0.67613086  0.34179038  0.33474553  1  0.04275  0  -0.104215  -0.207357  0  4.015828  0
C  C356  1  0.45295671  0.97860373  0.55058531  1  0.03612  0  -0.109344  -0.214826  0  4.016495  0
C  C357  1  0.54703852  0.52139299  0.05058546  1  0.036176  0  -0.109275  -0.214804  0  4.016193  0
C  C358  1  0.54704454  0.02139548  0.44941575  1  0.035835  0  -0.1094  -0.214996  0  4.016509  0
C  C359  1  0.45295843  0.47860665  0.94941326  1  0.035839  0  -0.109332  -0.214793  0  4.016247  0
C  C360  1  0.85755420  0.22915532  0.64722324  1  -0.034287  0  -0.080084  -0.060266  0  3.98048  0
C  C361  1  0.14244466  0.27083680  0.14722742  1  -0.033807  0  -0.080093  -0.06031  0  3.980938  0
C  C362  1  0.14244712  0.77084060  0.35277548  1  -0.033849  0  -0.080097  -0.060288  0  3.980533  0
C  C363  1  0.85755527  0.72916570  0.85277130  1  -0.033589  0  -0.080079  -0.060373  0  3.981019  0
C  C364  1  0.08567972  0.64934369  0.19034655  1  -0.055128  0  -0.084101  -0.073375  0  4.006922  0
C  C365  1  0.91431665  0.85065685  0.69034816  1  -0.054355  0  -0.084051  -0.0733  0  4.006801  0
C  C366  1  0.91431848  0.35065596  0.80965150  1  -0.054491  0  -0.084096  -0.073412  0  4.006901  0
C  C367  1  0.08567952  0.14934184  0.30965390  1  -0.054472  0  -0.084113  -0.073404  0  4.006761  0
C  C368  1  0.20384298  0.40954485  0.41377676  1  -0.04652  0  -0.03333  -0.071376  0  4.016222  0
C  C369  1  0.79615165  0.09045767  0.91377681  1  -0.046522  0  -0.033299  -0.07148  0  4.016359  0
C  C370  1  0.79615789  0.59045953  0.58622431  1  -0.046274  0  -0.033325  -0.071505  0  4.016166  0
C  C371  1  0.20384608  0.90954292  0.08622358  1  -0.04641  0  -0.033283  -0.071419  0  4.016217  0
C  C372  1  0.99503041  0.59930083  0.24805231  1  -0.008123  0  -0.078434  -0.064224  0  3.985567  0
C  C373  1  0.00497183  0.90070213  0.74805148  1  -0.008087  0  -0.078478  -0.064349  0  3.985569  0
C  C374  1  0.00496967  0.40070261  0.75194808  1  -0.008373  0  -0.078445  -0.064277  0  3.985594  0
C  C375  1  0.99503021  0.09929802  0.25194924  1  -0.00815  0  -0.07846  -0.064287  0  3.985482  0
C  C376  1  0.02630538  0.68873381  0.18044374  1  0.005757  0  -0.104052  -0.207317  0  4.008371  0
C  C377  1  0.97368840  0.81126295  0.68044650  1  0.005244  0  -0.104046  -0.207415  0  4.008014  0
C  C378  1  0.97368938  0.31126393  0.81955398  1  0.005308  0  -0.104006  -0.207272  0  4.008163  0
C  C379  1  0.02630964  0.18873576  0.31955456  1  0.005177  0  -0.104095  -0.207492  0  4.008325  0
C  C380  1  0.65151323  0.60748286  0.16820220  1  0.289443  0  -0.128613  -0.273869  0  3.926076  0
C  C381  1  0.34848968  0.89251679  0.66820384  1  0.28954  0  -0.128605  -0.273878  0  3.926312  0
C  C382  1  0.34849076  0.39251778  0.83179719  1  0.289531  0  -0.128544  -0.273789  0  3.926227  0
C  C383  1  0.65150923  0.10748711  0.33179722  1  0.289992  0  -0.128617  -0.273945  0  3.9263  0
C  C384  1  0.61104718  0.50776637  0.21123855  1  0.220083  0  -0.129363  -0.266204  0  3.883924  0
C  C385  1  0.38895811  0.99223425  0.71123958  1  0.220611  0  -0.129362  -0.26629  0  3.883961  0
C  C386  1  0.38895634  0.49223520  0.78875951  1  0.22021  0  -0.129354  -0.266217  0  3.883858  0
C  C387  1  0.61104361  0.00776779  0.28876148  1  0.220649  0  -0.129367  -0.266267  0  3.883704  0
C  C388  1  0.25268659  0.78903565  0.19008544  1  0.300768  0  -0.131683  -0.272527  0  3.914893  0
C  C389  1  0.74731110  0.71096161  0.69008703  1  0.300515  0  -0.131688  -0.272708  0  3.915042  0
C  C390  1  0.74731434  0.21096167  0.80991294  1  0.300585  0  -0.131739  -0.272746  0  3.915017  0
C  C391  1  0.25268616  0.28903616  0.30991269  1  0.30062  0  -0.131706  -0.272629  0  3.915078  0
C  C392  1  0.91245852  0.26929270  0.62086969  1  -0.022541  0  -0.096614  -0.185381  0  3.95528  0
C  C393  1  0.08754286  0.23070083  0.12087274  1  -0.022826  0  -0.096696  -0.185546  0  3.955516  0
C  C394  1  0.08754382  0.73070180  0.37912937  1  -0.022602  0  -0.096736  -0.185566  0  3.955443  0
C  C395  1  0.91245706  0.76930166  0.87912598  1  -0.022882  0  -0.096832  -0.185572  0  3.955469  0
N  N396  1  0.41165734  0.82874215  0.43550898  1  -1.243296  0  -0.402995  -0.420302  0  3.550795  0
N  N397  1  0.58834453  0.67125711  0.93550987  1  -1.243884  0  -0.403046  -0.420237  0  3.550761  0
N  N398  1  0.58834251  0.17125987  0.56449175  1  -1.243341  0  -0.403014  -0.420306  0  3.550983  0
N  N399  1  0.41165750  0.32874305  0.06449052  1  -1.243365  0  -0.403028  -0.420174  0  3.550856  0
N  N400  1  0.31313242  0.74676117  0.17850682  1  -1.205438  0  -0.281419  0.025407  0  3.71535  0
N  N401  1  0.68686542  0.75323750  0.67850793  1  -1.205389  0  -0.281443  0.025505  0  3.715117  0
N  N402  1  0.68686797  0.25323662  0.82149157  1  -1.20541  0  -0.281239  0.02557  0  3.715336  0
N  N403  1  0.31313146  0.24676167  0.32149146  1  -1.205438  0  -0.281294  0.025478  0  3.715437  0
N  N404  1  0.77235879  0.77040892  0.18432309  1  -1.231056  0  -0.406146  -0.430303  0  3.565182  0
N  N405  1  0.22763894  0.72959257  0.68432214  1  -1.23112  0  -0.406353  -0.430537  0  3.565329  0
N  N406  1  0.22764223  0.22959263  0.81567730  1  -1.230998  0  -0.406283  -0.430364  0  3.565297  0
N  N407  1  0.77236154  0.27040946  0.31567725  1  -1.231267  0  -0.406381  -0.430598  0  3.565238  0
N  N408  1  0.12890845  0.36406238  0.54585816  1  -1.223113  0  -0.406258  -0.427597  0  3.560588  0
N  N409  1  0.87109131  0.13593630  0.04585937  1  -1.223668  0  -0.406223  -0.4276  0  3.560483  0
N  N410  1  0.87109561  0.63593497  0.45414223  1  -1.223174  0  -0.406196  -0.427488  0  3.560648  0
N  N411  1  0.12890783  0.86406524  0.95414102  1  -1.223107  0  -0.406228  -0.427585  0  3.560603  0
N  N412  1  0.59302201  0.57016486  0.19811083  1  -1.199239  0  -0.27979  0.024993  0  3.712726  0
N  N413  1  0.40698114  0.92983480  0.69811192  1  -1.199893  0  -0.279784  0.025084  0  3.713116  0
N  N414  1  0.40698205  0.42983625  0.80188790  1  -1.199722  0  -0.279801  0.025026  0  3.712812  0
N  N415  1  0.59301738  0.07016674  0.30188914  1  -1.200296  0  -0.279796  0.024941  0  3.712752  0
N  N416  1  0.89315208  0.72476879  0.19191217  1  -1.23043  0  -0.405048  -0.426449  0  3.56747  0
N  N417  1  0.10684438  0.77523223  0.69191160  1  -1.230561  0  -0.404993  -0.426452  0  3.567508  0
N  N418  1  0.10684432  0.27523132  0.80808822  1  -1.230498  0  -0.405006  -0.426396  0  3.567523  0
N  N419  1  0.89315734  0.22476981  0.30808679  1  -1.230463  0  -0.404987  -0.426416  0  3.567435  0
N  N420  1  0.43116635  0.89446057  0.49693349  1  -1.271001  0  -0.410093  -0.435999  0  3.558868  0
N  N421  1  0.56883125  0.60553631  0.99693403  1  -1.270955  0  -0.410035  -0.435886  0  3.558717  0
N  N422  1  0.56883435  0.10553910  0.50306657  1  -1.270988  0  -0.410135  -0.436171  0  3.558754  0
N  N423  1  0.43116570  0.39446333  0.00306536  1  -1.270935  0  -0.410136  -0.436084  0  3.558843  0
N  N424  1  0.05813630  0.31987370  0.60764611  1  -1.235773  0  -0.407049  -0.429037  0  3.546603  0
N  N425  1  0.94186263  0.18012075  0.10764948  1  -1.235624  0  -0.407005  -0.429057  0  3.546459  0
N  N426  1  0.94186486  0.68012127  0.39235294  1  -1.236236  0  -0.407016  -0.428986  0  3.546516  0
N  N427  1  0.05813651  0.81988079  0.89235192  1  -1.235769  0  -0.406972  -0.429004  0  3.546561  0
O  O428  1  0.30914902  0.47650293  0.25697563  1  -1.214373  0  -0.569339  -1.010478  0  2.497026  0
O  O429  1  0.69085020  0.02349723  0.75697579  1  -1.214274  0  -0.569341  -1.01048  0  2.497031  0
O  O430  1  0.69085192  0.52349816  0.74302543  1  -1.214437  0  -0.569329  -1.010462  0  2.497053  0
O  O431  1  0.30914730  0.97650195  0.24302460  1  -1.214472  0  -0.569328  -1.010389  0  2.496927  0
O  O432  1  0.20586386  0.57424526  0.21410919  1  -1.183198  0  -0.313108  -0.558167  0  2.356895  0
O  O433  1  0.79413489  0.92575342  0.71410884  1  -1.183312  0  -0.313019  -0.558057  0  2.356902  0
O  O434  1  0.79413575  0.42575534  0.78589221  1  -1.183236  0  -0.313028  -0.558071  0  2.356914  0
O  O435  1  0.20586300  0.07424434  0.28589289  1  -1.183228  0  -0.313038  -0.557982  0  2.35707  0
O  O436  1  0.36321808  0.65308371  0.19250965  1  -1.148121  0  -0.296808  -0.464912  0  2.357998  0
O  O437  1  0.63678198  0.84691639  0.69251062  1  -1.148171  0  -0.296842  -0.46499  0  2.357949  0
O  O438  1  0.63678450  0.34691598  0.80748907  1  -1.14808  0  -0.29678  -0.464911  0  2.357956  0
O  O439  1  0.36321544  0.15308231  0.30748944  1  -1.148174  0  -0.296768  -0.464891  0  2.35797  0
O  O440  1  0.33301654  0.61668271  0.28568315  1  -1.182188  0  -0.315902  -0.571839  0  2.338791  0
O  O441  1  0.66698092  0.88331599  0.78568285  1  -1.182226  0  -0.315881  -0.571749  0  2.338845  0
O  O442  1  0.66698503  0.38331838  0.71431657  1  -1.182299  0  -0.315899  -0.571803  0  2.338889  0
O  O443  1  0.33301565  0.11668506  0.21431621  1  -1.182259  0  -0.315883  -0.57183  0  2.338859  0
O  O444  1  0.66557465  0.98285448  0.66365678  1  -1.181143  0  -0.318654  -0.55555  0  2.314553  0
O  O445  1  0.33442464  0.51714608  0.16365611  1  -1.181198  0  -0.31868  -0.555572  0  2.314713  0
O  O446  1  0.33442817  0.01714662  0.33634462  1  -1.180946  0  -0.318645  -0.555559  0  2.31458  0
O  O447  1  0.66557326  0.48285545  0.83634429  1  -1.181054  0  -0.318646  -0.555499  0  2.314645  0
O  O448  1  0.46398136  0.55601595  0.23168202  1  -1.176665  0  -0.293114  -0.467338  0  2.404051  0
O  O449  1  0.53602223  0.94398466  0.73168240  1  -1.176196  0  -0.293118  -0.467393  0  2.404025  0
O  O450  1  0.53602529  0.44398565  0.76831704  1  -1.176121  0  -0.293153  -0.467412  0  2.404089  0
O  O451  1  0.46397301  0.05601591  0.26831632  1  -1.176155  0  -0.293107  -0.467385  0  2.404189  0
O  O452  1  0.74911963  0.14917172  0.70053512  1  -1.186087  0  -0.319171  -0.558978  0  2.36985  0
O  O453  1  0.25088419  0.35082139  0.20054320  1  -1.185942  0  -0.319115  -0.558861  0  2.369846  0
O  O454  1  0.25088270  0.85082279  0.29945993  1  -1.185961  0  -0.319076  -0.558819  0  2.36985  0
O  O455  1  0.74911729  0.64917923  0.79945652  1  -1.186013  0  -0.319083  -0.558777  0  2.369952  0
O  O456  1  0.42869065  0.86511621  0.25031097  1  -1.175754  0  -0.31466  -0.54679  0  2.317336  0
O  O457  1  0.57130856  0.63488720  0.75030749  1  -1.175731  0  -0.314635  -0.546721  0  2.317273  0
O  O458  1  0.57131458  0.13488444  0.74969009  1  -1.175952  0  -0.314681  -0.54682  0  2.31725  0
O  O459  1  0.42869403  0.36511625  0.24969089  1  -1.175711  0  -0.314649  -0.546704  0  2.317208  0
O  O460  1  0.47210681  0.93262541  0.19343660  1  -1.170882  0  -0.318104  -0.553054  0  2.355491  0
O  O461  1  0.52788872  0.56737371  0.69343471  1  -1.171126  0  -0.318082  -0.552978  0  2.355432  0
O  O462  1  0.52789272  0.06737472  0.80656212  1  -1.170931  0  -0.318062  -0.553049  0  2.355437  0
O  O463  1  0.47210909  0.43262735  0.30656535  1  -1.17113  0  -0.318001  -0.552962  0  2.355399  0
O  O464  1  0.40723425  0.56564572  0.33557415  1  -1.167963  0  -0.330438  -0.555274  0  2.321201  0
O  O465  1  0.59276259  0.93435064  0.83557233  1  -1.167854  0  -0.330375  -0.555255  0  2.321319  0
O  O466  1  0.59276458  0.43435394  0.66442657  1  -1.167935  0  -0.330419  -0.555233  0  2.321175  0
O  O467  1  0.40723538  0.06564760  0.16442539  1  -1.167865  0  -0.330419  -0.555233  0  2.321074  0
O  O468  1  0.31216950  0.43694677  0.36131356  1  -1.15711  0  -0.322909  -0.567936  0  2.353689  0
O  O469  1  0.68782329  0.06305101  0.86131337  1  -1.157415  0  -0.322846  -0.567905  0  2.353382  0
O  O470  1  0.68782901  0.56305477  0.63868751  1  -1.157239  0  -0.322887  -0.567924  0  2.353565  0
O  O471  1  0.31217351  0.93694769  0.13868535  1  -1.157256  0  -0.322934  -0.567947  0  2.353571  0
O  O472  1  0.11661453  0.51812120  0.26313195  1  -1.150676  0  -0.323463  -0.548672  0  2.289135  0
O  O473  1  0.88338345  0.98187797  0.76313380  1  -1.150652  0  -0.323454  -0.548662  0  2.289112  0
O  O474  1  0.88338500  0.48187893  0.73686878  1  -1.150621  0  -0.323465  -0.548677  0  2.289119  0
O  O475  1  0.11661389  0.01812027  0.23686827  1  -1.150591  0  -0.323401  -0.548544  0  2.289157  0
O  O476  1  0.17588020  0.43051690  0.33802135  1  -1.178094  0  -0.321239  -0.553692  0  2.318885  0
O  O477  1  0.82411335  0.06948652  0.83802114  1  -1.178763  0  -0.321319  -0.553869  0  2.319023  0
O  O478  1  0.82411574  0.56948414  0.66197871  1  -1.178721  0  -0.321325  -0.553902  0  2.319076  0
O  O479  1  0.17588150  0.93051922  0.16197825  1  -1.178725  0  -0.321313  -0.553855  0  2.318839  0
O  O480  1  0.85878169  0.12351869  0.74209146  1  -1.178116  0  -0.321638  -0.555927  0  2.330841  0
O  O481  1  0.14121483  0.37648097  0.24208993  1  -1.178125  0  -0.321675  -0.555936  0  2.330873  0
O  O482  1  0.14121722  0.87648144  0.25790960  1  -1.178067  0  -0.321698  -0.556  0  2.33094  0
O  O483  1  0.85878760  0.62352155  0.75790846  1  -1.178139  0  -0.321669  -0.555899  0  2.330847  0
O  O484  1  0.58906834  0.06378832  0.66115053  1  -1.170387  0  -0.329135  -0.566524  0  2.288705  0
O  O485  1  0.41093026  0.43621274  0.16115162  1  -1.170311  0  -0.329089  -0.566504  0  2.288748  0
O  O486  1  0.41093080  0.93620946  0.33885086  1  -1.170335  0  -0.329091  -0.566486  0  2.288546  0
O  O487  1  0.58906920  0.56379069  0.83884777  1  -1.170453  0  -0.329139  -0.566508  0  2.288661  0
O  O488  1  0.45620318  0.79102117  0.50263334  1  -1.146991  0  -0.300206  -0.510044  0  2.091109  0
O  O489  1  0.54380034  0.70897890  0.00263411  1  -1.146956  0  -0.300196  -0.510017  0  2.091057  0
O  O490  1  0.54379909  0.20898040  0.49736672  1  -1.147013  0  -0.30023  -0.510056  0  2.090985  0
O  O491  1  0.45620013  0.29102313  0.99736562  1  -1.146916  0  -0.300204  -0.510018  0  2.091141  0
O  O492  1  0.78492033  0.70221203  0.24333892  1  -1.15024  0  -0.297753  -0.513236  0  2.088686  0
O  O493  1  0.21507921  0.79778997  0.74333726  1  -1.15023  0  -0.297795  -0.513384  0  2.088612  0
O  O494  1  0.21508014  0.29778999  0.75666147  1  -1.150294  0  -0.297741  -0.513309  0  2.088565  0
O  O495  1  0.78492275  0.20221348  0.25666046  1  -1.150171  0  -0.297823  -0.513335  0  2.088582  0
O  O496  1  0.98923942  0.32013678  0.53954089  1  -1.146429  0  -0.293295  -0.501395  0  2.08557  0
O  O497  1  0.01076947  0.17983843  0.03954612  1  -1.146868  0  -0.293202  -0.501399  0  2.085738  0
O  O498  1  0.01077397  0.67983804  0.46045449  1  -1.146869  0  -0.293196  -0.501409  0  2.085764  0
O  O499  1  0.98923722  0.82014481  0.96045761  1  -1.146915  0  -0.293155  -0.501238  0  2.085687  0
