# generated using pymatgen
data_Zn2H35C51N7O8
_symmetry_space_group_name_H-M   'P 1'
_cell_length_a   15.31329781
_cell_length_b   15.31330356
_cell_length_c   37.43445457
_cell_angle_alpha   86.10351970
_cell_angle_beta   86.10356922
_cell_angle_gamma   74.59887672
_symmetry_Int_Tables_number   1
_chemical_formula_structural   Zn2H35C51N7O8
_chemical_formula_sum   'Zn8 H140 C204 N28 O32'
_cell_volume   8432.11230963
_cell_formula_units_Z   4
loop_
 _symmetry_equiv_pos_site_id
 _symmetry_equiv_pos_as_xyz
  1  'x, y, z'
loop_
 _atom_site_type_symbol
 _atom_site_label
 _atom_site_symmetry_multiplicity
 _atom_site_fract_x
 _atom_site_fract_y
 _atom_site_fract_z
 _atom_site_occupancy
 _atom_site_pbe_bader_charge
 _atom_site_pbe_bader_spin_density
 _atom_site_pbe_cm5_charge
 _atom_site_pbe_ddec_charge
 _atom_site_pbe_ddec_spin_density
 _atom_site_pbe_ddec_sum_bond_order
 _atom_site_pbe_magmom
Zn  Zn0  1  0.99825579  0.26209463  0.32461704  1  1.294872  0  0.669512  0.846407  0  2.380772  0
Zn  Zn1  1  0.98751882  0.25046529  0.40163866  1  1.295525  0  0.67021  0.838864  0  2.376341  0
Zn  Zn2  1  0.26209549  0.99825722  0.82461897  1  1.294732  0  0.669556  0.846511  0  2.380807  0
Zn  Zn3  1  0.25046830  0.98752154  0.90164104  1  1.295619  0  0.670244  0.838939  0  2.376185  0
Zn  Zn4  1  0.73789822  0.00174358  0.17538194  1  1.294851  0  0.669522  0.846524  0  2.380698  0
Zn  Zn5  1  0.74952811  0.01248118  0.09836028  1  1.295332  0  0.670192  0.83885  0  2.376353  0
Zn  Zn6  1  0.00174203  0.73789663  0.67538161  1  1.294726  0  0.669473  0.8464  0  2.380829  0
Zn  Zn7  1  0.01248171  0.74952789  0.59835986  1  1.295304  0  0.670179  0.838876  0  2.376312  0
H  H8  1  0.90755532  0.99709643  0.41168662  1  0.08065  0  0.102828  0.103375  0  1.005947  0
H  H9  1  0.28724341  0.16408594  0.42149790  1  0.083577  0  0.101268  0.103471  0  1.001564  0
H  H10  1  0.27362412  0.26953999  0.31228843  1  0.063266  0  0.103319  0.109417  0  0.998671  0
H  H11  1  0.04707318  0.13274671  0.53490594  1  0.114842  0  0.122602  0.121797  0  1.034473  0
H  H12  1  0.43520861  0.27213619  0.31139493  1  0.043005  0  0.099853  0.099334  0  1.00608  0
H  H13  1  0.11369719  0.20869795  0.47200479  1  0.157246  0  0.130266  0.130064  0  0.980839  0
H  H14  1  0.96573847  0.00719567  0.54653952  1  0.075678  0  0.107091  0.116407  0  1.010385  0
H  H15  1  0.85930874  0.95519726  0.58964045  1  0.127059  0  0.107762  0.122257  0  1.026797  0
H  H16  1  0.44970231  0.16270734  0.42060957  1  0.04692  0  0.10009  0.099296  0  1.0053  0
H  H17  1  0.89017863  0.83886838  0.41200371  1  0.069366  0  0.101093  0.097293  0  1.011502  0
H  H18  1  0.98781152  0.52355800  0.41998788  1  0.104243  0  0.107599  0.11405  0  0.992409  0
H  H19  1  0.69429582  0.28724048  0.41910372  1  0.07898  0  0.098016  0.099442  0  1.011815  0
H  H20  1  0.84317393  0.20751430  0.45906969  1  0.162902  0  0.144913  0.113413  0  0.991697  0
H  H21  1  0.28039611  0.02835784  0.59020547  1  0.067988  0  0.099938  0.095631  0  0.995283  0
H  H22  1  0.73728617  0.21477768  0.30943555  1  0.104429  0  0.101894  0.10826  0  1.000625  0
H  H23  1  0.53922493  0.26444336  0.42087577  1  0.048537  0  0.09842  0.097068  0  1.009029  0
H  H24  1  0.39013053  0.96896133  0.74748121  1  0.155859  0  0.15045  0.109778  0  0.946532  0
H  H25  1  0.46608452  0.02782454  0.69443655  1  0.076349  0  0.10626  0.115096  0  1.014539  0
H  H26  1  0.06364490  0.95715879  0.31194045  1  0.102118  0  0.106368  0.106393  0  1.008091  0
H  H27  1  0.98529623  0.68706955  0.42002091  1  0.05669  0  0.096968  0.094001  0  1.015291  0
H  H28  1  0.75363723  0.24452643  0.51701551  1  0.076983  0  0.112107  0.119523  0  0.989471  0
H  H29  1  0.64536954  0.19050270  0.56026882  1  0.112884  0  0.112385  0.117618  0  0.981266  0
H  H30  1  0.21021633  0.02972025  0.65143611  1  0.072108  0  0.099429  0.104732  0  1.051086  0
H  H31  1  0.05129366  0.79848502  0.31280698  1  0.063447  0  0.103384  0.104549  0  0.996677  0
H  H32  1  0.58306543  0.19004314  0.31088382  1  0.055739  0  0.096166  0.092179  0  1.01517  0
H  H33  1  0.94334758  0.71494283  0.30661096  1  0.058271  0  0.097157  0.092992  0  1.018519  0
H  H34  1  0.44451358  0.02783432  0.58064723  1  0.08717  0  0.103769  0.109552  0  1.004867  0
H  H35  1  0.94556022  0.55157671  0.30728803  1  0.100083  0  0.103886  0.107834  0  1.00143  0
H  H36  1  0.14620487  0.14523909  0.77011867  1  0.071341  0  0.113646  0.081648  0  0.9519  0
H  H37  1  0.17088993  0.14045052  0.69818003  1  0.088722  0  0.111374  0.075032  0  0.988655  0
H  H38  1  0.80976660  0.93687186  0.66494831  1  0.120566  0  0.110175  0.138735  0  1.011653  0
H  H39  1  0.75504668  0.04102702  0.68556545  1  0.096154  0  0.113035  0.131032  0  0.969134  0
H  H40  1  0.82134511  0.04211485  0.64440152  1  0.083519  0  0.106592  0.119366  0  1.038138  0
H  H41  1  0.07841148  0.98541700  0.77374078  1  0.120483  0  0.10414  0.120971  0  1.059905  0
H  H42  1  0.11663336  0.97103450  0.69741820  1  0.100748  0  0.106534  0.124313  0  1.027007  0
H  H43  1  0.99709625  0.90755563  0.91168796  1  0.080608  0  0.102804  0.103365  0  1.005941  0
H  H44  1  0.16408139  0.28724552  0.92150006  1  0.083525  0  0.101249  0.103466  0  1.001498  0
H  H45  1  0.26953668  0.27362939  0.81229104  1  0.063216  0  0.103292  0.109386  0  0.998809  0
H  H46  1  0.13274400  0.04707307  0.03490817  1  0.115159  0  0.122604  0.121795  0  1.034434  0
H  H47  1  0.27213285  0.43521242  0.81139781  1  0.043118  0  0.099862  0.099308  0  1.00611  0
H  H48  1  0.20869824  0.11370011  0.97200739  1  0.157214  0  0.130239  0.130062  0  0.980819  0
H  H49  1  0.00719775  0.96573882  0.04654009  1  0.075624  0  0.107093  0.116414  0  1.010362  0
H  H50  1  0.95519653  0.85930808  0.08964051  1  0.127044  0  0.107784  0.122247  0  1.026727  0
H  H51  1  0.16270340  0.44970550  0.92061300  1  0.046704  0  0.100079  0.099213  0  1.005286  0
H  H52  1  0.83886965  0.89017623  0.91200372  1  0.06935  0  0.101089  0.097299  0  1.011485  0
H  H53  1  0.52355882  0.98781176  0.91998882  1  0.10394  0  0.10756  0.114024  0  0.992459  0
H  H54  1  0.28724514  0.69429643  0.91910617  1  0.078804  0  0.097962  0.099401  0  1.011809  0
H  H55  1  0.20751762  0.84317597  0.95907103  1  0.162973  0  0.144917  0.113341  0  0.991754  0
H  H56  1  0.02835701  0.28039518  0.09020441  1  0.067914  0  0.099981  0.095663  0  0.99532  0
H  H57  1  0.21478152  0.73728678  0.80943800  1  0.104549  0  0.101899  0.108233  0  1.00063  0
H  H58  1  0.26444560  0.53922578  0.92087803  1  0.048466  0  0.098388  0.097047  0  1.008964  0
H  H59  1  0.96896466  0.39012910  0.24747967  1  0.155936  0  0.150435  0.109769  0  0.946566  0
H  H60  1  0.02782367  0.46608106  0.19443606  1  0.076445  0  0.106287  0.115124  0  1.014584  0
H  H61  1  0.95715859  0.06364815  0.81194239  1  0.102203  0  0.106337  0.106292  0  1.008116  0
H  H62  1  0.68707060  0.98529640  0.92002108  1  0.056388  0  0.096936  0.093966  0  1.015319  0
H  H63  1  0.24452702  0.75363561  0.01701599  1  0.077004  0  0.112108  0.119538  0  0.989458  0
H  H64  1  0.19050196  0.64536714  0.06026884  1  0.112852  0  0.112368  0.117608  0  0.981243  0
H  H65  1  0.02972107  0.21021330  0.15143481  1  0.072445  0  0.099446  0.104736  0  1.051021  0
H  H66  1  0.79848575  0.05129419  0.81280734  1  0.063488  0  0.103377  0.104547  0  0.996611  0
H  H67  1  0.19004259  0.58306848  0.81088661  1  0.055918  0  0.096222  0.09225  0  1.0152  0
H  H68  1  0.71494314  0.94334011  0.80661163  1  0.058314  0  0.097178  0.09299  0  1.018516  0
H  H69  1  0.02783234  0.44451443  0.08064666  1  0.087092  0  0.103739  0.109496  0  1.004925  0
H  H70  1  0.55157655  0.94555401  0.80728945  1  0.1001  0  0.103876  0.107792  0  1.00151  0
H  H71  1  0.14523582  0.14620075  0.27011781  1  0.070748  0  0.113685  0.081734  0  0.951907  0
H  H72  1  0.14044767  0.17088304  0.19817949  1  0.088776  0  0.111365  0.075083  0  0.988661  0
H  H73  1  0.93687133  0.80976610  0.16494757  1  0.120505  0  0.11022  0.13882  0  1.011516  0
H  H74  1  0.04102453  0.75504538  0.18556490  1  0.0962  0  0.113048  0.131026  0  0.969131  0
H  H75  1  0.04211384  0.82134396  0.14440091  1  0.083553  0  0.10659  0.119384  0  1.038044  0
H  H76  1  0.98541202  0.07841501  0.27374100  1  0.120452  0  0.104159  0.121096  0  1.059803  0
H  H77  1  0.97102492  0.11663541  0.19741829  1  0.100856  0  0.106557  0.124328  0  1.027005  0
H  H78  1  0.00289812  0.09244563  0.08831559  1  0.080735  0  0.102852  0.103443  0  1.005897  0
H  H79  1  0.83591231  0.71275791  0.07850104  1  0.083539  0  0.101245  0.103423  0  1.001562  0
H  H80  1  0.73045973  0.72637660  0.18771046  1  0.063296  0  0.103282  0.109377  0  0.998734  0
H  H81  1  0.86725242  0.95292177  0.96509495  1  0.113792  0  0.122591  0.121823  0  1.034413  0
H  H82  1  0.72786355  0.56479356  0.18860476  1  0.043027  0  0.099843  0.099326  0  1.006108  0
H  H83  1  0.79129952  0.88629962  0.02799585  1  0.157161  0  0.13026  0.130027  0  0.980855  0
H  H84  1  0.99280005  0.03425963  0.95345997  1  0.075695  0  0.107101  0.116385  0  1.010369  0
H  H85  1  0.04479990  0.14069072  0.91036037  1  0.127054  0  0.107782  0.122295  0  1.026736  0
H  H86  1  0.83729232  0.55029738  0.07939021  1  0.046908  0  0.100069  0.099277  0  1.005284  0
H  H87  1  0.16112676  0.10982058  0.08799883  1  0.069528  0  0.101031  0.097162  0  1.011413  0
H  H88  1  0.47643489  0.01219233  0.08001093  1  0.103971  0  0.107547  0.113975  0  0.992435  0
H  H89  1  0.71275806  0.30570518  0.08089500  1  0.078929  0  0.097988  0.099466  0  1.011763  0
H  H90  1  0.79248288  0.15682308  0.04092975  1  0.162982  0  0.144928  0.113349  0  0.991758  0
H  H91  1  0.97164621  0.71959857  0.90979643  1  0.068325  0  0.099922  0.095605  0  0.99536  0
H  H92  1  0.78521828  0.26271309  0.19056358  1  0.104478  0  0.101909  0.108255  0  1.000612  0
H  H93  1  0.73555488  0.46077653  0.07912373  1  0.048501  0  0.098396  0.097016  0  1.009047  0
H  H94  1  0.03100269  0.60985568  0.75251966  1  0.155494  0  0.150438  0.109887  0  0.946482  0
H  H95  1  0.97216666  0.53392327  0.80556350  1  0.076407  0  0.106261  0.115066  0  1.014641  0
H  H96  1  0.04284059  0.93634012  0.18805763  1  0.102281  0  0.106431  0.106482  0  1.008004  0
H  H97  1  0.31292313  0.01470245  0.07997934  1  0.056472  0  0.096958  0.093985  0  1.015274  0
H  H98  1  0.75547009  0.24636104  0.98298520  1  0.09263  0  0.112073  0.119521  0  0.989518  0
H  H99  1  0.80949447  0.35463035  0.93973235  1  0.112892  0  0.112402  0.117653  0  0.981225  0
H  H100  1  0.97029230  0.78978239  0.84856705  1  0.071608  0  0.099464  0.104759  0  1.05106  0
H  H101  1  0.20151615  0.94868945  0.18719246  1  0.062654  0  0.103408  0.104639  0  0.996657  0
H  H102  1  0.80995517  0.41693257  0.18911525  1  0.055818  0  0.096177  0.092181  0  1.015254  0
H  H103  1  0.28505333  0.05664297  0.19338939  1  0.058256  0  0.097152  0.092926  0  1.018624  0
H  H104  1  0.97216207  0.55548163  0.91935301  1  0.087146  0  0.103781  0.109515  0  1.004852  0
H  H105  1  0.44841786  0.05443876  0.19271191  1  0.099934  0  0.103912  0.107905  0  1.001375  0
H  H106  1  0.85481403  0.85383584  0.72988367  1  0.072027  0  0.113693  0.081664  0  0.952051  0
H  H107  1  0.85960423  0.82914843  0.80182260  1  0.090182  0  0.111321  0.074822  0  0.988754  0
H  H108  1  0.06312578  0.19023318  0.83505329  1  0.120615  0  0.11019  0.138756  0  1.01163  0
H  H109  1  0.95897394  0.24495289  0.81443515  1  0.096211  0  0.113039  0.13103  0  0.969136  0
H  H110  1  0.95788125  0.17865454  0.85559841  1  0.083445  0  0.106575  0.119385  0  1.038079  0
H  H111  1  0.01469236  0.92152960  0.72625477  1  0.119883  0  0.104163  0.12104  0  1.059754  0
H  H112  1  0.02906788  0.88332858  0.80257700  1  0.103988  0  0.106658  0.124552  0  1.026907  0
H  H113  1  0.09244382  0.00289641  0.58831595  1  0.080708  0  0.102849  0.103433  0  1.005889  0
H  H114  1  0.71275848  0.83591016  0.57850051  1  0.083583  0  0.101238  0.103432  0  1.001562  0
H  H115  1  0.72637300  0.73046061  0.68771025  1  0.063116  0  0.103258  0.109353  0  0.998825  0
H  H116  1  0.95292054  0.86725280  0.46509447  1  0.113748  0  0.122605  0.121825  0  1.03442  0
H  H117  1  0.56478918  0.72786621  0.68860370  1  0.043046  0  0.099871  0.099327  0  1.006063  0
H  H118  1  0.88629788  0.79130120  0.52799585  1  0.157123  0  0.130239  0.130046  0  0.980833  0
H  H119  1  0.03425731  0.99279939  0.45345962  1  0.075648  0  0.107106  0.116399  0  1.010294  0
H  H120  1  0.14068771  0.04479893  0.41035944  1  0.127033  0  0.107781  0.122305  0  1.026826  0
H  H121  1  0.55029821  0.83729173  0.57938880  1  0.046859  0  0.100083  0.099253  0  1.005353  0
H  H122  1  0.10981984  0.16112464  0.58799808  1  0.069537  0  0.10102  0.097167  0  1.0114  0
H  H123  1  0.01219515  0.47643099  0.58000846  1  0.103726  0  0.107566  0.114004  0  0.992416  0
H  H124  1  0.30570404  0.71275353  0.58089426  1  0.078831  0  0.097966  0.099429  0  1.011773  0
H  H125  1  0.15682321  0.79248107  0.54092860  1  0.162897  0  0.14491  0.11333  0  0.991762  0
H  H126  1  0.71959623  0.97164593  0.40979619  1  0.068393  0  0.099913  0.095625  0  0.995324  0
H  H127  1  0.26271232  0.78521930  0.69056266  1  0.104522  0  0.101888  0.108209  0  1.000598  0
H  H128  1  0.46077424  0.73555344  0.57912243  1  0.048488  0  0.098397  0.097061  0  1.008962  0
H  H129  1  0.60985516  0.03100166  0.25251874  1  0.155483  0  0.150471  0.109948  0  0.946479  0
H  H130  1  0.53392007  0.97216757  0.30556269  1  0.076456  0  0.106279  0.115108  0  1.014525  0
H  H131  1  0.93633732  0.04284177  0.68805755  1  0.102247  0  0.106443  0.106508  0  1.008008  0
H  H132  1  0.01470364  0.31291922  0.57997747  1  0.05686  0  0.096929  0.093934  0  1.015234  0
H  H133  1  0.24635990  0.75546893  0.48298384  1  0.093098  0  0.112111  0.119556  0  0.989562  0
H  H134  1  0.35462893  0.80949557  0.43973122  1  0.112909  0  0.112394  0.117648  0  0.981232  0
H  H135  1  0.78977936  0.97029377  0.34856627  1  0.071657  0  0.099485  0.104761  0  1.051073  0
H  H136  1  0.94868787  0.20151833  0.68719150  1  0.062637  0  0.103422  0.104693  0  0.996621  0
H  H137  1  0.41693171  0.80995616  0.68911383  1  0.055777  0  0.09623  0.092266  0  1.015195  0
H  H138  1  0.05664210  0.28505316  0.69338803  1  0.058328  0  0.097172  0.092981  0  1.01855  0
H  H139  1  0.55548084  0.97215977  0.41935223  1  0.087165  0  0.103791  0.10952  0  1.004942  0
H  H140  1  0.05443897  0.44841683  0.69270918  1  0.099921  0  0.103913  0.107911  0  1.001408  0
H  H141  1  0.85383475  0.85481125  0.22988538  1  0.071958  0  0.113678  0.081696  0  0.952036  0
H  H142  1  0.82914494  0.85960630  0.30182371  1  0.09011  0  0.111303  0.074801  0  0.988791  0
H  H143  1  0.19023052  0.06312415  0.33505183  1  0.120635  0  0.11016  0.138706  0  1.011706  0
H  H144  1  0.24495112  0.95897143  0.31443380  1  0.096111  0  0.113027  0.13099  0  0.969088  0
H  H145  1  0.17865271  0.95788033  0.35559755  1  0.083389  0  0.106574  0.119335  0  1.038149  0
H  H146  1  0.92153253  0.01468907  0.22625442  1  0.119873  0  0.104197  0.121088  0  1.059613  0
H  H147  1  0.88332827  0.02906698  0.30257747  1  0.10402  0  0.106642  0.124529  0  1.026934  0
C  C148  1  0.93940941  0.95224162  0.39039632  1  -0.036364  0  -0.087206  -0.093753  0  4.003268  0
C  C149  1  0.26936019  0.21825774  0.36706381  1  0.026047  0  -0.022652  -0.041815  0  3.96374  0
C  C150  1  0.99698655  0.08173562  0.36204146  1  1.587709  0  0.209065  0.570855  0  4.20917  0
C  C151  1  0.98793930  0.98641960  0.36217859  1  -0.063902  0  -0.022663  -0.047219  0  3.976306  0
C  C152  1  0.31996807  0.18811283  0.39746367  1  -0.011837  0  -0.087664  -0.086914  0  3.984925  0
C  C153  1  0.16989121  0.22370595  0.36747758  1  1.534689  0  0.209575  0.581241  0  4.187085  0
C  C154  1  0.31295497  0.24622628  0.33589744  1  -0.086365  0  -0.084968  -0.082696  0  3.986197  0
C  C155  1  0.45440639  0.21908775  0.36614466  1  0.006547  0  -0.003267  0.074922  0  3.984655  0
C  C156  1  0.97536670  0.42799878  0.36305908  1  1.582923  0  0.216038  0.593703  0  4.171832  0
C  C157  1  0.86612517  0.12947164  0.52939497  1  0.26732  0  0.091274  0.158794  0  4.035456  0
C  C158  1  0.81954300  0.26676740  0.36330774  1  1.567177  0  0.209021  0.588928  0  4.175319  0
C  C159  1  0.68018457  0.04606257  0.60490123  1  0.977452  0  0.221545  0.202789  0  4.035522  0
C  C160  1  0.01646957  0.15892691  0.50982405  1  0.352696  0  -0.000761  -0.115334  0  3.929678  0
C  C161  1  0.40365262  0.24681149  0.33548297  1  -0.055328  0  -0.092951  -0.136877  0  3.987045  0
C  C162  1  0.04754076  0.19760438  0.47907608  1  0.323224  0  0.010122  -0.018127  0  3.9796  0
C  C163  1  0.33326892  0.02840269  0.67710572  1  0.3181  0  0.092404  0.176521  0  4.080198  0
C  C164  1  0.96793983  0.52756007  0.36356082  1  -0.024079  0  -0.014637  -0.028401  0  3.953778  0
C  C165  1  0.89616266  0.04861864  0.54990239  1  -0.027927  0  -0.088795  -0.159745  0  3.988022  0
C  C166  1  0.74573847  0.07147134  0.57872575  1  -0.015849  0  -0.001732  0.027531  0  4.018759  0
C  C167  1  0.54898926  0.22628312  0.36588554  1  -0.009887  0  -0.001878  0.07558  0  3.982925  0
C  C168  1  0.83604196  0.01983023  0.57459731  1  0.039134  0  -0.080951  -0.100073  0  3.945758  0
C  C169  1  0.41099732  0.18823483  0.39694654  1  -0.016925  0  -0.091123  -0.13288  0  3.978803  0
C  C170  1  0.93063974  0.86408153  0.39062067  1  -0.123518  0  -0.092929  -0.143911  0  3.998965  0
C  C171  1  0.72577286  0.25287440  0.36415998  1  -0.03478  0  -0.022493  -0.037829  0  3.961142  0
C  C172  1  0.97725547  0.56650719  0.39542074  1  -0.014031  0  -0.08125  -0.081387  0  3.975424  0
C  C173  1  0.55880256  0.02748193  0.63106538  1  0.957257  0  0.208647  0.263736  0  4.100947  0
C  C174  1  0.97087483  0.80702982  0.36276396  1  0.020749  0  -0.002752  0.077545  0  3.998718  0
C  C175  1  0.66952518  0.26513716  0.39558064  1  -0.031391  0  -0.091206  -0.095538  0  4.004486  0
C  C176  1  0.96515671  0.71230231  0.36326948  1  -0.001118  0  -0.009531  0.064493  0  4.015014  0
C  C177  1  0.90726865  0.19960971  0.47124564  1  0.986721  0  0.152775  0.105068  0  3.878241  0
C  C178  1  0.32129970  0.02802856  0.61296409  1  -0.066833  0  -0.090321  -0.059559  0  4.054771  0
C  C179  1  0.69330727  0.22553182  0.33376314  1  -0.067126  0  -0.086889  -0.088109  0  3.980881  0
C  C180  1  0.58285788  0.25191136  0.39646860  1  -0.052091  0  -0.093425  -0.136368  0  3.991336  0
C  C181  1  0.32039837  0.00893152  0.74432690  1  1.08589  0  0.195112  0.194641  0  3.95515  0
C  C182  1  0.42514339  0.02553217  0.67197920  1  0.035504  0  -0.09103  -0.215114  0  3.941853  0
C  C183  1  0.46437162  0.02510991  0.63706412  1  -0.021067  0  -0.000357  0.057914  0  4.016657  0
C  C184  1  0.02693336  0.93037479  0.33412106  1  -0.050827  0  -0.085363  -0.095708  0  4.018697  0
C  C185  1  0.97528060  0.65787734  0.39530659  1  -0.096161  0  -0.091901  -0.134124  0  3.989427  0
C  C186  1  0.77577444  0.18076391  0.53275385  1  -0.026059  0  -0.091395  -0.17346  0  4.010172  0
C  C187  1  0.71580895  0.15124057  0.55709347  1  -0.035193  0  -0.07585  -0.083947  0  3.961392  0
C  C188  1  0.28138667  0.02889117  0.64750641  1  -0.024451  0  -0.100412  -0.18541  0  3.993756  0
C  C189  1  0.01890667  0.84199078  0.33445198  1  -0.053396  0  -0.091  -0.134344  0  3.977819  0
C  C190  1  0.60660835  0.21241549  0.33466511  1  -0.038889  0  -0.091856  -0.130388  0  3.986103  0
C  C191  1  0.95351487  0.67320882  0.33158020  1  -0.077042  0  -0.095571  -0.143326  0  4.006629  0
C  C192  1  0.41234383  0.02675450  0.60746413  1  -0.000785  0  -0.09035  -0.127514  0  3.966897  0
C  C193  1  0.95444734  0.58214485  0.33176624  1  -0.037582  0  -0.08362  -0.083239  0  3.988062  0
C  C194  1  0.17406896  0.08069458  0.75717287  1  0.305489  0  0.017405  0.095188  0  3.807995  0
C  C195  1  0.19059957  0.07814534  0.71536377  1  0.287505  0  0.020492  0.041697  0  3.818279  0
C  C196  1  0.77521139  0.00871932  0.65995957  1  0.210549  0  -0.124998  -0.29972  0  3.892022  0
C  C197  1  0.11487108  0.01734342  0.75326428  1  -0.111692  0  -0.084686  -0.122089  0  3.796594  0
C  C198  1  0.13240488  0.01162232  0.71761098  1  -0.067801  0  -0.093585  -0.155641  0  3.838045  0
C  C199  1  0.95224333  0.93940902  0.89039654  1  -0.036374  0  -0.087222  -0.093809  0  4.003155  0
C  C200  1  0.21825573  0.26936254  0.86706618  1  0.02579  0  -0.022646  -0.041869  0  3.963606  0
C  C201  1  0.08173701  0.99698685  0.86204231  1  1.587664  0  0.209053  0.570912  0  4.209089  0
C  C202  1  0.98642056  0.98793763  0.86217913  1  -0.063896  0  -0.022614  -0.047277  0  3.976406  0
C  C203  1  0.18810856  0.31997003  0.89746610  1  -0.011744  0  -0.087719  -0.087009  0  3.984765  0
C  C204  1  0.22370911  0.16989512  0.86748087  1  1.535809  0  0.209624  0.581343  0  4.186666  0
C  C205  1  0.24622370  0.31295986  0.83589950  1  -0.086005  0  -0.084892  -0.082642  0  3.986132  0
C  C206  1  0.21908550  0.45441018  0.86614724  1  0.006359  0  -0.003329  0.074821  0  3.984742  0
C  C207  1  0.42800160  0.97536564  0.86306080  1  1.58264  0  0.216109  0.593736  0  4.171715  0
C  C208  1  0.12947212  0.86612496  0.02939538  1  0.267489  0  0.091218  0.158706  0  4.035511  0
C  C209  1  0.26677278  0.81954492  0.86331038  1  1.567734  0  0.208851  0.588706  0  4.17549  0
C  C210  1  0.04605854  0.68018396  0.10490018  1  0.977311  0  0.221519  0.202696  0  4.035586  0
C  C211  1  0.15892587  0.01646937  0.00982626  1  0.35302  0  -0.000826  -0.115363  0  3.929562  0
C  C212  1  0.24680896  0.40365676  0.83548530  1  -0.05534  0  -0.092909  -0.136728  0  3.987025  0
C  C213  1  0.19760601  0.04754159  0.97907817  1  0.322813  0  0.010064  -0.018277  0  3.979558  0
C  C214  1  0.02840133  0.33326686  0.17710496  1  0.317635  0  0.092349  0.176379  0  4.08046  0
C  C215  1  0.52756091  0.96793567  0.86356215  1  -0.023642  0  -0.014623  -0.028262  0  3.953684  0
C  C216  1  0.04861879  0.89616155  0.04990281  1  -0.0278  0  -0.088778  -0.159728  0  3.987943  0
C  C217  1  0.07146968  0.74573710  0.07872545  1  -0.015668  0  -0.001697  0.02759  0  4.018903  0
C  C218  1  0.22628367  0.54899198  0.86588833  1  -0.00979  0  -0.001867  0.075605  0  3.982986  0
C  C219  1  0.01982919  0.83604049  0.07459724  1  0.039081  0  -0.080971  -0.100033  0  3.945643  0
C  C220  1  0.18823103  0.41100117  0.89694889  1  -0.016778  0  -0.091097  -0.132755  0  3.978676  0
C  C221  1  0.86408247  0.93063707  0.89062016  1  -0.123505  0  -0.092893  -0.143903  0  3.998841  0
C  C222  1  0.25288041  0.72577215  0.86416215  1  -0.034662  0  -0.022437  -0.037671  0  3.960856  0
C  C223  1  0.56650809  0.97725429  0.89542200  1  -0.013892  0  -0.081257  -0.081481  0  3.975422  0
C  C224  1  0.02747602  0.55880161  0.13106467  1  0.956764  0  0.208586  0.263649  0  4.101001  0
C  C225  1  0.80703121  0.97087175  0.86276396  1  0.020726  0  -0.002702  0.077726  0  3.998785  0
C  C226  1  0.26514240  0.66952461  0.89558311  1  -0.030749  0  -0.09117  -0.095577  0  4.004465  0
C  C227  1  0.71230360  0.96515386  0.86327000  1  -0.001165  0  -0.009526  0.064499  0  4.015107  0
C  C228  1  0.19961253  0.90727056  0.97124725  1  0.986759  0  0.152864  0.105238  0  3.878232  0
C  C229  1  0.02802651  0.32129823  0.11296307  1  -0.066881  0  -0.090359  -0.05962  0  4.054843  0
C  C230  1  0.22553655  0.69330788  0.83376531  1  -0.067349  0  -0.086913  -0.088091  0  3.98071  0
C  C231  1  0.25191485  0.58285862  0.89647109  1  -0.05265  0  -0.093392  -0.136337  0  3.991287  0
C  C232  1  0.00893309  0.32039654  0.24432552  1  1.085812  0  0.195138  0.19463  0  3.955248  0
C  C233  1  0.02552961  0.42514103  0.17197847  1  0.035508  0  -0.091046  -0.215172  0  3.941816  0
C  C234  1  0.02510572  0.46437109  0.13706338  1  -0.020871  0  -0.000292  0.058111  0  4.016571  0
C  C235  1  0.93037520  0.02693438  0.83412251  1  -0.050898  0  -0.085353  -0.095493  0  4.018563  0
C  C236  1  0.65787821  0.97527992  0.89530705  1  -0.095872  0  -0.091847  -0.13407  0  3.989469  0
C  C237  1  0.18076298  0.77577384  0.03275433  1  -0.02613  0  -0.09139  -0.173452  0  4.010122  0
C  C238  1  0.15123839  0.71580760  0.05709321  1  -0.035391  0  -0.075864  -0.083982  0  3.961492  0
C  C239  1  0.02888956  0.28138656  0.14750535  1  -0.02483  0  -0.100428  -0.185368  0  3.993808  0
C  C240  1  0.84199168  0.01890544  0.83445266  1  -0.053347  0  -0.091034  -0.134505  0  3.977673  0
C  C241  1  0.21241738  0.60661026  0.83466787  1  -0.038906  0  -0.091838  -0.13043  0  3.98622  0
C  C242  1  0.67321019  0.95350907  0.83158132  1  -0.076954  0  -0.09563  -0.143407  0  4.006615  0
C  C243  1  0.02675109  0.41234497  0.10746386  1  -0.000613  0  -0.090329  -0.127485  0  3.967021  0
C  C244  1  0.58214523  0.95444072  0.83176712  1  -0.037782  0  -0.083582  -0.083187  0  3.988049  0
C  C245  1  0.08069405  0.17406624  0.25717134  1  0.306066  0  0.017249  0.094929  0  3.808147  0
C  C246  1  0.07814304  0.19059668  0.21536283  1  0.287049  0  0.020629  0.041734  0  3.818356  0
C  C247  1  0.00871549  0.77520988  0.15995904  1  0.210589  0  -0.125093  -0.299833  0  3.89187  0
C  C248  1  0.01733803  0.11487036  0.25326470  1  -0.11165  0  -0.084662  -0.122165  0  3.796412  0
C  C249  1  0.01161578  0.13240483  0.21761034  1  -0.067628  0  -0.093649  -0.155647  0  3.83789  0
C  C250  1  0.04775445  0.06058679  0.10960546  1  -0.036287  0  -0.087283  -0.094106  0  4.00322  0
C  C251  1  0.78174136  0.73063935  0.13293541  1  0.025932  0  -0.022604  -0.041754  0  3.963662  0
C  C252  1  0.91826350  0.00300564  0.13795943  1  1.58791  0  0.209072  0.570786  0  4.20925  0
C  C253  1  0.01357725  0.01205427  0.13782110  1  -0.064764  0  -0.02263  -0.046924  0  3.976037  0
C  C254  1  0.81188786  0.68003137  0.10253552  1  -0.011668  0  -0.087693  -0.08694  0  3.984853  0
C  C255  1  0.77629068  0.83010670  0.13252146  1  1.535448  0  0.209562  0.581277  0  4.186778  0
C  C256  1  0.75377338  0.68704465  0.16410229  1  -0.086342  0  -0.084889  -0.082641  0  3.986132  0
C  C257  1  0.78091225  0.54559348  0.13385509  1  0.006598  0  -0.003312  0.074792  0  3.984658  0
C  C258  1  0.57199143  0.02463731  0.13694007  1  1.581829  0  0.216082  0.593744  0  4.171786  0
C  C259  1  0.87052770  0.13387165  0.97060521  1  0.26743  0  0.091292  0.158864  0  4.035428  0
C  C260  1  0.73322906  0.18045573  0.13669139  1  1.567769  0  0.2089  0.588799  0  4.175403  0
C  C261  1  0.95393451  0.31981507  0.89509972  1  0.977267  0  0.22147  0.202704  0  4.0355  0
C  C262  1  0.84107191  0.98352513  0.99017658  1  0.353695  0  -0.000779  -0.115375  0  3.929758  0
C  C263  1  0.75318880  0.59634691  0.16451677  1  -0.055406  0  -0.092944  -0.136824  0  3.987009  0
C  C264  1  0.80239245  0.95245666  0.02092375  1  0.323359  0  0.010051  -0.018162  0  3.979761  0
C  C265  1  0.97160323  0.66673310  0.82289542  1  0.317194  0  0.092369  0.176487  0  4.080324  0
C  C266  1  0.47243349  0.03206169  0.13643883  1  -0.023178  0  -0.014645  -0.028323  0  3.953803  0
C  C267  1  0.95137832  0.10383576  0.95009784  1  -0.027558  0  -0.088728  -0.159583  0  3.987764  0
C  C268  1  0.92852743  0.25426021  0.92127519  1  -0.015838  0  -0.001703  0.027647  0  4.018781  0
C  C269  1  0.77371544  0.45101133  0.13411424  1  -0.009875  0  -0.001839  0.075709  0  3.982868  0
C  C270  1  0.98016725  0.16395765  0.92540340  1  0.038775  0  -0.080998  -0.100229  0  3.945682  0
C  C271  1  0.81176537  0.58900220  0.10305321  1  -0.016938  0  -0.09111  -0.13283  0  3.97873  0
C  C272  1  0.13591464  0.06935827  0.10938160  1  -0.123138  0  -0.092831  -0.143603  0  3.998716  0
C  C273  1  0.74712212  0.27422637  0.13583886  1  -0.034823  0  -0.022414  -0.03763  0  3.960795  0
C  C274  1  0.43348562  0.02274653  0.10457864  1  -0.013895  0  -0.081273  -0.081394  0  3.975355  0
C  C275  1  0.97251161  0.44119949  0.86893478  1  0.957144  0  0.208559  0.263647  0  4.100932  0
C  C276  1  0.19296796  0.02911980  0.13723624  1  0.021198  0  -0.002712  0.077723  0  3.998934  0
C  C277  1  0.73486148  0.33047421  0.10441812  1  -0.031355  0  -0.091204  -0.095677  0  4.004395  0
C  C278  1  0.28769217  0.03484053  0.13673075  1  -0.000997  0  -0.009499  0.064526  0  4.015319  0
C  C279  1  0.80038660  0.09272883  0.02875462  1  0.986663  0  0.152888  0.105306  0  3.878065  0
C  C280  1  0.97197535  0.67869784  0.88703774  1  -0.067474  0  -0.090313  -0.059571  0  4.055032  0
C  C281  1  0.77446461  0.30669295  0.16623648  1  -0.067107  0  -0.086926  -0.088108  0  3.980713  0
C  C282  1  0.74808834  0.41714168  0.10353092  1  -0.052065  0  -0.093365  -0.136276  0  3.991229  0
C  C283  1  0.99106337  0.67959768  0.75567441  1  1.085448  0  0.195124  0.194393  0  3.95543  0
C  C284  1  0.97446208  0.57486163  0.82802111  1  0.035825  0  -0.091004  -0.215042  0  3.941933  0
C  C285  1  0.97488326  0.53563097  0.86293575  1  -0.02099  0  -0.000283  0.057905  0  4.016668  0
C  C286  1  0.06962602  0.97305140  0.16587779  1  -0.051173  0  -0.085367  -0.0957  0  4.018538  0
C  C287  1  0.34211619  0.02472006  0.10469333  1  -0.095705  0  -0.091805  -0.134061  0  3.989325  0
C  C288  1  0.81923413  0.22422281  0.96724713  1  -0.041912  0  -0.09134  -0.173422  0  4.010208  0
C  C289  1  0.84875805  0.28418923  0.94290773  1  -0.035121  0  -0.075956  -0.08412  0  3.9615  0
C  C290  1  0.97111703  0.71861156  0.85249582  1  -0.023469  0  -0.100445  -0.185398  0  3.993847  0
C  C291  1  0.15800818  0.98108070  0.16554740  1  -0.053155  0  -0.091097  -0.134712  0  3.977911  0
C  C292  1  0.78758242  0.39339026  0.16533422  1  -0.038887  0  -0.091893  -0.1305  0  3.986337  0
C  C293  1  0.32678626  0.04648252  0.16841922  1  -0.077485  0  -0.095601  -0.143293  0  4.00671  0
C  C294  1  0.97324332  0.58765436  0.89253627  1  -0.000808  0  -0.090417  -0.127464  0  3.966965  0
C  C295  1  0.41784986  0.04555254  0.16823368  1  -0.037318  0  -0.083705  -0.083473  0  3.98793  0
C  C296  1  0.91935590  0.82594024  0.74282877  1  0.305809  0  0.017266  0.095186  0  3.807859  0
C  C297  1  0.92190826  0.80941338  0.78463688  1  0.286462  0  0.02067  0.042184  0  3.817687  0
C  C298  1  0.99128028  0.22478844  0.84004081  1  0.210485  0  -0.125019  -0.299748  0  3.891963  0
C  C299  1  0.98274729  0.88510013  0.74673275  1  -0.113614  0  -0.084651  -0.122085  0  3.796858  0
C  C300  1  0.98846614  0.86757441  0.78238538  1  -0.071288  0  -0.09376  -0.156031  0  3.838549  0
C  C301  1  0.06058568  0.04775228  0.60960500  1  -0.036295  0  -0.087352  -0.094116  0  4.003257  0
C  C302  1  0.73063830  0.78173924  0.63293493  1  0.026024  0  -0.02263  -0.041779  0  3.963568  0
C  C303  1  0.00300581  0.91826226  0.63796009  1  1.587932  0  0.209018  0.570624  0  4.209601  0
C  C304  1  0.01205172  0.01357799  0.63782140  1  -0.064789  0  -0.022583  -0.046903  0  3.97606  0
C  C305  1  0.68003110  0.81188659  0.60253472  1  -0.01189  0  -0.087657  -0.086939  0  3.984802  0
C  C306  1  0.83010661  0.77628596  0.63252131  1  1.53524  0  0.209632  0.581423  0  4.186679  0
C  C307  1  0.68704147  0.75377318  0.66410182  1  -0.086019  0  -0.084858  -0.082633  0  3.986121  0
C  C308  1  0.54559210  0.78091119  0.63385376  1  0.006461  0  -0.003291  0.074771  0  3.98471  0
C  C309  1  0.02463590  0.57199126  0.63693760  1  1.581998  0  0.216136  0.593835  0  4.171863  0
C  C310  1  0.13386993  0.87052491  0.47060387  1  0.267372  0  0.091341  0.158857  0  4.035398  0
C  C311  1  0.18045414  0.73322797  0.63669028  1  1.567762  0  0.208718  0.588405  0  4.175703  0
C  C312  1  0.31981189  0.95393297  0.39509787  1  0.977414  0  0.221607  0.202829  0  4.035453  0
C  C313  1  0.98352415  0.84107260  0.49017582  1  0.353648  0  -0.000669  -0.115215  0  3.929518  0
C  C314  1  0.59634451  0.75318846  0.66451600  1  -0.055387  0  -0.092937  -0.136733  0  3.986877  0
C  C315  1  0.95245432  0.80239544  0.52092348  1  0.323379  0  0.010053  -0.018188  0  3.979721  0
C  C316  1  0.66673224  0.97160207  0.32289543  1  0.317052  0  0.092398  0.176549  0  4.080282  0
C  C317  1  0.03206207  0.47243277  0.63643661  1  -0.023986  0  -0.014619  -0.028256  0  3.953744  0
C  C318  1  0.10383312  0.95137707  0.45009673  1  -0.027912  0  -0.088742  -0.15963  0  3.987709  0
C  C319  1  0.25425663  0.92852586  0.42127308  1  -0.015839  0  -0.001701  0.027613  0  4.0187  0
C  C320  1  0.45100991  0.77371368  0.63411292  1  -0.013657  0  -0.001868  0.075638  0  3.982903  0
C  C321  1  0.16395382  0.98016548  0.42540154  1  0.039195  0  -0.081046  -0.100239  0  3.945747  0
C  C322  1  0.58900116  0.81176477  0.60305187  1  -0.016969  0  -0.091158  -0.132814  0  3.978801  0
C  C323  1  0.06935670  0.13591333  0.60938058  1  -0.123018  0  -0.092803  -0.143606  0  3.998779  0
C  C324  1  0.27422632  0.74711782  0.63583861  1  -0.034687  0  -0.022413  -0.037561  0  3.960722  0
C  C325  1  0.02274711  0.43348416  0.60457671  1  -0.013459  0  -0.081379  -0.081568  0  3.975361  0
C  C326  1  0.44119730  0.97251011  0.36893346  1  0.95647  0  0.208457  0.263554  0  4.101169  0
C  C327  1  0.02911688  0.19296761  0.63723522  1  0.0212  0  -0.002699  0.077628  0  3.999054  0
C  C328  1  0.33047535  0.73485667  0.60441787  1  -0.031277  0  -0.091214  -0.095696  0  4.004398  0
C  C329  1  0.03483772  0.28769180  0.63672891  1  -0.00111  0  -0.009469  0.064639  0  4.015335  0
C  C330  1  0.09272848  0.80038696  0.52875368  1  0.98677  0  0.152881  0.105359  0  3.878095  0
C  C331  1  0.67869536  0.97197386  0.38703674  1  -0.06743  0  -0.09034  -0.05966  0  4.054994  0
C  C332  1  0.30669259  0.77446219  0.66623512  1  -0.067306  0  -0.086895  -0.088033  0  3.980697  0
C  C333  1  0.41714197  0.74808396  0.60352962  1  -0.048194  0  -0.093404  -0.136349  0  3.99122  0
C  C334  1  0.67959672  0.99106174  0.25567364  1  1.085806  0  0.195083  0.194307  0  3.955519  0
C  C335  1  0.57485916  0.97446177  0.32802032  1  0.035757  0  -0.091041  -0.21511  0  3.941776  0
C  C336  1  0.53562823  0.97488212  0.36293498  1  -0.020519  0  -0.00031  0.057872  0  4.016682  0
C  C337  1  0.97304818  0.06962594  0.66587776  1  -0.050127  0  -0.08539  -0.095718  0  4.018525  0
C  C338  1  0.02471926  0.34211405  0.60469173  1  -0.096239  0  -0.091798  -0.134037  0  3.989395  0
C  C339  1  0.22422134  0.81923115  0.46724555  1  -0.042345  0  -0.091391  -0.173446  0  4.010161  0
C  C340  1  0.28418683  0.84875579  0.44290589  1  -0.0351  0  -0.075953  -0.084114  0  3.961367  0
C  C341  1  0.71861040  0.97111660  0.35249530  1  -0.023472  0  -0.100486  -0.185441  0  3.993919  0
C  C342  1  0.98107690  0.15800876  0.66554709  1  -0.054181  0  -0.09113  -0.134752  0  3.977844  0
C  C343  1  0.39339082  0.78758001  0.66533285  1  -0.038806  0  -0.091845  -0.130484  0  3.986306  0
C  C344  1  0.04648092  0.32678625  0.66841786  1  -0.077393  0  -0.095579  -0.14328  0  4.006589  0
C  C345  1  0.58765261  0.97324103  0.39253578  1  -0.000984  0  -0.090362  -0.127381  0  3.966936  0
C  C346  1  0.04555252  0.41784916  0.66823175  1  -0.036648  0  -0.083682  -0.083487  0  3.988096  0
C  C347  1  0.82594155  0.91935288  0.24282934  1  0.305998  0  0.017331  0.095076  0  3.807948  0
C  C348  1  0.80941162  0.92190654  0.28463750  1  0.286387  0  0.020622  0.042151  0  3.817641  0
C  C349  1  0.22478573  0.99127735  0.34003976  1  0.210601  0  -0.124957  -0.299601  0  3.892087  0
C  C350  1  0.88509869  0.98274280  0.24673530  1  -0.113831  0  -0.08466  -0.122024  0  3.797035  0
C  C351  1  0.86757509  0.98846523  0.28238484  1  -0.071207  0  -0.093757  -0.156041  0  3.838738  0
N  N352  1  0.26226973  0.03158583  0.77140126  1  -1.156201  0  -0.358926  -0.32815  0  3.404685  0
N  N353  1  0.92712602  0.16071630  0.50455788  1  -1.261082  0  -0.223953  0.008254  0  3.817551  0
N  N354  1  0.97882589  0.22239638  0.45541310  1  -1.216485  0  -0.344858  -0.246418  0  3.53709  0
N  N355  1  0.69492162  0.01953934  0.64005458  1  -0.790799  0  -0.134766  0.174213  0  3.745198  0
N  N356  1  0.61795016  0.00775531  0.65711632  1  -0.651485  0  -0.230798  -0.324213  0  3.065033  0
N  N357  1  0.59406990  0.05184315  0.59860671  1  -1.155187  0  -0.342342  -0.435608  0  3.206203  0
N  N358  1  0.28841227  0.03630993  0.71123640  1  -1.228063  0  -0.247767  -0.086427  0  3.683494  0
N  N359  1  0.03158600  0.26226866  0.27140019  1  -1.156019  0  -0.35891  -0.328034  0  3.404479  0
N  N360  1  0.16071638  0.92712617  0.00455936  1  -1.261313  0  -0.22397  0.008228  0  3.817583  0
N  N361  1  0.22240020  0.97882719  0.95541549  1  -1.216593  0  -0.344756  -0.246293  0  3.537055  0
N  N362  1  0.01953567  0.69492203  0.14005348  1  -0.790748  0  -0.134727  0.174286  0  3.745386  0
N  N363  1  0.00774887  0.61794931  0.15711561  1  -0.651467  0  -0.230779  -0.324222  0  3.064972  0
N  N364  1  0.05183871  0.59406825  0.09860572  1  -1.154683  0  -0.342344  -0.435597  0  3.206083  0
N  N365  1  0.03630998  0.28840885  0.21123485  1  -1.227952  0  -0.24779  -0.086402  0  3.683611  0
N  N366  1  0.96842468  0.73772776  0.72859959  1  -1.154987  0  -0.358797  -0.327836  0  3.404478  0
N  N367  1  0.83928276  0.07286995  0.99544206  1  -1.261106  0  -0.224017  0.008059  0  3.817388  0
N  N368  1  0.77759961  0.02117202  0.04458637  1  -1.216564  0  -0.344856  -0.246407  0  3.537089  0
N  N369  1  0.98045873  0.30507730  0.85994691  1  -0.790784  0  -0.134675  0.174276  0  3.745151  0
N  N370  1  0.99224012  0.38205013  0.84288439  1  -0.651267  0  -0.230842  -0.324203  0  3.064914  0
N  N371  1  0.94814959  0.40593202  0.90139374  1  -1.155062  0  -0.34226  -0.435545  0  3.206046  0
N  N372  1  0.96370745  0.71159234  0.78876543  1  -1.227029  0  -0.247823  -0.086599  0  3.683901  0
N  N373  1  0.73772871  0.96842160  0.22859962  1  -1.155132  0  -0.358847  -0.327858  0  3.404517  0
N  N374  1  0.07286907  0.83928155  0.49544146  1  -1.261149  0  -0.224087  0.007989  0  3.817314  0
N  N375  1  0.02117123  0.77760094  0.54458647  1  -1.216441  0  -0.344868  -0.24653  0  3.537155  0
N  N376  1  0.30507415  0.98045571  0.35994509  1  -0.790993  0  -0.134752  0.174284  0  3.745204  0
N  N377  1  0.38204902  0.99223756  0.34288278  1  -0.650864  0  -0.230768  -0.324199  0  3.064878  0
N  N378  1  0.40592859  0.94814924  0.40139268  1  -1.155038  0  -0.342286  -0.435546  0  3.20603  0
N  N379  1  0.71159020  0.96370757  0.28876545  1  -1.227083  0  -0.247757  -0.086511  0  3.683916  0
O  O380  1  0.12976318  0.20659698  0.39716443  1  -1.174201  0  -0.320882  -0.558086  0  2.300923  0
O  O381  1  0.99172882  0.38133200  0.39254567  1  -1.15994  0  -0.317316  -0.542387  0  2.321776  0
O  O382  1  0.84784739  0.28430883  0.39258747  1  -1.171384  0  -0.325044  -0.560186  0  2.286916  0
O  O383  1  0.97865436  0.11993546  0.39179043  1  -1.169047  0  -0.314105  -0.553467  0  2.360723  0
O  O384  1  0.13168881  0.24591652  0.33778330  1  -1.171242  0  -0.317888  -0.561911  0  2.351352  0
O  O385  1  0.86482475  0.25801652  0.33323633  1  -1.167711  0  -0.321811  -0.551435  0  2.31349  0
O  O386  1  0.02249485  0.11661128  0.33270478  1  -1.174029  0  -0.310201  -0.548564  0  2.335135  0
O  O387  1  0.96635611  0.39757051  0.33308729  1  -1.163668  0  -0.319327  -0.547523  0  2.319369  0
O  O388  1  0.20660066  0.12976612  0.89716800  1  -1.174277  0  -0.320887  -0.558063  0  2.300671  0
O  O389  1  0.38133526  0.99172965  0.89254758  1  -1.159959  0  -0.317356  -0.542435  0  2.321731  0
O  O390  1  0.28431387  0.84784837  0.89258961  1  -1.171625  0  -0.324925  -0.560121  0  2.286979  0
O  O391  1  0.11993750  0.97865566  0.89179124  1  -1.169102  0  -0.31401  -0.553362  0  2.360752  0
O  O392  1  0.24592367  0.13169015  0.83778656  1  -1.172185  0  -0.317969  -0.562024  0  2.351144  0
O  O393  1  0.25801985  0.86482506  0.83323879  1  -1.168205  0  -0.321823  -0.551386  0  2.313392  0
O  O394  1  0.11661457  0.02248978  0.83270457  1  -1.173892  0  -0.310309  -0.548732  0  2.335039  0
O  O395  1  0.39756971  0.96635744  0.83308983  1  -1.163563  0  -0.319379  -0.547572  0  2.319334  0
O  O396  1  0.79339643  0.87023773  0.10283328  1  -1.17415  0  -0.320864  -0.558029  0  2.300645  0
O  O397  1  0.61866048  0.00827719  0.10745285  1  -1.159594  0  -0.317378  -0.542477  0  2.321829  0
O  O398  1  0.71568935  0.15215064  0.10741030  1  -1.171542  0  -0.324922  -0.56005  0  2.286828  0
O  O399  1  0.88006165  0.02134048  0.10820884  1  -1.169297  0  -0.31405  -0.553351  0  2.360528  0
O  O400  1  0.75407749  0.86831134  0.16221467  1  -1.172067  0  -0.317908  -0.562043  0  2.35139  0
O  O401  1  0.74197725  0.13517487  0.16676232  1  -1.1683  0  -0.321825  -0.551512  0  2.313584  0
O  O402  1  0.88338324  0.97750343  0.16729483  1  -1.173525  0  -0.310307  -0.548759  0  2.335273  0
O  O403  1  0.60242400  0.03364336  0.16691161  1  -1.163526  0  -0.319263  -0.547432  0  2.319169  0
O  O404  1  0.87023737  0.79339227  0.60283366  1  -1.174188  0  -0.320869  -0.5581  0  2.300789  0
O  O405  1  0.00827648  0.61865930  0.60745091  1  -1.159775  0  -0.317395  -0.542505  0  2.321763  0
O  O406  1  0.15215111  0.71568816  0.60740940  1  -1.171639  0  -0.324855  -0.559916  0  2.286986  0
O  O407  1  0.02134207  0.88006072  0.60821080  1  -1.169226  0  -0.314019  -0.55328  0  2.360694  0
O  O408  1  0.86831039  0.75407046  0.66221515  1  -1.171681  0  -0.317946  -0.562104  0  2.351278  0
O  O409  1  0.13517309  0.74197934  0.66676059  1  -1.168252  0  -0.321746  -0.551283  0  2.313523  0
O  O410  1  0.97750227  0.88338406  0.66729591  1  -1.173652  0  -0.310269  -0.548622  0  2.335278  0
O  O411  1  0.03364038  0.60242309  0.66690919  1  -1.163346  0  -0.319303  -0.547498  0  2.319354  0
