# generated using pymatgen
data_Cu6H93C69BrN30
_symmetry_space_group_name_H-M   'P 1'
_cell_length_a   17.00835177
_cell_length_b   18.38878890
_cell_length_c   18.38846520
_cell_angle_alpha   119.99837897
_cell_angle_beta   89.99992704
_cell_angle_gamma   89.99930944
_symmetry_Int_Tables_number   1
_chemical_formula_structural   Cu6H93C69BrN30
_chemical_formula_sum   'Cu12 H186 C138 Br2 N60'
_cell_volume   4980.79381965
_cell_formula_units_Z   2
loop_
 _symmetry_equiv_pos_site_id
 _symmetry_equiv_pos_as_xyz
  1  'x, y, z'
loop_
 _atom_site_type_symbol
 _atom_site_label
 _atom_site_symmetry_multiplicity
 _atom_site_fract_x
 _atom_site_fract_y
 _atom_site_fract_z
 _atom_site_occupancy
 _atom_site_pbe_bader_charge
 _atom_site_pbe_bader_spin_density
 _atom_site_pbe_cm5_charge
 _atom_site_pbe_ddec_charge
 _atom_site_pbe_ddec_spin_density
 _atom_site_pbe_ddec_sum_bond_order
 _atom_site_pbe_magmom
Cu  Cu0  1  0.24999918  0.67403877  0.00100211  1  0.730628  0  0.512613  0.306372  0  2.931626  0
Cu  Cu1  1  0.25000187  0.54399770  0.17786791  1  0.673616  0  0.512999  0.313297  0  2.703552  0
Cu  Cu2  1  0.25000039  0.32694623  0.32596366  1  0.731813  0  0.512512  0.306538  0  2.931006  0
Cu  Cu3  1  0.25000191  0.63383957  0.45597676  1  0.677293  0  0.512904  0.312871  0  2.703549  0
Cu  Cu4  1  0.25000139  0.99904072  0.67303910  1  0.722699  0  0.512356  0.306066  0  2.930822  0
Cu  Cu5  1  0.24999425  0.82213930  0.36613867  1  0.676205  0  0.512972  0.312983  0  2.703577  0
Cu  Cu6  1  0.75000434  0.32602306  0.99906916  1  0.730615  0  0.5123  0.305913  0  2.931178  0
Cu  Cu7  1  0.74999989  0.45597871  0.82212672  1  0.673567  0  0.513044  0.31304  0  2.704242  0
Cu  Cu8  1  0.75000136  0.67305533  0.67402975  1  0.731825  0  0.512689  0.306572  0  2.9314  0
Cu  Cu9  1  0.75000102  0.36615959  0.54401361  1  0.677434  0  0.512846  0.312849  0  2.703372  0
Cu  Cu10  1  0.74999389  0.00101687  0.32696136  1  0.723619  0  0.512719  0.306237  0  2.931747  0
Cu  Cu11  1  0.74999927  0.17784121  0.63386383  1  0.676232  0  0.513032  0.313412  0  2.702664  0
H  H12  1  0.32786268  0.51419583  0.31015002  1  0.52441  0  0.315128  0.259239  0  0.984517  0
H  H13  1  0.65835770  0.22138482  0.05852469  1  0.424777  0  0.288304  0.178301  0  1.076501  0
H  H14  1  0.52075459  0.16617348  0.08660871  1  0.062765  0  0.078097  0.098307  0  1.068416  0
H  H15  1  0.44751387  0.24470036  0.14057963  1  0.05665  0  0.093114  0.137335  0  1.000619  0
H  H16  1  0.52986334  0.23752391  0.19578288  1  0.033725  0  0.09115  0.132108  0  1.002105  0
H  H17  1  0.42458227  0.46572842  0.37680702  1  0.06109  0  0.099302  0.143419  0  1.010685  0
H  H18  1  0.52217168  0.46862484  0.34260711  1  0.055498  0  0.096288  0.136992  0  0.992471  0
H  H19  1  0.47291123  0.37126860  0.30532116  1  0.060998  0  0.096017  0.137928  0  1.016222  0
H  H20  1  0.34957612  0.46428412  0.04015545  1  0.087767  0  0.093607  0.137711  0  1.026832  0
H  H21  1  0.40162486  0.36731096  0.99976409  1  0.039518  0  0.090438  0.124652  0  1.01134  0
H  H22  1  0.45430702  0.46180548  0.03493383  1  0.03757  0  0.090404  0.126055  0  1.024925  0
H  H23  1  0.58928820  0.47830285  0.04936096  1  0.01074  0  0.090262  0.123562  0  1.037854  0
H  H24  1  0.67120930  0.49879375  0.11563719  1  0.053825  0  0.094846  0.133832  0  1.005598  0
H  H25  1  0.57473535  0.53031795  0.15974810  1  0.059876  0  0.094533  0.136252  0  0.99063  0
H  H26  1  0.30222096  0.95727808  0.24885670  1  0.091482  0  0.108913  0.162177  0  0.968788  0
H  H27  1  0.32786315  0.79589925  0.48576762  1  0.500527  0  0.315277  0.259409  0  0.98455  0
H  H28  1  0.65834580  0.83716613  0.77861506  1  0.426554  0  0.28821  0.178323  0  1.076564  0
H  H29  1  0.52070195  0.92042480  0.83378666  1  0.065384  0  0.078109  0.098274  0  1.068418  0
H  H30  1  0.44750302  0.89587081  0.75523544  1  0.056382  0  0.093138  0.13733  0  1.000693  0
H  H31  1  0.52985459  0.95824239  0.76243448  1  0.035156  0  0.091248  0.132207  0  1.002083  0
H  H32  1  0.42457304  0.91101769  0.53420474  1  0.066751  0  0.099214  0.143354  0  1.010523  0
H  H33  1  0.52217270  0.87395824  0.53133415  1  0.051874  0  0.096267  0.13681  0  0.992604  0
H  H34  1  0.47288199  0.93400362  0.62868723  1  0.072838  0  0.096096  0.138061  0  1.015991  0
H  H35  1  0.34958857  0.57583286  0.53572196  1  0.110429  0  0.093667  0.137816  0  1.026944  0
H  H36  1  0.40165870  0.63240749  0.63267177  1  0.036875  0  0.090357  0.124543  0  1.011485  0
H  H37  1  0.45431600  0.57309339  0.53816994  1  0.04206  0  0.090453  0.126066  0  1.025134  0
H  H38  1  0.58932547  0.57103143  0.52171941  1  0.009042  0  0.090276  0.123568  0  1.037844  0
H  H39  1  0.67122379  0.61683918  0.50122879  1  0.05509  0  0.094882  0.133747  0  1.005611  0
H  H40  1  0.57474195  0.62939124  0.46969241  1  0.046382  0  0.094401  0.136044  0  0.990842  0
H  H41  1  0.30222029  0.29163822  0.04271685  1  0.093624  0  0.108896  0.161943  0  0.968927  0
H  H42  1  0.32787744  0.68987289  0.20411530  1  0.500667  0  0.315271  0.259445  0  0.984411  0
H  H43  1  0.65833798  0.94149904  0.16287231  1  0.424853  0  0.288237  0.178318  0  1.076533  0
H  H44  1  0.52077481  0.91339062  0.07959085  1  0.066491  0  0.078207  0.098515  0  1.06837  0
H  H45  1  0.44752298  0.85941831  0.10412724  1  0.056716  0  0.093113  0.137371  0  1.000759  0
H  H46  1  0.52986586  0.80421829  0.04175873  1  0.041871  0  0.091237  0.132258  0  1.002249  0
H  H47  1  0.42457071  0.62322368  0.08894773  1  0.076854  0  0.099166  0.143244  0  1.01043  0
H  H48  1  0.52217133  0.65740326  0.12605618  1  0.054882  0  0.096272  0.136862  0  0.992424  0
H  H49  1  0.47292511  0.69474214  0.06601046  1  0.063524  0  0.095919  0.137823  0  1.016034  0
H  H50  1  0.34957716  0.95987961  0.42417621  1  0.088722  0  0.093695  0.137787  0  1.026997  0
H  H51  1  0.40160829  0.00024905  0.36757412  1  0.03674  0  0.090441  0.124658  0  1.011471  0
H  H52  1  0.45429683  0.96512172  0.42692794  1  0.035885  0  0.090478  0.12609  0  1.025195  0
H  H53  1  0.58928663  0.95067325  0.42898724  1  0.042281  0  0.0902  0.123576  0  1.037865  0
H  H54  1  0.67120296  0.88440787  0.38318313  1  0.054655  0  0.09495  0.133891  0  1.00562  0
H  H55  1  0.57474328  0.84028791  0.37059559  1  0.043613  0  0.094441  0.136008  0  0.991127  0
H  H56  1  0.30222216  0.75100831  0.70819359  1  0.08805  0  0.108929  0.162267  0  0.968825  0
H  H57  1  0.82786728  0.48574311  0.68984888  1  0.520769  0  0.315221  0.259311  0  0.984573  0
H  H58  1  0.15833823  0.77860434  0.94148635  1  0.424796  0  0.288184  0.178292  0  1.076603  0
H  H59  1  0.02073478  0.83379319  0.91338972  1  0.063099  0  0.078156  0.098328  0  1.068458  0
H  H60  1  0.94750500  0.75526386  0.85940663  1  0.056573  0  0.093167  0.137459  0  1.000722  0
H  H61  1  0.02985002  0.76245296  0.80422689  1  0.033489  0  0.091245  0.132259  0  1.00214  0
H  H62  1  0.92456854  0.53422158  0.62318854  1  0.060804  0  0.099174  0.143313  0  1.010527  0
H  H63  1  0.02216040  0.53132053  0.65737125  1  0.055431  0  0.09623  0.136714  0  0.992738  0
H  H64  1  0.97289445  0.62868388  0.69468066  1  0.061801  0  0.096028  0.137932  0  1.015999  0
H  H65  1  0.84958073  0.53571206  0.95986839  1  0.088441  0  0.093672  0.137894  0  1.026945  0
H  H66  1  0.90162968  0.63266506  0.00023203  1  0.039554  0  0.09049  0.124686  0  1.011655  0
H  H67  1  0.95429458  0.53817921  0.96507533  1  0.037346  0  0.090487  0.126197  0  1.025267  0
H  H68  1  0.08931439  0.52168672  0.95066202  1  0.010388  0  0.090218  0.123647  0  1.037957  0
H  H69  1  0.17121046  0.50120198  0.88437462  1  0.056023  0  0.094934  0.133846  0  1.005884  0
H  H70  1  0.07474566  0.46967141  0.84028302  1  0.059861  0  0.094421  0.13612  0  0.99112  0
H  H71  1  0.80222536  0.04281559  0.75111200  1  0.095405  0  0.108963  0.162175  0  0.96892  0
H  H72  1  0.82786798  0.20408389  0.51421644  1  0.500623  0  0.315242  0.259322  0  0.984629  0
H  H73  1  0.15834483  0.16285308  0.22135506  1  0.426238  0  0.288266  0.178413  0  1.076317  0
H  H74  1  0.02075566  0.07957599  0.16616676  1  0.065226  0  0.078071  0.098274  0  1.068515  0
H  H75  1  0.94751350  0.10413159  0.24469417  1  0.056212  0  0.09306  0.137255  0  1.000752  0
H  H76  1  0.02984289  0.04173444  0.23750681  1  0.035441  0  0.091168  0.132234  0  1.002057  0
H  H77  1  0.92456249  0.08890575  0.46568577  1  0.067147  0  0.099207  0.143444  0  1.010548  0
H  H78  1  0.02215821  0.12601417  0.46860847  1  0.051673  0  0.096264  0.136954  0  0.992524  0
H  H79  1  0.97291017  0.06596924  0.37123765  1  0.071352  0  0.096006  0.13789  0  1.016259  0
H  H80  1  0.84956123  0.42414220  0.46427950  1  0.110217  0  0.093595  0.137733  0  1.026944  0
H  H81  1  0.90159877  0.36754897  0.36730040  1  0.036915  0  0.090429  0.124677  0  1.011359  0
H  H82  1  0.95429148  0.42690377  0.46178324  1  0.042375  0  0.090443  0.12604  0  1.025049  0
H  H83  1  0.08924890  0.42894842  0.47828067  1  0.008076  0  0.090222  0.123507  0  1.038044  0
H  H84  1  0.17119126  0.38318203  0.49876515  1  0.052579  0  0.094883  0.133794  0  1.005403  0
H  H85  1  0.07472731  0.37056854  0.53029217  1  0.045814  0  0.094433  0.136013  0  0.990807  0
H  H86  1  0.80222309  0.70834093  0.95725978  1  0.093192  0  0.108915  0.161979  0  0.968995  0
H  H87  1  0.82786721  0.31015799  0.79593848  1  0.500917  0  0.315249  0.259372  0  0.984611  0
H  H88  1  0.15835853  0.05856290  0.83718450  1  0.425179  0  0.288219  0.178131  0  1.076604  0
H  H89  1  0.02071691  0.08664774  0.92046421  1  0.066891  0  0.078081  0.098308  0  1.068724  0
H  H90  1  0.94751294  0.14064213  0.89590311  1  0.056285  0  0.093102  0.137353  0  1.000771  0
H  H91  1  0.02986395  0.19581646  0.95827690  1  0.041227  0  0.091154  0.132091  0  1.002317  0
H  H92  1  0.92459362  0.37684099  0.91105387  1  0.076012  0  0.099206  0.143347  0  1.010624  0
H  H93  1  0.02218897  0.34264380  0.87397929  1  0.054549  0  0.096264  0.136849  0  0.992617  0
H  H94  1  0.97290585  0.30534682  0.93403868  1  0.064931  0  0.096047  0.137964  0  1.01611  0
H  H95  1  0.84959322  0.04015554  0.57587718  1  0.089006  0  0.093727  0.137905  0  1.026795  0
H  H96  1  0.90165624  0.99976399  0.63245023  1  0.036622  0  0.090548  0.124805  0  1.01129  0
H  H97  1  0.95432124  0.03495236  0.57313105  1  0.036382  0  0.090476  0.126199  0  1.024963  0
H  H98  1  0.08932243  0.04934238  0.57107059  1  0.04298  0  0.090234  0.123392  0  1.038138  0
H  H99  1  0.17122268  0.11564129  0.61687205  1  0.056185  0  0.094794  0.133616  0  1.005694  0
H  H100  1  0.07474126  0.15973182  0.62942257  1  0.042977  0  0.09439  0.136052  0  0.990701  0
H  H101  1  0.80222593  0.24890663  0.29160580  1  0.097146  0  0.108962  0.162105  0  0.968888  0
H  H102  1  0.67213849  0.48575037  0.68984329  1  0.520708  0  0.315183  0.2592  0  0.984606  0
H  H103  1  0.34166287  0.77860883  0.94148969  1  0.424696  0  0.288132  0.178214  0  1.076685  0
H  H104  1  0.47926186  0.83379408  0.91339152  1  0.063088  0  0.078175  0.098318  0  1.068387  0
H  H105  1  0.55249435  0.75526477  0.85940561  1  0.05653  0  0.093149  0.1374  0  1.000621  0
H  H106  1  0.47014724  0.76245235  0.80422604  1  0.033508  0  0.091249  0.132265  0  1.002039  0
H  H107  1  0.57542654  0.53422362  0.62319024  1  0.060624  0  0.099217  0.143322  0  1.010543  0
H  H108  1  0.47783772  0.53132477  0.65737516  1  0.055371  0  0.096262  0.136786  0  0.992724  0
H  H109  1  0.52710287  0.62868511  0.69468530  1  0.061719  0  0.096067  0.138028  0  1.01598  0
H  H110  1  0.65042328  0.53571726  0.95987294  1  0.088455  0  0.093676  0.13788  0  1.026957  0
H  H111  1  0.59837101  0.63266867  0.00022623  1  0.039513  0  0.090469  0.124673  0  1.011562  0
H  H112  1  0.54570708  0.53818436  0.96507674  1  0.037284  0  0.090476  0.126182  0  1.025212  0
H  H113  1  0.41068533  0.52169078  0.95066974  1  0.010387  0  0.090268  0.123775  0  1.037796  0
H  H114  1  0.32878834  0.50120721  0.88438075  1  0.054053  0  0.094909  0.133849  0  1.00577  0
H  H115  1  0.42525523  0.46967386  0.84028768  1  0.059944  0  0.094413  0.136144  0  0.991141  0
H  H116  1  0.69777844  0.04281576  0.75110968  1  0.095442  0  0.10896  0.162158  0  0.968933  0
H  H117  1  0.67213508  0.20408516  0.51422119  1  0.500481  0  0.31527  0.259303  0  0.984569  0
H  H118  1  0.34166066  0.16286045  0.22135878  1  0.426484  0  0.288244  0.178382  0  1.076361  0
H  H119  1  0.47924571  0.07957824  0.16616176  1  0.065437  0  0.078067  0.098291  0  1.068427  0
H  H120  1  0.55249109  0.10412840  0.24468528  1  0.056168  0  0.093055  0.137232  0  1.000704  0
H  H121  1  0.47015892  0.04173611  0.23750259  1  0.035557  0  0.091117  0.132183  0  1.002047  0
H  H122  1  0.57543577  0.08890936  0.46568590  1  0.066807  0  0.099209  0.143462  0  1.010516  0
H  H123  1  0.47784317  0.12602419  0.46861313  1  0.0518  0  0.096245  0.136977  0  0.992548  0
H  H124  1  0.52708625  0.06597821  0.37123999  1  0.071316  0  0.096019  0.137957  0  1.016177  0
H  H125  1  0.65043435  0.42414712  0.46427562  1  0.110206  0  0.093615  0.137793  0  1.026926  0
H  H126  1  0.59839949  0.36754451  0.36730159  1  0.03676  0  0.09045  0.124713  0  1.011348  0
H  H127  1  0.54570809  0.42690848  0.46177857  1  0.041983  0  0.090436  0.126029  0  1.02502  0
H  H128  1  0.41075272  0.42895291  0.47828253  1  0.00811  0  0.090227  0.123465  0  1.038032  0
H  H129  1  0.32881206  0.38318611  0.49876699  1  0.054386  0  0.094891  0.133808  0  1.005359  0
H  H130  1  0.42527450  0.37057118  0.53029012  1  0.045819  0  0.094432  0.135972  0  0.990917  0
H  H131  1  0.69777382  0.70833862  0.95725560  1  0.093226  0  0.108898  0.162007  0  0.968834  0
H  H132  1  0.67213313  0.31015972  0.79594495  1  0.501  0  0.315363  0.259463  0  0.984394  0
H  H133  1  0.34163966  0.05856709  0.83718378  1  0.425196  0  0.288218  0.178171  0  1.076651  0
H  H134  1  0.47927575  0.08665387  0.92046621  1  0.066723  0  0.078017  0.098207  0  1.068637  0
H  H135  1  0.55248172  0.14064708  0.89590676  1  0.056441  0  0.093096  0.137378  0  1.00068  0
H  H136  1  0.47012707  0.19582054  0.95827572  1  0.040969  0  0.091247  0.132229  0  1.002419  0
H  H137  1  0.57540223  0.37684217  0.91105535  1  0.076204  0  0.099236  0.143425  0  1.010612  0
H  H138  1  0.47780573  0.34264819  0.87398523  1  0.054446  0  0.096338  0.137001  0  0.992608  0
H  H139  1  0.52709252  0.30534636  0.93403849  1  0.064922  0  0.096044  0.138013  0  1.01602  0
H  H140  1  0.65040284  0.04015609  0.57587332  1  0.088973  0  0.09368  0.137931  0  1.026756  0
H  H141  1  0.59834113  0.99977359  0.63245041  1  0.03687  0  0.090506  0.124763  0  1.01138  0
H  H142  1  0.54567611  0.03495627  0.57312935  1  0.036314  0  0.0905  0.126229  0  1.024917  0
H  H143  1  0.41067632  0.04934275  0.57106895  1  0.043076  0  0.090211  0.123355  0  1.038209  0
H  H144  1  0.32877704  0.11564140  0.61687243  1  0.058052  0  0.094801  0.133609  0  1.005747  0
H  H145  1  0.42525494  0.15973149  0.62942131  1  0.043  0  0.094386  0.136024  0  0.990741  0
H  H146  1  0.69777019  0.24890812  0.29160543  1  0.097078  0  0.108952  0.162056  0  0.96892  0
H  H147  1  0.17213801  0.51419988  0.31016069  1  0.524389  0  0.315181  0.259245  0  0.984531  0
H  H148  1  0.84164706  0.22139118  0.05852615  1  0.424968  0  0.288246  0.178267  0  1.076492  0
H  H149  1  0.97924463  0.16617240  0.08661356  1  0.062923  0  0.078095  0.098308  0  1.068383  0
H  H150  1  0.05248794  0.24469585  0.14058512  1  0.056639  0  0.093116  0.137322  0  1.000657  0
H  H151  1  0.97013410  0.23752537  0.19578975  1  0.033639  0  0.091084  0.132023  0  1.002118  0
H  H152  1  0.07541499  0.46572640  0.37680843  1  0.060961  0  0.099292  0.143414  0  1.010703  0
H  H153  1  0.97782489  0.46862482  0.34260551  1  0.055453  0  0.096281  0.136972  0  0.992464  0
H  H154  1  0.02708907  0.37126630  0.30531411  1  0.060988  0  0.09601  0.137886  0  1.016136  0
H  H155  1  0.15042984  0.46428024  0.04014842  1  0.08763  0  0.093605  0.137769  0  1.026784  0
H  H156  1  0.09837619  0.36731331  0.99977587  1  0.039423  0  0.09043  0.124615  0  1.011398  0
H  H157  1  0.04569835  0.46180768  0.03493167  1  0.037454  0  0.090434  0.12606  0  1.024973  0
H  H158  1  0.91072088  0.47831014  0.04936437  1  0.01077  0  0.090265  0.123602  0  1.037874  0
H  H159  1  0.82879835  0.49879907  0.11564215  1  0.055984  0  0.094848  0.133816  0  1.005571  0
H  H160  1  0.92527314  0.53032095  0.15975331  1  0.05967  0  0.094502  0.136181  0  0.990741  0
H  H161  1  0.19777463  0.95727943  0.24885430  1  0.091355  0  0.10891  0.162178  0  0.968859  0
H  H162  1  0.17214141  0.79591092  0.48576959  1  0.500619  0  0.315254  0.259258  0  0.984566  0
H  H163  1  0.84165398  0.83716540  0.77861382  1  0.426493  0  0.288219  0.178322  0  1.076578  0
H  H164  1  0.97929665  0.92042289  0.83378691  1  0.065368  0  0.078093  0.098275  0  1.06835  0
H  H165  1  0.05249707  0.89586680  0.75523390  1  0.0564  0  0.093151  0.137341  0  1.000798  0
H  H166  1  0.97014535  0.95824364  0.76243612  1  0.035367  0  0.091257  0.13221  0  1.002066  0
H  H167  1  0.07542339  0.91102799  0.53420906  1  0.066756  0  0.099193  0.14336  0  1.010422  0
H  H168  1  0.97782473  0.87396671  0.53133601  1  0.051871  0  0.096258  0.136816  0  0.992587  0
H  H169  1  0.02711451  0.93400362  0.62868875  1  0.072781  0  0.096114  0.138091  0  1.016033  0
H  H170  1  0.15040995  0.57583396  0.53571865  1  0.110388  0  0.093689  0.137896  0  1.026813  0
H  H171  1  0.09833831  0.63241900  0.63266570  1  0.037018  0  0.09038  0.124534  0  1.011514  0
H  H172  1  0.04568264  0.57309910  0.53816753  1  0.042299  0  0.090469  0.126084  0  1.025178  0
H  H173  1  0.91067230  0.57103851  0.52171758  1  0.00928  0  0.090229  0.123476  0  1.03798  0
H  H174  1  0.82877404  0.61684751  0.50122421  1  0.05305  0  0.09483  0.133655  0  1.005648  0
H  H175  1  0.92525563  0.62939717  0.46968924  1  0.04585  0  0.094368  0.135975  0  0.990827  0
H  H176  1  0.19777161  0.29163906  0.04272148  1  0.093459  0  0.108902  0.161992  0  0.968931  0
H  H177  1  0.17212043  0.68985981  0.20410068  1  0.500727  0  0.315305  0.259432  0  0.984422  0
H  H178  1  0.84165380  0.94150009  0.16287473  1  0.425051  0  0.288221  0.17829  0  1.076548  0
H  H179  1  0.97922076  0.91339549  0.07959411  1  0.066639  0  0.078184  0.098483  0  1.068376  0
H  H180  1  0.05247235  0.85941865  0.10413005  1  0.056797  0  0.093122  0.137375  0  1.000818  0
H  H181  1  0.97012898  0.80422243  0.04176075  1  0.04196  0  0.09121  0.132199  0  1.002265  0
H  H182  1  0.07542401  0.62321993  0.08893673  1  0.076743  0  0.099201  0.143301  0  1.010471  0
H  H183  1  0.97782336  0.65739565  0.12604258  1  0.054897  0  0.096229  0.136792  0  0.992457  0
H  H184  1  0.02707120  0.69474542  0.06601087  1  0.063505  0  0.095904  0.137763  0  1.016192  0
H  H185  1  0.15041265  0.95987104  0.42416952  1  0.088995  0  0.093671  0.137819  0  1.027004  0
H  H186  1  0.09838197  0.00023325  0.36756273  1  0.03694  0  0.090462  0.124664  0  1.011427  0
H  H187  1  0.04569345  0.96511542  0.42692230  1  0.035952  0  0.090416  0.126023  0  1.025273  0
H  H188  1  0.91070402  0.95067112  0.42898374  1  0.042457  0  0.090166  0.123568  0  1.03786  0
H  H189  1  0.82878613  0.88440874  0.38318491  1  0.052435  0  0.094905  0.133719  0  1.005717  0
H  H190  1  0.92524521  0.84028630  0.37059996  1  0.043425  0  0.094382  0.13598  0  0.991031  0
H  H191  1  0.19777935  0.75100597  0.70819379  1  0.088158  0  0.108935  0.162262  0  0.968811  0
H  H192  1  0.25000094  0.99028326  0.18462227  1  -0.043856  0  0.036063  -0.007868  0  1.217205  0
H  H193  1  0.24999662  0.19439957  0.00968987  1  -0.037236  0  0.035973  -0.008194  0  1.21741  0
H  H194  1  0.25000047  0.81510592  0.80546204  1  -0.044901  0  0.036589  -0.007281  0  1.216363  0
H  H195  1  0.75000023  0.00971673  0.81526722  1  -0.044654  0  0.036147  -0.00771  0  1.216895  0
H  H196  1  0.74999867  0.80558207  0.99032129  1  -0.036621  0  0.036063  -0.00791  0  1.21659  0
H  H197  1  0.74999893  0.18469660  0.19436498  1  -0.04745  0  0.035991  -0.008061  0  1.217072  0
C  C198  1  0.53331383  0.37189958  0.13361661  1  0.017418  0  -0.038941  -0.13864  0  4.064363  0
C  C199  1  0.55375079  0.29146739  0.11777213  1  0.393722  0  0.092804  0.188922  0  3.986244  0
C  C200  1  0.51093993  0.23172756  0.13582170  1  -0.057866  0  -0.239837  -0.418988  0  3.986247  0
C  C201  1  0.59808197  0.39910072  0.10434157  1  0.485295  0  0.09323  0.199989  0  4.00474  0
C  C202  1  0.46072082  0.41794520  0.17118876  1  0.035551  0  -0.041959  -0.146847  0  4.072941  0
C  C203  1  0.43219089  0.44505359  0.25224294  1  0.400861  0  0.101964  0.207871  0  3.979769  0
C  C204  1  0.40457123  0.44646416  0.13388774  1  0.458557  0  0.087677  0.192228  0  4.017176  0
C  C205  1  0.46472319  0.43731005  0.32298580  1  -0.053017  0  -0.231223  -0.426497  0  3.964929  0
C  C206  1  0.40237246  0.43434307  0.04764581  1  -0.07316  0  -0.238221  -0.425673  0  3.979068  0
C  C207  1  0.60885956  0.48108790  0.10769918  1  -0.048586  0  -0.235174  -0.422717  0  3.981673  0
C  C208  1  0.53331553  0.76169581  0.62808269  1  0.042223  0  -0.039027  -0.138851  0  4.063847  0
C  C209  1  0.55373862  0.82631051  0.70852242  1  0.351705  0  0.092717  0.188856  0  3.986028  0
C  C210  1  0.51091830  0.90408733  0.76823738  1  -0.049367  0  -0.239866  -0.418978  0  3.986813  0
C  C211  1  0.59809026  0.70522140  0.60091774  1  0.490151  0  0.093471  0.200154  0  4.004822  0
C  C212  1  0.46072452  0.75319405  0.58201572  1  0.046303  0  -0.041831  -0.146221  0  4.072538  0
C  C213  1  0.43220221  0.80713427  0.55489900  1  0.393479  0  0.10188  0.20761  0  3.979844  0
C  C214  1  0.40458467  0.68737952  0.55351197  1  0.438985  0  0.087562  0.191577  0  4.01755  0
C  C215  1  0.46471039  0.88562003  0.56263769  1  -0.06013  0  -0.23112  -0.426278  0  3.96489  0
C  C216  1  0.40238698  0.61325741  0.56563788  1  -0.109422  0  -0.238268  -0.425568  0  3.979224  0
C  C217  1  0.60887029  0.62658170  0.51892935  1  -0.029169  0  -0.235163  -0.422353  0  3.981302  0
C  C218  1  0.53331404  0.86639990  0.23831819  1  0.043057  0  -0.039106  -0.139224  0  4.06426  0
C  C219  1  0.55374565  0.88221929  0.17370624  1  0.39213  0  0.092627  0.188849  0  3.985712  0
C  C220  1  0.51094110  0.86417034  0.09591046  1  -0.087983  0  -0.240018  -0.419349  0  3.986596  0
C  C221  1  0.59807866  0.89571786  0.29480166  1  0.47395  0  0.093348  0.20004  0  4.004894  0
C  C222  1  0.46072094  0.82882893  0.24680547  1  -0.027105  0  -0.041737  -0.14587  0  4.071961  0
C  C223  1  0.43219228  0.74778475  0.19286669  1  0.43302  0  0.101774  0.207559  0  3.98045  0
C  C224  1  0.40459135  0.86614673  0.31264419  1  0.468005  0  0.087521  0.191489  0  4.01717  0
C  C225  1  0.46471505  0.67706051  0.11438241  1  -0.059188  0  -0.230867  -0.426061  0  3.964812  0
C  C226  1  0.40237166  0.95238478  0.38674694  1  -0.078583  0  -0.23839  -0.425657  0  3.979961  0
C  C227  1  0.60885457  0.89234989  0.37344063  1  -0.062897  0  -0.235147  -0.422384  0  3.981388  0
C  C228  1  0.03330907  0.62807343  0.86638172  1  0.01931  0  -0.038949  -0.138622  0  4.063475  0
C  C229  1  0.05372674  0.70851733  0.88222384  1  0.393195  0  0.092711  0.188915  0  3.985782  0
C  C230  1  0.01091790  0.76824534  0.86417178  1  -0.057327  0  -0.240059  -0.41926  0  3.987106  0
C  C231  1  0.09808082  0.60088437  0.89567809  1  0.486228  0  0.09322  0.199519  0  4.004654  0
C  C232  1  0.96070742  0.58201515  0.82880979  1  0.033977  0  -0.041986  -0.146397  0  4.072799  0
C  C233  1  0.93219655  0.55490225  0.74774769  1  0.400512  0  0.101954  0.207647  0  3.979801  0
C  C234  1  0.90457806  0.55351342  0.86613503  1  0.457977  0  0.087516  0.191647  0  4.017223  0
C  C235  1  0.96471230  0.56264030  0.67700961  1  -0.053302  0  -0.23103  -0.425962  0  3.965095  0
C  C236  1  0.90237193  0.56564030  0.95237774  1  -0.073851  0  -0.238391  -0.425815  0  3.979871  0
C  C237  1  0.10886499  0.51888761  0.89232331  1  -0.050025  0  -0.23511  -0.422439  0  3.981953  0
C  C238  1  0.03330972  0.23828912  0.37189177  1  0.043335  0  -0.039051  -0.138888  0  4.06429  0
C  C239  1  0.05375244  0.17368797  0.29145654  1  0.351965  0  0.092823  0.189005  0  3.98599  0
C  C240  1  0.01093777  0.09590325  0.23172103  1  -0.049856  0  -0.239764  -0.418957  0  3.986334  0
C  C241  1  0.09808252  0.29476436  0.39906428  1  0.489539  0  0.093422  0.200038  0  4.005108  0
C  C242  1  0.96072548  0.24677509  0.41794578  1  0.04532  0  -0.041801  -0.146225  0  4.072902  0
C  C243  1  0.93218582  0.19283904  0.44505133  1  0.393737  0  0.101761  0.207522  0  3.979882  0
C  C244  1  0.90458167  0.31260523  0.44648405  1  0.439037  0  0.087597  0.191785  0  4.017858  0
C  C245  1  0.96470335  0.11433289  0.43728556  1  -0.05896  0  -0.231057  -0.42644  0  3.964739  0
C  C246  1  0.90236153  0.38671518  0.43434099  1  -0.109214  0  -0.238244  -0.425691  0  3.979132  0
C  C247  1  0.10884427  0.37340296  0.48105897  1  -0.026834  0  -0.235163  -0.422358  0  3.98139  0
C  C248  1  0.03331356  0.13364061  0.76173446  1  0.043594  0  -0.038844  -0.138479  0  4.06417  0
C  C249  1  0.05374952  0.11780611  0.82633606  1  0.392858  0  0.092935  0.189099  0  3.985995  0
C  C250  1  0.01092673  0.13586130  0.90412543  1  -0.0877  0  -0.23977  -0.418965  0  3.986866  0
C  C251  1  0.09808884  0.10434371  0.70525680  1  0.469461  0  0.093308  0.200015  0  4.004922  0
C  C252  1  0.96072612  0.17120915  0.75324695  1  -0.028434  0  -0.042056  -0.147081  0  4.073516  0
C  C253  1  0.93220398  0.25226423  0.80717437  1  0.434954  0  0.102097  0.207954  0  3.979794  0
C  C254  1  0.90458557  0.13389566  0.68742579  1  0.466883  0  0.087607  0.192234  0  4.01716  0
C  C255  1  0.96473160  0.32301138  0.88565353  1  -0.061113  0  -0.231178  -0.426362  0  3.964814  0
C  C256  1  0.90239331  0.04765800  0.61330965  1  -0.079923  0  -0.238611  -0.426316  0  3.979213  0
C  C257  1  0.10886998  0.10769069  0.62662119  1  -0.067378  0  -0.234959  -0.422074  0  3.981954  0
C  C258  1  0.46669439  0.62807467  0.86638779  1  0.019251  0  -0.039005  -0.13867  0  4.063547  0
C  C259  1  0.44627448  0.70851828  0.88222737  1  0.393164  0  0.092737  0.18889  0  3.98586  0
C  C260  1  0.48907828  0.76824221  0.86417196  1  -0.057199  0  -0.240059  -0.419188  0  3.986842  0
C  C261  1  0.40192037  0.60089036  0.89568406  1  0.486181  0  0.093356  0.199726  0  4.004712  0
C  C262  1  0.53929328  0.58201455  0.82881056  1  0.033885  0  -0.041984  -0.146386  0  4.072876  0
C  C263  1  0.56780263  0.55490004  0.74774838  1  0.400659  0  0.101932  0.207503  0  3.979773  0
C  C264  1  0.59542641  0.55350395  0.86612497  1  0.45794  0  0.087546  0.191697  0  4.017123  0
C  C265  1  0.53528210  0.56264029  0.67700662  1  -0.053032  0  -0.231124  -0.42607  0  3.964938  0
C  C266  1  0.59763106  0.56564023  0.95237455  1  -0.073721  0  -0.238398  -0.425801  0  3.979468  0
C  C267  1  0.39113573  0.51889233  0.89232752  1  -0.049798  0  -0.235154  -0.422644  0  3.98174  0
C  C268  1  0.46669328  0.23829298  0.37188978  1  0.043063  0  -0.038985  -0.138997  0  4.064417  0
C  C269  1  0.44624785  0.17369100  0.29145147  1  0.352098  0  0.092766  0.188841  0  3.986404  0
C  C270  1  0.48906464  0.09590615  0.23171843  1  -0.050086  0  -0.239652  -0.418823  0  3.986227  0
C  C271  1  0.40192031  0.29476819  0.39906371  1  0.48977  0  0.093365  0.200062  0  4.005095  0
C  C272  1  0.53927900  0.24677901  0.41794856  1  0.045463  0  -0.041745  -0.146113  0  4.072542  0
C  C273  1  0.56781659  0.19284492  0.44505697  1  0.39344  0  0.101781  0.207578  0  3.979778  0
C  C274  1  0.59541885  0.31261978  0.44649676  1  0.437954  0  0.087587  0.191748  0  4.017298  0
C  C275  1  0.53529372  0.11434072  0.43729104  1  -0.058621  0  -0.231072  -0.426562  0  3.964755  0
C  C276  1  0.59763771  0.38672290  0.43434307  1  -0.108566  0  -0.238285  -0.425738  0  3.979034  0
C  C277  1  0.39115733  0.37340831  0.48106256  1  -0.026785  0  -0.23516  -0.422248  0  3.981164  0
C  C278  1  0.46668712  0.13364064  0.76173304  1  0.044121  0  -0.038854  -0.138503  0  4.064074  0
C  C279  1  0.44624846  0.11780780  0.82633342  1  0.392676  0  0.092935  0.189147  0  3.986022  0
C  C280  1  0.48906594  0.13586738  0.90412727  1  -0.087553  0  -0.239796  -0.419029  0  3.986843  0
C  C281  1  0.40191075  0.10434100  0.70525408  1  0.469369  0  0.093381  0.200032  0  4.004925  0
C  C282  1  0.53926965  0.17121326  0.75324302  1  -0.028349  0  -0.042115  -0.147006  0  4.073345  0
C  C283  1  0.56779184  0.25227015  0.80717127  1  0.434547  0  0.102123  0.207945  0  3.979784  0
C  C284  1  0.59541099  0.13390577  0.68741900  1  0.466383  0  0.087729  0.19211  0  4.017522  0
C  C285  1  0.53526436  0.32301391  0.88565560  1  -0.060831  0  -0.231303  -0.426668  0  3.964866  0
C  C286  1  0.59760305  0.04766216  0.61330441  1  -0.080073  0  -0.238498  -0.426183  0  3.979266  0
C  C287  1  0.39112837  0.10768983  0.62661794  1  -0.067068  0  -0.234973  -0.42203  0  3.982029  0
C  C288  1  0.96669856  0.37190093  0.13361714  1  0.017662  0  -0.038841  -0.138385  0  4.064361  0
C  C289  1  0.94625502  0.29146664  0.11777521  1  0.393517  0  0.092836  0.188958  0  3.986175  0
C  C290  1  0.98906034  0.23172864  0.13582419  1  -0.057834  0  -0.239781  -0.418896  0  3.986429  0
C  C291  1  0.90192799  0.39910330  0.10434226  1  0.484918  0  0.093213  0.199932  0  4.004766  0
C  C292  1  0.03928610  0.41794989  0.17119294  1  0.035175  0  -0.042015  -0.146981  0  4.073358  0
C  C293  1  0.06780873  0.44505997  0.25224155  1  0.400663  0  0.101881  0.20777  0  3.979747  0
C  C294  1  0.09543134  0.44648254  0.13389988  1  0.457878  0  0.087603  0.192264  0  4.017037  0
C  C295  1  0.03527711  0.43731198  0.32298413  1  -0.053022  0  -0.231212  -0.426444  0  3.964635  0
C  C296  1  0.09763276  0.43434758  0.04764783  1  -0.072733  0  -0.238206  -0.425668  0  3.97887  0
C  C297  1  0.89115028  0.48108935  0.10770014  1  -0.048598  0  -0.235238  -0.422734  0  3.981804  0
C  C298  1  0.96668557  0.76170155  0.62807882  1  0.042173  0  -0.038935  -0.138599  0  4.063636  0
C  C299  1  0.94625813  0.82630962  0.70851909  1  0.352067  0  0.092749  0.188931  0  3.986051  0
C  C300  1  0.98908162  0.90408585  0.76823481  1  -0.049768  0  -0.239842  -0.419027  0  3.986732  0
C  C301  1  0.90190865  0.70522792  0.60091231  1  0.490236  0  0.093357  0.19984  0  4.004854  0
C  C302  1  0.03927216  0.75319692  0.58200866  1  0.046448  0  -0.041783  -0.146157  0  4.072617  0
C  C303  1  0.06779594  0.80713673  0.55488740  1  0.39378  0  0.101778  0.207243  0  3.979986  0
C  C304  1  0.09541362  0.68737610  0.55349478  1  0.437644  0  0.087583  0.191586  0  4.017558  0
C  C305  1  0.03528547  0.88562788  0.56263880  1  -0.060346  0  -0.231127  -0.426264  0  3.964957  0
C  C306  1  0.09761259  0.61326237  0.56562967  1  -0.109855  0  -0.238344  -0.425641  0  3.979449  0
C  C307  1  0.89112633  0.62658927  0.51892636  1  -0.028813  0  -0.235011  -0.422058  0  3.981522  0
C  C308  1  0.96668055  0.86639518  0.23831391  1  0.04298  0  -0.039025  -0.138992  0  4.063837  0
C  C309  1  0.94624812  0.88222104  0.17370680  1  0.392336  0  0.092612  0.188851  0  3.985886  0
C  C310  1  0.98905445  0.86417305  0.09591459  1  -0.088202  0  -0.239941  -0.419241  0  3.986721  0
C  C311  1  0.90191174  0.89571015  0.29479959  1  0.473777  0  0.093319  0.199915  0  4.004926  0
C  C312  1  0.03927210  0.82882195  0.24680175  1  -0.026761  0  -0.041726  -0.146031  0  4.072258  0
C  C313  1  0.06780071  0.74777341  0.19286453  1  0.43321  0  0.101728  0.207468  0  3.980511  0
C  C314  1  0.09540090  0.86612770  0.31264153  1  0.467622  0  0.087441  0.19147  0  4.017407  0
C  C315  1  0.03527721  0.67705319  0.11437149  1  -0.059797  0  -0.23086  -0.425927  0  3.964995  0
C  C316  1  0.09761785  0.95237403  0.38674248  1  -0.079482  0  -0.238313  -0.42561  0  3.979744  0
C  C317  1  0.89113472  0.89234769  0.37343981  1  -0.062726  0  -0.234968  -0.422108  0  3.981345  0
C  C318  1  0.24999928  0.61958418  0.06254400  1  0.612174  0  -0.07288  -0.139931  0  3.913422  0
C  C319  1  0.24999791  0.86045254  0.14004873  1  0.812329  0  0.156258  0.329797  0  3.973691  0
C  C320  1  0.24999827  0.94576269  0.20944013  1  0.013396  0  -0.222473  -0.371627  0  4.01363  0
C  C321  1  0.24999783  0.44293090  0.38041686  1  0.604787  0  -0.072925  -0.140332  0  3.913575  0
C  C322  1  0.24999977  0.27962964  0.13953222  1  0.805042  0  0.156758  0.330395  0  3.974142  0
C  C323  1  0.24999705  0.26373178  0.05422623  1  0.004244  0  -0.222361  -0.370809  0  4.012969  0
C  C324  1  0.24999621  0.93748995  0.55704404  1  0.642224  0  -0.072725  -0.139854  0  3.913299  0
C  C325  1  0.24999858  0.85990084  0.72037744  1  0.804247  0  0.157472  0.331285  0  3.974677  0
C  C326  1  0.25000094  0.79041478  0.73613413  1  0.023914  0  -0.222451  -0.372068  0  4.013122  0
C  C327  1  0.75000247  0.38043908  0.93749623  1  0.611755  0  -0.072775  -0.139707  0  3.913264  0
C  C328  1  0.75000091  0.13957768  0.85995952  1  0.81284  0  0.156214  0.329678  0  3.975206  0
C  C329  1  0.75000054  0.05429633  0.79052409  1  0.007104  0  -0.222428  -0.371546  0  4.01374  0
C  C330  1  0.75000334  0.55706683  0.61957712  1  0.604947  0  -0.072899  -0.140329  0  3.913621  0
C  C331  1  0.75000374  0.72039274  0.86046757  1  0.805351  0  0.15677  0.329896  0  3.973961  0
C  C332  1  0.75000177  0.73625507  0.94575687  1  0.005245  0  -0.222227  -0.370751  0  4.012386  0
C  C333  1  0.74999143  0.06252625  0.44295648  1  0.641721  0  -0.072501  -0.139448  0  3.913496  0
C  C334  1  0.74999847  0.14008448  0.27958653  1  0.802251  0  0.156808  0.329939  0  3.974672  0
C  C335  1  0.74999905  0.20949241  0.26370023  1  0.00964  0  -0.222257  -0.370859  0  4.013249  0
Br  Br336  1  0.25015926  0.66666359  0.33332812  1  -0.616255  0  -0.282912  -0.516905  0  1.849066  0
Br  Br337  1  0.75014411  0.33332730  0.66665964  1  -0.6164  0  -0.282882  -0.5169  0  1.84874  0
N  N338  1  0.36436539  0.48621097  0.25917556  1  -0.850756  0  -0.28676  -0.125986  0  3.711785  0
N  N339  1  0.34618908  0.48800143  0.18855174  1  -0.743296  0  -0.291313  -0.215755  0  3.592802  0
N  N340  1  0.62557020  0.27500289  0.08082799  1  -0.843954  0  -0.291206  -0.119034  0  3.728825  0
N  N341  1  0.65357187  0.33904511  0.07183524  1  -0.725613  0  -0.279306  -0.20876  0  3.50994  0
N  N342  1  0.36436283  0.77291024  0.51373767  1  -0.825505  0  -0.286961  -0.126255  0  3.71231  0
N  N343  1  0.34620461  0.70050862  0.51197075  1  -0.724807  0  -0.291144  -0.215286  0  3.593123  0
N  N344  1  0.62555965  0.80582826  0.72500384  1  -0.846503  0  -0.291145  -0.119234  0  3.728455  0
N  N345  1  0.65356949  0.73277397  0.66096780  1  -0.726305  0  -0.279403  -0.209004  0  3.510133  0
N  N346  1  0.36437007  0.74083955  0.22708984  1  -0.824046  0  -0.286895  -0.126145  0  3.712802  0
N  N347  1  0.34621255  0.81145639  0.29949289  1  -0.729205  0  -0.29111  -0.215333  0  3.592933  0
N  N348  1  0.62556406  0.91919167  0.19418886  1  -0.840383  0  -0.29097  -0.119135  0  3.728188  0
N  N349  1  0.65355717  0.92821974  0.26725950  1  -0.721471  0  -0.279286  -0.208756  0  3.510037  0
N  N350  1  0.86436281  0.51373773  0.74082258  1  -0.846789  0  -0.286902  -0.126115  0  3.712369  0
N  N351  1  0.84619522  0.51196103  0.81144282  1  -0.742792  0  -0.291172  -0.215509  0  3.593126  0
N  N352  1  0.12555323  0.72498079  0.91918488  1  -0.84299  0  -0.290938  -0.119147  0  3.728481  0
N  N353  1  0.15356346  0.66094018  0.92818957  1  -0.725957  0  -0.279299  -0.208584  0  3.509479  0
N  N354  1  0.86436656  0.22705797  0.48623226  1  -0.823625  0  -0.286766  -0.125892  0  3.711288  0
N  N355  1  0.84621084  0.29948616  0.48802411  1  -0.726931  0  -0.29117  -0.215478  0  3.592692  0
N  N356  1  0.12556849  0.19416549  0.27497829  1  -0.846409  0  -0.291137  -0.119278  0  3.728298  0
N  N357  1  0.15356408  0.26721947  0.33902058  1  -0.726143  0  -0.27939  -0.208883  0  3.509965  0
N  N358  1  0.86437813  0.25920077  0.77294719  1  -0.824681  0  -0.28675  -0.125859  0  3.711459  0
N  N359  1  0.84620762  0.18856356  0.70054533  1  -0.725726  0  -0.291246  -0.215733  0  3.592345  0
N  N360  1  0.12556819  0.08084970  0.80585659  1  -0.841665  0  -0.2913  -0.119057  0  3.728738  0
N  N361  1  0.15357463  0.07183548  0.73280196  1  -0.71588  0  -0.27939  -0.209002  0  3.509608  0
N  N362  1  0.63563460  0.51372791  0.74081419  1  -0.847239  0  -0.286729  -0.125725  0  3.711975  0
N  N363  1  0.65380562  0.51194893  0.81143632  1  -0.742334  0  -0.291293  -0.215829  0  3.593316  0
N  N364  1  0.37444743  0.72498232  0.91918612  1  -0.843019  0  -0.290893  -0.119008  0  3.728593  0
N  N365  1  0.34643929  0.66094238  0.92819182  1  -0.72594  0  -0.279342  -0.208743  0  3.509763  0
N  N366  1  0.63562893  0.22707197  0.48625334  1  -0.826097  0  -0.286954  -0.126067  0  3.711498  0
N  N367  1  0.65378362  0.29950060  0.48804980  1  -0.723466  0  -0.291074  -0.215458  0  3.592815  0
N  N368  1  0.37443505  0.19416891  0.27497764  1  -0.846577  0  -0.291075  -0.119079  0  3.728543  0
N  N369  1  0.34644344  0.26722035  0.33902089  1  -0.726008  0  -0.27938  -0.20892  0  3.510088  0
N  N370  1  0.63561405  0.25921125  0.77294025  1  -0.824221  0  -0.286929  -0.126065  0  3.711388  0
N  N371  1  0.65378333  0.18857552  0.70053652  1  -0.72597  0  -0.291238  -0.215682  0  3.592302  0
N  N372  1  0.37443240  0.08084797  0.80585456  1  -0.841932  0  -0.291257  -0.119149  0  3.728889  0
N  N373  1  0.34642753  0.07183310  0.73279901  1  -0.715932  0  -0.279429  -0.208959  0  3.509872  0
N  N374  1  0.13562600  0.48624060  0.25919406  1  -0.850382  0  -0.28674  -0.125937  0  3.711645  0
N  N375  1  0.15380418  0.48803364  0.18856945  1  -0.742469  0  -0.291271  -0.215871  0  3.593053  0
N  N376  1  0.87443324  0.27501143  0.08083310  1  -0.843696  0  -0.291024  -0.118944  0  3.728888  0
N  N377  1  0.84643535  0.33904902  0.07183796  1  -0.725322  0  -0.279313  -0.208792  0  3.51012  0
N  N378  1  0.13562814  0.77290417  0.51371356  1  -0.826291  0  -0.286781  -0.125744  0  3.711735  0
N  N379  1  0.15378856  0.70050350  0.51194422  1  -0.723082  0  -0.291189  -0.215519  0  3.593212  0
N  N380  1  0.87443973  0.80583231  0.72500257  1  -0.846485  0  -0.291178  -0.119282  0  3.728525  0
N  N381  1  0.84643003  0.73278205  0.66096526  1  -0.726258  0  -0.279418  -0.208899  0  3.509862  0
N  N382  1  0.13561539  0.74081735  0.22709166  1  -0.824208  0  -0.286759  -0.125989  0  3.71238  0
N  N383  1  0.15377062  0.81143524  0.29949870  1  -0.728066  0  -0.291164  -0.2155  0  3.59313  0
N  N384  1  0.87443121  0.91918978  0.19418918  1  -0.840535  0  -0.291054  -0.119239  0  3.728354  0
N  N385  1  0.84643477  0.92821259  0.26725805  1  -0.721518  0  -0.279279  -0.208682  0  3.509745  0
N  N386  1  0.24999769  0.59147498  0.10822263  1  -1.422519  0  -0.476215  -0.401191  0  3.795386  0
N  N387  1  0.24999424  0.79985842  0.07320522  1  -1.286844  0  -0.397002  -0.472879  0  3.414756  0
N  N388  1  0.24999278  0.51671649  0.40852092  1  -1.420046  0  -0.476203  -0.40083  0  3.795301  0
N  N389  1  0.24999972  0.27335879  0.20010950  1  -1.278858  0  -0.397297  -0.473504  0  3.414622  0
N  N390  1  0.24998991  0.89179187  0.48325912  1  -1.448172  0  -0.476346  -0.401117  0  3.795283  0
N  N391  1  0.24999760  0.92670258  0.72656225  1  -1.277865  0  -0.397203  -0.472828  0  3.413468  0
N  N392  1  0.74999936  0.40853168  0.89179722  1  -1.422045  0  -0.476345  -0.401322  0  3.795394  0
N  N393  1  0.75000516  0.20014191  0.92681334  1  -1.287342  0  -0.396741  -0.472616  0  3.414479  0
N  N394  1  0.75000133  0.48328434  0.59147867  1  -1.420078  0  -0.476191  -0.400722  0  3.795388  0
N  N395  1  0.75000321  0.72662823  0.79987126  1  -1.279265  0  -0.397135  -0.472728  0  3.41449  0
N  N396  1  0.74999185  0.10819707  0.51674365  1  -1.448126  0  -0.476586  -0.401635  0  3.795573  0
N  N397  1  0.75000004  0.07328203  0.27341547  1  -1.278747  0  -0.397116  -0.472396  0  3.415101  0
