# generated using pymatgen
data_CdH28C26(N2Cl)2
_symmetry_space_group_name_H-M   'P 1'
_cell_length_a   17.44725764
_cell_length_b   17.44710489
_cell_length_c   24.78607533
_cell_angle_alpha   110.61434887
_cell_angle_beta   110.60478598
_cell_angle_gamma   90.00407959
_symmetry_Int_Tables_number   1
_chemical_formula_structural   CdH28C26(N2Cl)2
_chemical_formula_sum   'Cd8 H224 C208 N32 Cl16'
_cell_volume   6543.62498234
_cell_formula_units_Z   8
loop_
 _symmetry_equiv_pos_site_id
 _symmetry_equiv_pos_as_xyz
  1  'x, y, z'
loop_
 _atom_site_type_symbol
 _atom_site_label
 _atom_site_symmetry_multiplicity
 _atom_site_fract_x
 _atom_site_fract_y
 _atom_site_fract_z
 _atom_site_occupancy
 _atom_site_pbe_bader_charge
 _atom_site_pbe_bader_spin_density
 _atom_site_pbe_cm5_charge
 _atom_site_pbe_ddec_charge
 _atom_site_pbe_ddec_spin_density
 _atom_site_pbe_ddec_sum_bond_order
 _atom_site_pbe_magmom
Cd  Cd0  1  0.71839108  0.46843438  0.93685165  1  1.168397  0  0.678843  0.682363  0  2.486883  0
Cd  Cd1  1  0.46840101  0.71841661  0.43688500  1  1.162229  0  0.679162  0.68269  0  2.486773  0
Cd  Cd2  1  0.28161006  0.53156580  0.06314884  1  1.168395  0  0.678836  0.682327  0  2.486944  0
Cd  Cd3  1  0.53159816  0.28158243  0.56311415  1  1.162157  0  0.679172  0.682703  0  2.486799  0
Cd  Cd4  1  0.09467171  0.34464246  0.68933778  1  1.168361  0  0.667555  0.689891  0  2.463407  0
Cd  Cd5  1  0.34461314  0.09466769  0.18933524  1  1.166715  0  0.66755  0.690627  0  2.462352  0
Cd  Cd6  1  0.90532814  0.65535789  0.31066265  1  1.168322  0  0.66755  0.689854  0  2.463493  0
Cd  Cd7  1  0.65538669  0.90533074  0.81066456  1  1.166721  0  0.667544  0.690636  0  2.462295  0
H  H8  1  0.55016459  0.38030344  0.81613420  1  0.097195  0  0.105538  0.074287  0  1.037244  0
H  H9  1  0.76594856  0.43581171  0.81620605  1  0.098942  0  0.105654  0.07487  0  1.036717  0
H  H10  1  0.43590602  0.55020807  0.31620841  1  0.08512  0  0.105526  0.074296  0  1.037349  0
H  H11  1  0.38032272  0.76592179  0.31619148  1  0.097142  0  0.105665  0.073979  0  1.037218  0
H  H12  1  0.44983759  0.61969717  0.18386608  1  0.097225  0  0.105522  0.074278  0  1.037286  0
H  H13  1  0.23405137  0.56418847  0.18379322  1  0.098948  0  0.105648  0.074853  0  1.036748  0
H  H14  1  0.56409428  0.44979220  0.68379185  1  0.085128  0  0.105535  0.074292  0  1.037319  0
H  H15  1  0.61967773  0.23407908  0.68380893  1  0.097135  0  0.105664  0.073992  0  1.037211  0
H  H16  1  0.43199922  0.41335467  0.73842567  1  0.079085  0  0.103627  0.113561  0  1.01367  0
H  H17  1  0.80627623  0.32495963  0.73843542  1  0.068942  0  0.102955  0.11218  0  1.014598  0
H  H18  1  0.32509703  0.43206914  0.23841732  1  0.06946  0  0.103229  0.113216  0  1.013427  0
H  H19  1  0.41344712  0.80627933  0.23845792  1  0.077971  0  0.103072  0.111903  0  1.014807  0
H  H20  1  0.56800204  0.58664621  0.26157554  1  0.078892  0  0.103637  0.113563  0  1.013648  0
H  H21  1  0.19372335  0.67503941  0.26156413  1  0.068933  0  0.102945  0.11217  0  1.014636  0
H  H22  1  0.67490395  0.56793042  0.76158301  1  0.069374  0  0.103229  0.113202  0  1.013386  0
H  H23  1  0.58655232  0.19372102  0.76154211  1  0.077984  0  0.103087  0.111921  0  1.014796  0
H  H24  1  0.55355376  0.66629855  0.82450057  1  0.134693  0  0.090055  0.118889  0  1.061921  0
H  H25  1  0.77080347  0.15816179  0.82453874  1  0.150492  0  0.090254  0.119641  0  1.061964  0
H  H26  1  0.15819464  0.55367809  0.32441636  1  0.114751  0  0.089968  0.119458  0  1.061365  0
H  H27  1  0.66634155  0.77083406  0.32459216  1  0.132627  0  0.09018  0.11905  0  1.06216  0
H  H28  1  0.44644709  0.33370232  0.17550024  1  0.134702  0  0.090065  0.118894  0  1.06193  0
H  H29  1  0.22919538  0.84183804  0.17546131  1  0.150494  0  0.090247  0.119651  0  1.061946  0
H  H30  1  0.84180510  0.44632156  0.67558334  1  0.114966  0  0.089971  0.119431  0  1.061374  0
H  H31  1  0.33365879  0.22916804  0.67540815  1  0.132635  0  0.09019  0.1191  0  1.062098  0
H  H32  1  0.66761498  0.62121197  0.89757342  1  0.087913  0  0.105594  0.080434  0  1.015061  0
H  H33  1  0.72991474  0.27640407  0.89765867  1  0.080139  0  0.104968  0.079796  0  1.016597  0
H  H34  1  0.27643362  0.66763958  0.39762603  1  0.095364  0  0.105295  0.080463  0  1.016299  0
H  H35  1  0.62117178  0.72988015  0.39765926  1  0.095155  0  0.105096  0.079416  0  1.016148  0
H  H36  1  0.33238635  0.37878873  0.10242664  1  0.087939  0  0.105603  0.080465  0  1.015022  0
H  H37  1  0.27008530  0.72359681  0.10234134  1  0.080133  0  0.104944  0.079771  0  1.016603  0
H  H38  1  0.72356636  0.33235946  0.60237392  1  0.095351  0  0.105293  0.080462  0  1.016298  0
H  H39  1  0.37882841  0.27012134  0.60234090  1  0.095143  0  0.105095  0.079426  0  1.016135  0
H  H40  1  0.38944441  0.61947103  0.75692481  1  0.030167  0  0.092872  0.092336  0  1.000598  0
H  H41  1  0.86734483  0.13737151  0.75695525  1  0.027832  0  0.092434  0.091317  0  1.002197  0
H  H42  1  0.13744225  0.38961618  0.25693399  1  0.033914  0  0.092789  0.091923  0  0.999893  0
H  H43  1  0.61961213  0.86737798  0.25703806  1  0.020816  0  0.0922  0.09082  0  1.001849  0
H  H44  1  0.61055525  0.38052880  0.24307605  1  0.030175  0  0.092871  0.092319  0  1.000611  0
H  H45  1  0.13265546  0.86262875  0.24304501  1  0.027827  0  0.092436  0.091325  0  1.002174  0
H  H46  1  0.86255763  0.61038409  0.74306586  1  0.03391  0  0.092768  0.091881  0  0.999894  0
H  H47  1  0.38038706  0.13262299  0.74296172  1  0.020857  0  0.092183  0.090795  0  1.001802  0
H  H48  1  0.36215106  0.51548742  0.70339895  1  0.041187  0  0.091418  0.091678  0  0.992469  0
H  H49  1  0.84117817  0.18788169  0.70347541  1  0.037308  0  0.090569  0.089699  0  0.994712  0
H  H50  1  0.18786182  0.36219879  0.20338593  1  0.026756  0  0.091226  0.090535  0  0.993031  0
H  H51  1  0.51563054  0.84121255  0.20353498  1  0.024172  0  0.090979  0.090683  0  0.993191  0
H  H52  1  0.63784992  0.48451214  0.29660138  1  0.041186  0  0.091416  0.091671  0  0.99247  0
H  H53  1  0.15882153  0.81211805  0.29652487  1  0.037295  0  0.090565  0.089688  0  0.994719  0
H  H54  1  0.81213832  0.63780087  0.79661418  1  0.026758  0  0.091245  0.090562  0  0.992998  0
H  H55  1  0.48436861  0.15878851  0.79646538  1  0.024416  0  0.09097  0.090648  0  0.99321  0
H  H56  1  0.46360505  0.54105164  0.65837494  1  0.059316  0  0.080596  0.084738  0  1.031255  0
H  H57  1  0.69468422  0.11730473  0.65837536  1  0.056378  0  0.080301  0.083492  0  1.031707  0
H  H58  1  0.11730080  0.46359562  0.15829867  1  0.053044  0  0.080461  0.084031  0  1.031266  0
H  H59  1  0.54107293  0.69472795  0.15840692  1  0.068998  0  0.080042  0.083095  0  1.032011  0
H  H60  1  0.53639580  0.45894924  0.34162587  1  0.059301  0  0.080587  0.084717  0  1.031267  0
H  H61  1  0.30531573  0.88269440  0.34162517  1  0.056385  0  0.080306  0.083524  0  1.03171  0
H  H62  1  0.88269993  0.53640456  0.84170142  1  0.053063  0  0.080451  0.083986  0  1.03129  0
H  H63  1  0.45892701  0.30527415  0.84159299  1  0.068932  0  0.080046  0.08312  0  1.031998  0
H  H64  1  0.49140103  0.64518118  0.71382916  1  0.061415  0  0.081092  0.087447  0  1.027373  0
H  H65  1  0.72227156  0.06859099  0.71379111  1  0.055366  0  0.081512  0.086686  0  1.026526  0
H  H66  1  0.06869000  0.49152279  0.21378179  1  0.050365  0  0.080759  0.086084  0  1.027104  0
H  H67  1  0.64519745  0.72228448  0.21384342  1  0.055556  0  0.081305  0.087261  0  1.026622  0
H  H68  1  0.50859978  0.35481978  0.28617224  1  0.061463  0  0.081098  0.08747  0  1.027374  0
H  H69  1  0.27772923  0.93140805  0.28620965  1  0.055147  0  0.081505  0.086673  0  1.026536  0
H  H70  1  0.93131073  0.50847738  0.78621829  1  0.050366  0  0.080748  0.086037  0  1.027108  0
H  H71  1  0.35480234  0.27771702  0.78615634  1  0.055528  0  0.081324  0.087282  0  1.026619  0
H  H72  1  0.31744886  0.56718198  0.61682821  1  0.015396  0  0.093942  0.094926  0  0.994562  0
H  H73  1  0.79934431  0.04965428  0.61687065  1  0.047004  0  0.094331  0.096696  0  0.994074  0
H  H74  1  0.04952656  0.31747080  0.11684873  1  0.026331  0  0.094246  0.095907  0  0.994728  0
H  H75  1  0.56731227  0.79935884  0.11692646  1  0.026739  0  0.094367  0.096243  0  0.99477  0
H  H76  1  0.68255227  0.43281819  0.38317228  1  0.015376  0  0.09394  0.094927  0  0.994544  0
H  H77  1  0.20065527  0.95034476  0.38312890  1  0.046927  0  0.094346  0.096737  0  0.994071  0
H  H78  1  0.95047393  0.68252999  0.88315111  1  0.026329  0  0.094231  0.095874  0  0.994768  0
H  H79  1  0.43268737  0.20064204  0.88307314  1  0.026763  0  0.094358  0.096231  0  0.994829  0
H  H80  1  0.34561423  0.67122628  0.67074988  1  0.024951  0  0.092932  0.092272  0  0.977085  0
H  H81  1  0.82501218  0.99948390  0.67074599  1  0.020822  0  0.092423  0.091542  0  0.978586  0
H  H82  1  0.99948307  0.34576374  0.17081163  1  0.021478  0  0.0931  0.09205  0  0.977585  0
H  H83  1  0.67134005  0.82506695  0.17084486  1  0.011549  0  0.092287  0.091965  0  0.978988  0
H  H84  1  0.65438558  0.32877416  0.32925113  1  0.025005  0  0.092944  0.092292  0  0.977068  0
H  H85  1  0.17498740  0.00051514  0.32925356  1  0.020849  0  0.092417  0.091553  0  0.978577  0
H  H86  1  0.00051770  0.65423635  0.82918787  1  0.021456  0  0.093099  0.092046  0  0.977618  0
H  H87  1  0.32866058  0.17493446  0.82915513  1  0.011578  0  0.092303  0.091952  0  0.978997  0
H  H88  1  0.41384474  0.52028422  0.54828050  1  0.143235  0  0.089901  0.117632  0  1.067141  0
H  H89  1  0.63438723  0.02797023  0.54824066  1  0.149497  0  0.089907  0.118014  0  1.066654  0
H  H90  1  0.02793246  0.41385357  0.04829731  1  0.147795  0  0.089839  0.118258  0  1.066549  0
H  H91  1  0.52031825  0.63444672  0.04832333  1  0.143887  0  0.08985  0.117015  0  1.067405  0
H  H92  1  0.58615582  0.47971735  0.45172064  1  0.143215  0  0.089887  0.117604  0  1.0671  0
H  H93  1  0.36561251  0.97202942  0.45175905  1  0.149502  0  0.089904  0.118019  0  1.066652  0
H  H94  1  0.97206743  0.58614669  0.95170254  1  0.147805  0  0.089831  0.118243  0  1.066555  0
H  H95  1  0.47968176  0.36555425  0.95167725  1  0.143889  0  0.089873  0.117052  0  1.067384  0
H  H96  1  0.45546584  0.56592564  0.47572288  1  0.107699  0  0.10456  0.077163  0  1.023608  0
H  H97  1  0.52021882  0.90973923  0.47564337  1  0.085326  0  0.104051  0.076548  0  1.024718  0
H  H98  1  0.90974173  0.45541927  0.97570455  1  0.092039  0  0.104515  0.077441  0  1.023456  0
H  H99  1  0.56586992  0.52028547  0.97566786  1  0.097926  0  0.104266  0.076566  0  1.024217  0
H  H100  1  0.54453397  0.43407480  0.52427814  1  0.107661  0  0.104563  0.077172  0  1.023565  0
H  H101  1  0.47978066  0.09026103  0.52435608  1  0.085344  0  0.10403  0.076539  0  1.024715  0
H  H102  1  0.09025787  0.54458170  0.02429564  1  0.09204  0  0.104493  0.077413  0  1.023438  0
H  H103  1  0.43413018  0.47971427  0.02433282  1  0.097922  0  0.104255  0.076575  0  1.024217  0
H  H104  1  0.41884515  0.80645760  0.55715647  1  0.087962  0  0.104662  0.073902  0  1.037253  0
H  H105  1  0.63824886  0.75062968  0.55704137  1  0.088916  0  0.104546  0.07316  0  1.038191  0
H  H106  1  0.75059327  0.41878241  0.05708517  1  0.090735  0  0.104676  0.073301  0  1.036882  0
H  H107  1  0.80641274  0.63830885  0.05702869  1  0.088004  0  0.104872  0.073657  0  1.037934  0
H  H108  1  0.58115526  0.19354337  0.44284452  1  0.087975  0  0.104679  0.073931  0  1.037245  0
H  H109  1  0.36174987  0.24936945  0.44295795  1  0.08891  0  0.104548  0.073153  0  1.038202  0
H  H110  1  0.24940702  0.58121785  0.94291508  1  0.090728  0  0.104672  0.073288  0  1.036888  0
H  H111  1  0.19358711  0.36169150  0.94297174  1  0.088007  0  0.104864  0.073668  0  1.0379  0
H  H112  1  0.37997516  0.77331725  0.63562509  1  0.081815  0  0.102373  0.110303  0  1.016062  0
H  H113  1  0.75558185  0.86227357  0.63553330  1  0.079713  0  0.101838  0.109453  0  1.017095  0
H  H114  1  0.86218277  0.37996263  0.13558144  1  0.071285  0  0.102219  0.110263  0  1.016229  0
H  H115  1  0.77336412  0.75560928  0.13559762  1  0.074691  0  0.101916  0.109384  0  1.016435  0
H  H116  1  0.62002444  0.22668371  0.36437510  1  0.081836  0  0.102391  0.11032  0  1.016057  0
H  H117  1  0.24441728  0.13772556  0.36446642  1  0.079695  0  0.101831  0.109462  0  1.017095  0
H  H118  1  0.13781796  0.62003755  0.86441864  1  0.071244  0  0.102258  0.110314  0  1.016196  0
H  H119  1  0.22663612  0.24439213  0.86440196  1  0.074707  0  0.101917  0.109402  0  1.016404  0
H  H120  1  0.14707446  0.53388890  0.72571031  1  0.120256  0  0.104503  0.082339  0  1.020972  0
H  H121  1  0.07855559  0.19182040  0.72578957  1  0.119519  0  0.104031  0.081257  0  1.021868  0
H  H122  1  0.19179286  0.14714370  0.22573762  1  0.110656  0  0.10438  0.082252  0  1.020785  0
H  H123  1  0.53384536  0.07855422  0.22580300  1  0.112904  0  0.10419  0.08144  0  1.021814  0
H  H124  1  0.85292499  0.46611145  0.27428972  1  0.120256  0  0.104508  0.082376  0  1.020909  0
H  H125  1  0.92144684  0.80817959  0.27421097  1  0.119691  0  0.104037  0.08129  0  1.021849  0
H  H126  1  0.80820753  0.85285534  0.77426273  1  0.110636  0  0.104397  0.082266  0  1.020733  0
H  H127  1  0.46615268  0.92144562  0.77419625  1  0.112893  0  0.104188  0.081469  0  1.021817  0
H  H128  1  0.26102469  0.65267624  0.79613825  1  0.063778  0  0.10736  0.113649  0  0.987986  0
H  H129  1  0.03514755  0.14356304  0.79629392  1  0.065501  0  0.107899  0.11438  0  0.988046  0
H  H130  1  0.14352624  0.26103289  0.29626220  1  0.067135  0  0.10772  0.114551  0  0.986995  0
H  H131  1  0.65262053  0.03514205  0.29627524  1  0.052288  0  0.107667  0.113963  0  0.988357  0
H  H132  1  0.73897516  0.34732411  0.20386219  1  0.063777  0  0.107379  0.113663  0  0.987987  0
H  H133  1  0.96485316  0.85643521  0.20370553  1  0.065544  0  0.107869  0.114322  0  0.988081  0
H  H134  1  0.85647390  0.73896676  0.70373790  1  0.067118  0  0.107718  0.114549  0  0.986998  0
H  H135  1  0.34737851  0.96485830  0.70372439  1  0.052263  0  0.107659  0.113961  0  0.988386  0
H  H136  1  0.38425726  0.49238157  0.88784467  1  0.077553  0  0.106055  0.117102  0  1.006268  0
H  H137  1  0.00355066  0.39560329  0.88793813  1  0.088376  0  0.105915  0.117216  0  1.005706  0
H  H138  1  0.39558177  0.38424988  0.38795913  1  0.104264  0  0.10579  0.116804  0  1.005509  0
H  H139  1  0.49225884  0.00348760  0.38792027  1  0.083817  0  0.105855  0.116925  0  1.006463  0
H  H140  1  0.61574267  0.50761861  0.11215461  1  0.077546  0  0.106041  0.117107  0  1.006252  0
H  H141  1  0.99644913  0.60439522  0.11206225  1  0.088366  0  0.105906  0.117208  0  1.00567  0
H  H142  1  0.60441831  0.61575091  0.61204030  1  0.10427  0  0.105789  0.116817  0  1.00549  0
H  H143  1  0.50774045  0.99651214  0.61207961  1  0.08382  0  0.105856  0.116935  0  1.006478  0
H  H144  1  0.26725247  0.37944726  0.81122768  1  0.124595  0  0.107586  0.079008  0  1.029235  0
H  H145  1  0.04384797  0.43181750  0.81126344  1  0.095026  0  0.107806  0.078536  0  1.030661  0
H  H146  1  0.43181069  0.26726850  0.31127745  1  0.092648  0  0.107798  0.078787  0  1.029537  0
H  H147  1  0.37935074  0.04381849  0.31128047  1  0.120643  0  0.107839  0.078849  0  1.030078  0
H  H148  1  0.73274859  0.62055213  0.18877149  1  0.124585  0  0.107615  0.079071  0  1.029234  0
H  H149  1  0.95615239  0.56818163  0.18873749  1  0.094456  0  0.107803  0.078534  0  1.030649  0
H  H150  1  0.56818993  0.73273097  0.68872190  1  0.092577  0  0.107808  0.078784  0  1.029584  0
H  H151  1  0.62064811  0.95618134  0.68871958  1  0.120676  0  0.107843  0.078882  0  1.030077  0
H  H152  1  0.45453149  0.62888617  0.91805611  1  0.038126  0  0.094957  0.098192  0  0.987443  0
H  H153  1  0.96352892  0.28923484  0.91819059  1  0.041839  0  0.094902  0.097939  0  0.988047  0
H  H154  1  0.28921638  0.45457749  0.41813971  1  0.020286  0  0.095163  0.098418  0  0.987332  0
H  H155  1  0.62891747  0.96351970  0.41816784  1  0.023416  0  0.094629  0.097921  0  0.986845  0
H  H156  1  0.54546824  0.37111348  0.08194360  1  0.038081  0  0.094955  0.098175  0  0.987461  0
H  H157  1  0.03647055  0.71076350  0.08180823  1  0.041799  0  0.094904  0.097925  0  0.988059  0
H  H158  1  0.71078310  0.54542277  0.58185974  1  0.020271  0  0.095165  0.098423  0  0.987337  0
H  H159  1  0.37108157  0.03648066  0.58183179  1  0.023415  0  0.094604  0.097859  0  0.986896  0
H  H160  1  0.42308273  0.67951911  0.86497552  1  0.038764  0  0.096  0.098711  0  0.992954  0
H  H161  1  0.94187821  0.18553272  0.86503258  1  0.056688  0  0.096312  0.099498  0  0.991833  0
H  H162  1  0.18551662  0.42304373  0.36502633  1  0.060459  0  0.096398  0.099557  0  0.991944  0
H  H163  1  0.67940028  0.94183968  0.36497930  1  0.035931  0  0.096101  0.099502  0  0.992659  0
H  H164  1  0.57691756  0.32048115  0.13502474  1  0.038778  0  0.096008  0.098723  0  0.992892  0
H  H165  1  0.05812150  0.81446501  0.13496649  1  0.056706  0  0.096261  0.099408  0  0.991912  0
H  H166  1  0.81448356  0.57695584  0.63497320  1  0.060372  0  0.096356  0.099453  0  0.991954  0
H  H167  1  0.32059876  0.05816068  0.63502033  1  0.035926  0  0.096107  0.09952  0  0.992629  0
H  H168  1  0.32023481  0.74355300  0.91232589  1  0.006712  0  0.086653  0.078896  0  0.982617  0
H  H169  1  0.09201316  0.16876624  0.91232479  1  0.00605  0  0.08613  0.077497  0  0.98346  0
H  H170  1  0.16880501  0.32029946  0.41244155  1  0.005681  0  0.086332  0.077988  0  0.983725  0
H  H171  1  0.74345814  0.09202409  0.41223342  1  -0.002091  0  0.086746  0.07877  0  0.982739  0
H  H172  1  0.67976592  0.25644717  0.08767419  1  0.006712  0  0.086667  0.078911  0  0.982556  0
H  H173  1  0.90798731  0.83123263  0.08767440  1  0.006079  0  0.086146  0.077527  0  0.983476  0
H  H174  1  0.83119459  0.67970150  0.58755864  1  0.005666  0  0.086328  0.077991  0  0.983776  0
H  H175  1  0.25654204  0.90797548  0.58776611  1  -0.002094  0  0.086725  0.07871  0  0.982774  0
H  H176  1  0.35599281  0.69507891  0.96690763  1  0.057175  0  0.082961  0.086041  0  1.031846  0
H  H177  1  0.11093313  0.27183452  0.96693542  1  0.072656  0  0.083302  0.086308  0  1.032923  0
H  H178  1  0.27187740  0.35606375  0.46700573  1  0.055314  0  0.083057  0.086181  0  1.032968  0
H  H179  1  0.69508833  0.11092506  0.46689103  1  0.066829  0  0.082841  0.085708  0  1.032318  0
H  H180  1  0.64400733  0.30492074  0.03309248  1  0.057177  0  0.082961  0.086037  0  1.03185  0
H  H181  1  0.88906649  0.72816444  0.03306355  1  0.072635  0  0.083316  0.086375  0  1.032886  0
H  H182  1  0.72812293  0.64393643  0.53299395  1  0.055307  0  0.083065  0.086183  0  1.032964  0
H  H183  1  0.30491197  0.88907521  0.53310923  1  0.066816  0  0.082834  0.085689  0  1.032329  0
H  H184  1  0.49861544  0.76874864  0.00497562  1  0.05391  0  0.09775  0.102328  0  0.984559  0
H  H185  1  0.00632243  0.23632837  0.00499325  1  0.05334  0  0.097155  0.101989  0  0.984698  0
H  H186  1  0.23633081  0.49873756  0.50499686  1  0.043847  0  0.097482  0.102556  0  0.984699  0
H  H187  1  0.76874790  0.00641253  0.50495307  1  0.036944  0  0.097189  0.10158  0  0.984879  0
H  H188  1  0.50138511  0.23125101  0.99502489  1  0.053904  0  0.097706  0.102292  0  0.984563  0
H  H189  1  0.99367815  0.76367119  0.99500668  1  0.05333  0  0.097159  0.102028  0  0.984658  0
H  H190  1  0.76367073  0.50126262  0.49500403  1  0.04385  0  0.097465  0.10257  0  0.984752  0
H  H191  1  0.23125209  0.99358651  0.49504688  1  0.036952  0  0.097219  0.101621  0  0.984872  0
H  H192  1  0.46482104  0.81790744  0.95097588  1  0.023924  0  0.095025  0.095975  0  0.977402  0
H  H193  1  0.98606545  0.13314919  0.95097353  1  0.002512  0  0.09464  0.095554  0  0.978171  0
H  H194  1  0.13314942  0.46489398  0.45102458  1  0.04122  0  0.09445  0.094895  0  0.978349  0
H  H195  1  0.81784838  0.98611458  0.45090375  1  0.021204  0  0.095112  0.096368  0  0.976937  0
H  H196  1  0.53517950  0.18209221  0.04902463  1  0.02391  0  0.095063  0.096035  0  0.977376  0
H  H197  1  0.01393469  0.86685046  0.04902658  1  0.002513  0  0.094649  0.095555  0  0.978179  0
H  H198  1  0.86685137  0.53510803  0.54897555  1  0.041206  0  0.094462  0.094917  0  0.978361  0
H  H199  1  0.18215161  0.01388446  0.54909621  1  0.021228  0  0.095105  0.096331  0  0.976975  0
H  H200  1  0.44032119  0.95655908  0.99320042  1  0.052749  0  0.101786  0.10736  0  1.015791  0
H  H201  1  0.05275170  0.03670152  0.99314331  1  0.037586  0  0.101962  0.107418  0  1.015388  0
H  H202  1  0.03679103  0.44048613  0.49327795  1  0.060146  0  0.102124  0.107506  0  1.015393  0
H  H203  1  0.95654436  0.05285735  0.49311246  1  0.072401  0  0.101623  0.107234  0  1.015808  0
H  H204  1  0.55967827  0.04343926  0.00679840  1  0.052735  0  0.101794  0.10736  0  1.015887  0
H  H205  1  0.94724888  0.96329804  0.00685662  1  0.037567  0  0.101959  0.107417  0  1.015392  0
H  H206  1  0.96320931  0.55951597  0.50672236  1  0.060203  0  0.102128  0.107495  0  1.015405  0
H  H207  1  0.04345637  0.94714283  0.50688762  1  0.072426  0  0.10163  0.107237  0  1.01577  0
H  H208  1  0.40279013  0.06701570  0.07377464  1  0.103941  0  0.104803  0.081257  0  1.016939  0
H  H209  1  0.17082208  0.00680654  0.07371586  1  0.120403  0  0.104495  0.080667  0  1.017748  0
H  H210  1  0.00688493  0.40285999  0.57380411  1  0.120481  0  0.104504  0.080611  0  1.017832  0
H  H211  1  0.06702451  0.17094182  0.57371847  1  0.104362  0  0.104596  0.081095  0  1.01671  0
H  H212  1  0.59720768  0.93298273  0.92622315  1  0.103924  0  0.104786  0.081264  0  1.016906  0
H  H213  1  0.82917802  0.99319319  0.92628483  1  0.120416  0  0.104507  0.080688  0  1.01773  0
H  H214  1  0.99311359  0.59713967  0.42619438  1  0.120562  0  0.104514  0.080599  0  1.017847  0
H  H215  1  0.93297449  0.82905863  0.42628174  1  0.104336  0  0.104597  0.082522  0  1.015165  0
H  H216  1  0.35278018  0.90044876  0.14506003  1  0.10784  0  0.106875  0.081474  0  1.015397  0
H  H217  1  0.29230053  0.24459582  0.14490691  1  0.11271  0  0.106073  0.080337  0  1.016248  0
H  H218  1  0.24469364  0.35271122  0.64499868  1  0.097403  0  0.106382  0.080728  0  1.015552  0
H  H219  1  0.90046955  0.29228149  0.64500405  1  0.100016  0  0.106079  0.080578  0  1.015654  0
H  H220  1  0.64721701  0.09955116  0.85493899  1  0.107846  0  0.106861  0.08145  0  1.015453  0
H  H221  1  0.70769957  0.75540392  0.85509378  1  0.112713  0  0.106054  0.080294  0  1.016272  0
H  H222  1  0.75530393  0.64728485  0.35499948  1  0.097404  0  0.106406  0.080764  0  1.015496  0
H  H223  1  0.09952930  0.70771834  0.35499600  1  0.099976  0  0.106077  0.080597  0  1.015642  0
H  H224  1  0.39435556  0.78390681  0.07150090  1  0.12277  0  0.091083  0.117247  0  1.06451  0
H  H225  1  0.17713912  0.28762969  0.07142814  1  0.129861  0  0.090726  0.117321  0  1.064783  0
H  H226  1  0.28770030  0.39438588  0.57149840  1  0.130445  0  0.091237  0.118306  0  1.064022  0
H  H227  1  0.78391761  0.17715274  0.57144289  1  0.121445  0  0.091217  0.117975  0  1.063609  0
H  H228  1  0.60564358  0.21609232  0.92849882  1  0.122789  0  0.091086  0.117251  0  1.064525  0
H  H229  1  0.82286143  0.71236996  0.92857237  1  0.129853  0  0.09073  0.117323  0  1.064784  0
H  H230  1  0.71229913  0.60561255  0.42850100  1  0.130432  0  0.091265  0.118365  0  1.063977  0
H  H231  1  0.21608197  0.82284630  0.42855666  1  0.121445  0  0.091218  0.117985  0  1.063599  0
C  C232  1  0.54837845  0.44264052  0.81579195  1  0.489822  0  0.041062  0.094312  0  3.971792  0
C  C233  1  0.76734696  0.37313098  0.81584909  1  0.474773  0  0.040862  0.093828  0  3.970692  0
C  C234  1  0.37320905  0.54843254  0.31583077  1  0.479631  0  0.040923  0.093266  0  3.973227  0
C  C235  1  0.44266734  0.76733385  0.31584781  1  0.520228  0  0.040614  0.09379  0  3.971529  0
C  C236  1  0.45162309  0.55735965  0.18420894  1  0.490067  0  0.041125  0.09437  0  3.971747  0
C  C237  1  0.23265262  0.62686807  0.18415046  1  0.474742  0  0.040876  0.093843  0  3.970669  0
C  C238  1  0.62679105  0.45156720  0.68416992  1  0.479612  0  0.040945  0.093365  0  3.973109  0
C  C239  1  0.55733254  0.23266641  0.68415204  1  0.520221  0  0.040586  0.093705  0  3.971547  0
C  C240  1  0.48280779  0.46172991  0.77303327  1  -0.04512  0  -0.088829  -0.188484  0  3.945386  0
C  C241  1  0.79010484  0.31123068  0.77306482  1  -0.010234  0  -0.0897  -0.189327  0  3.946371  0
C  C242  1  0.31132800  0.48288771  0.27301692  1  0.02329  0  -0.089632  -0.189283  0  3.946132  0
C  C243  1  0.46179648  0.79010845  0.27308189  1  -0.072951  0  -0.088336  -0.185559  0  3.943302  0
C  C244  1  0.51719356  0.53826973  0.22696804  1  -0.044992  0  -0.088852  -0.188513  0  3.945387  0
C  C245  1  0.20989489  0.68876897  0.22693488  1  -0.010222  0  -0.089695  -0.189332  0  3.946404  0
C  C246  1  0.68867239  0.51711133  0.72698344  1  0.023386  0  -0.089641  -0.189267  0  3.946058  0
C  C247  1  0.53820356  0.20989243  0.72691812  1  -0.07294  0  -0.088346  -0.185554  0  3.94329  0
C  C248  1  0.48264540  0.54298297  0.77521934  1  -0.022664  0  0.014132  0.17324  0  3.93195  0
C  C249  1  0.79244683  0.23218194  0.77525773  1  -0.053315  0  0.014486  0.173655  0  3.931437  0
C  C250  1  0.23224298  0.48274854  0.27517821  1  -0.043525  0  0.013773  0.171401  0  3.934186  0
C  C251  1  0.54306425  0.79246507  0.27529592  1  -0.041709  0  0.013849  0.171846  0  3.931856  0
C  C252  1  0.51735545  0.45701790  0.22478147  1  -0.022685  0  0.014108  0.173218  0  3.93196  0
C  C253  1  0.20755230  0.76781719  0.22474200  1  -0.053321  0  0.014487  0.173685  0  3.931335  0
C  C254  1  0.76775716  0.51725111  0.72482190  1  -0.043508  0  0.013776  0.171361  0  3.934134  0
C  C255  1  0.45693535  0.20753590  0.72470426  1  -0.041633  0  0.013824  0.171792  0  3.931809  0
C  C256  1  0.55036513  0.60191910  0.82083868  1  -0.042351  0  -0.090469  -0.190581  0  3.926214  0
C  C257  1  0.77034604  0.21887750  0.82087771  1  -0.082767  0  -0.089823  -0.189271  0  3.92388  0
C  C258  1  0.21892648  0.55046862  0.32078207  1  -0.017251  0  -0.090207  -0.189935  0  3.926063  0
C  C259  1  0.60195549  0.77036699  0.32091758  1  -0.027334  0  -0.090137  -0.190374  0  3.925859  0
C  C260  1  0.44963512  0.39808125  0.17916216  1  -0.04236  0  -0.090477  -0.190575  0  3.9262  0
C  C261  1  0.22965340  0.78112286  0.17912232  1  -0.082769  0  -0.089834  -0.189327  0  3.923774  0
C  C262  1  0.78107395  0.44953033  0.67921771  1  -0.017468  0  -0.090228  -0.189909  0  3.926026  0
C  C263  1  0.39804527  0.22963511  0.67908313  1  -0.02734  0  -0.090158  -0.190448  0  3.925748  0
C  C264  1  0.61343184  0.57773820  0.86162442  1  0.452934  0  0.037522  0.086833  0  3.982314  0
C  C265  1  0.74811885  0.28389437  0.86169257  1  0.48655  0  0.036651  0.084269  0  3.98186  0
C  C266  1  0.28393451  0.61348906  0.36164500  1  0.441869  0  0.036618  0.083908  0  3.982155  0
C  C267  1  0.57773987  0.74811308  0.36170641  1  0.444564  0  0.038023  0.088377  0  3.980312  0
C  C268  1  0.38656930  0.42226197  0.13837607  1  0.45294  0  0.037524  0.086811  0  3.982268  0
C  C269  1  0.25188088  0.71610528  0.13830713  1  0.486563  0  0.036655  0.084269  0  3.981857  0
C  C270  1  0.71606503  0.38651007  0.63835513  1  0.441613  0  0.036635  0.083948  0  3.982194  0
C  C271  1  0.42226057  0.25188780  0.63829400  1  0.444569  0  0.037983  0.088324  0  3.980222  0
C  C272  1  0.41343273  0.56699357  0.73042883  1  -0.02699  0  -0.159005  -0.198122  0  3.95325  0
C  C273  1  0.81688697  0.16337827  0.73046788  1  -0.013239  0  -0.158036  -0.195693  0  3.954472  0
C  C274  1  0.16342008  0.41352943  0.23039855  1  -0.012133  0  -0.157846  -0.194694  0  3.951211  0
C  C275  1  0.56710751  0.81691791  0.23053067  1  0.027433  0  -0.158625  -0.196799  0  3.953025  0
C  C276  1  0.58656696  0.43300617  0.26957145  1  -0.027066  0  -0.159008  -0.198102  0  3.953237  0
C  C277  1  0.18311345  0.83662068  0.26953190  1  -0.01319  0  -0.158021  -0.195673  0  3.954458  0
C  C278  1  0.83658021  0.58647083  0.76960171  1  -0.012131  0  -0.157877  -0.194722  0  3.951215  0
C  C279  1  0.43289284  0.18308419  0.76946964  1  0.027105  0  -0.158581  -0.196637  0  3.952837  0
C  C280  1  0.44082004  0.59301324  0.68629698  1  -0.048751  0  -0.167825  -0.144138  0  3.907441  0
C  C281  1  0.74536132  0.09323398  0.68628700  1  -0.033735  0  -0.167047  -0.139979  0  3.904745  0
C  C282  1  0.09325896  0.44088268  0.18624903  1  -0.023379  0  -0.167052  -0.141282  0  3.904253  0
C  C283  1  0.59307347  0.74539302  0.18634974  1  -0.066456  0  -0.167056  -0.140191  0  3.903861  0
C  C284  1  0.55918021  0.40698711  0.31370386  1  -0.048683  0  -0.167844  -0.144176  0  3.907471  0
C  C285  1  0.25463862  0.90676514  0.31371354  1  -0.033538  0  -0.167047  -0.140016  0  3.904749  0
C  C286  1  0.90674152  0.55911811  0.81375080  1  -0.024363  0  -0.167001  -0.141111  0  3.904168  0
C  C287  1  0.40692646  0.25460716  0.81364953  1  -0.066406  0  -0.1671  -0.140353  0  3.90394  0
C  C288  1  0.36847053  0.61926563  0.64284209  1  0.021419  0  -0.156783  -0.191935  0  3.945437  0
C  C289  1  0.77428734  0.02354870  0.64283627  1  -0.017756  0  -0.157531  -0.195601  0  3.949814  0
C  C290  1  0.02350493  0.36854005  0.14285949  1  0.003059  0  -0.157366  -0.193592  0  3.947154  0
C  C291  1  0.61936112  0.77432437  0.14292231  1  0.0161  0  -0.157183  -0.19537  0  3.950021  0
C  C292  1  0.63153013  0.38073472  0.35715914  1  0.021384  0  -0.156784  -0.191955  0  3.945365  0
C  C293  1  0.22571220  0.97645043  0.35716386  1  -0.017702  0  -0.15754  -0.195681  0  3.94979  0
C  C294  1  0.97649555  0.63146074  0.85714034  1  0.004036  0  -0.157321  -0.193526  0  3.947151  0
C  C295  1  0.38063908  0.22567712  0.85707785  1  0.016107  0  -0.157155  -0.195245  0  3.950078  0
C  C296  1  0.39209546  0.64340698  0.59775165  1  -0.030205  0  0.012825  0.170862  0  3.941931  0
C  C297  1  0.70558183  0.95432058  0.59769923  1  -0.059294  0  0.013758  0.173123  0  3.939114  0
C  C298  1  0.95426443  0.39211934  0.09775309  1  -0.064292  0  0.013147  0.172569  0  3.940865  0
C  C299  1  0.64346164  0.70561983  0.09779128  1  -0.02435  0  0.013174  0.171401  0  3.939554  0
C  C300  1  0.60790510  0.35659459  0.40224949  1  -0.030202  0  0.012773  0.170807  0  3.941927  0
C  C301  1  0.29441831  0.04567907  0.40230088  1  -0.059276  0  0.013784  0.173229  0  3.939025  0
C  C302  1  0.04573601  0.60788153  0.90224732  1  -0.064244  0  0.013112  0.172454  0  3.940881  0
C  C303  1  0.35653796  0.29438113  0.90220891  1  -0.024726  0  0.013173  0.171395  0  3.939668  0
C  C304  1  0.41389042  0.58459511  0.55188962  1  -0.0516  0  -0.095092  -0.199098  0  3.939906  0
C  C305  1  0.63795829  0.96726307  0.55184441  1  -0.098079  0  -0.094168  -0.197243  0  3.937712  0
C  C306  1  0.96721414  0.41389455  0.05189242  1  -0.068277  0  -0.095147  -0.199297  0  3.941856  0
C  C307  1  0.58462604  0.63798171  0.05191813  1  -0.046164  0  -0.094772  -0.197117  0  3.936721  0
C  C308  1  0.58610999  0.41540586  0.44811137  1  -0.051623  0  -0.094981  -0.198893  0  3.939824  0
C  C309  1  0.36204156  0.03273728  0.44815602  1  -0.097694  0  -0.09417  -0.197274  0  3.937678  0
C  C310  1  0.03278675  0.58610624  0.94810781  1  -0.068289  0  -0.095132  -0.199261  0  3.941822  0
C  C311  1  0.41537396  0.36201925  0.94808245  1  -0.046045  0  -0.094822  -0.197177  0  3.936819  0
C  C312  1  0.43666057  0.60912487  0.51144432  1  0.439529  0  0.036476  0.085432  0  3.992258  0
C  C313  1  0.57473262  0.90227396  0.51137043  1  0.491077  0  0.034777  0.081786  0  3.992049  0
C  C314  1  0.90225224  0.43662864  0.01142547  1  0.460568  0  0.035526  0.082501  0  3.993361  0
C  C315  1  0.60910243  0.57478881  0.01141251  1  0.439816  0  0.0366  0.085323  0  3.991515  0
C  C316  1  0.56334028  0.39087601  0.48855649  1  0.439525  0  0.036464  0.085386  0  3.992245  0
C  C317  1  0.42526727  0.09772630  0.48862943  1  0.490657  0  0.034788  0.081767  0  3.992072  0
C  C318  1  0.09774805  0.56337163  0.98857479  1  0.460591  0  0.035536  0.082538  0  3.993306  0
C  C319  1  0.39089742  0.42521154  0.98858792  1  0.440067  0  0.036624  0.085294  0  3.991618  0
C  C320  1  0.41759910  0.74411597  0.55753093  1  0.473922  0  0.04033  0.094989  0  3.972027  0
C  C321  1  0.63986691  0.81335749  0.55743493  1  0.479309  0  0.041133  0.096368  0  3.9717  0
C  C322  1  0.81332332  0.41755628  0.05748342  1  0.492582  0  0.040776  0.096857  0  3.972679  0
C  C323  1  0.74409920  0.63992076  0.05745880  1  0.486973  0  0.0403  0.095124  0  3.971118  0
C  C324  1  0.58240115  0.25588438  0.44246990  1  0.47379  0  0.040305  0.09494  0  3.971942  0
C  C325  1  0.36013257  0.18664278  0.44256452  1  0.479314  0  0.041115  0.096352  0  3.971739  0
C  C326  1  0.18667713  0.58244460  0.94251699  1  0.492251  0  0.040783  0.096884  0  3.972696  0
C  C327  1  0.25590129  0.36008003  0.94254104  1  0.486924  0  0.040314  0.095129  0  3.971148  0
C  C328  1  0.39505024  0.72485867  0.60035944  1  -0.041506  0  -0.090099  -0.191979  0  3.948197  0
C  C329  1  0.70525431  0.87545537  0.60028292  1  -0.00797  0  -0.090709  -0.193363  0  3.948154  0
C  C330  1  0.87539637  0.39503864  0.10033322  1  -0.003172  0  -0.090839  -0.194645  0  3.949099  0
C  C331  1  0.72489101  0.70526855  0.10034315  1  -0.050247  0  -0.08984  -0.19054  0  3.946706  0
C  C332  1  0.60494961  0.27514168  0.39964099  1  -0.041376  0  -0.090106  -0.191987  0  3.948101  0
C  C333  1  0.29474414  0.12454446  0.39971673  1  -0.007973  0  -0.090688  -0.193391  0  3.948051  0
C  C334  1  0.12460492  0.60496215  0.89966742  1  -0.003152  0  -0.09082  -0.194611  0  3.949012  0
C  C335  1  0.27510878  0.29473294  0.89965660  1  -0.050259  0  -0.08985  -0.190573  0  3.9468  0
C  C336  1  0.20176412  0.52784526  0.76200951  1  0.455407  0  0.039159  0.087178  0  3.983203  0
C  C337  1  0.06019207  0.23420922  0.76209999  1  0.461208  0  0.038687  0.086888  0  3.983606  0
C  C338  1  0.23418033  0.20180180  0.26207547  1  0.458632  0  0.039214  0.087544  0  3.982096  0
C  C339  1  0.52778295  0.06018536  0.26210761  1  0.425293  0  0.038439  0.087374  0  3.984191  0
C  C340  1  0.79823602  0.47215439  0.23799060  1  0.455385  0  0.039172  0.087176  0  3.983203  0
C  C341  1  0.93980947  0.76579095  0.23790089  1  0.461028  0  0.038674  0.086758  0  3.983549  0
C  C342  1  0.76582022  0.79819785  0.73792504  1  0.458673  0  0.039218  0.08756  0  3.982039  0
C  C343  1  0.47221545  0.93981456  0.73789262  1  0.42513  0  0.038491  0.087431  0  3.984062  0
C  C344  1  0.26471335  0.59336950  0.80180075  1  -0.03019  0  -0.089602  -0.196317  0  3.968459  0
C  C345  1  0.03709367  0.20852376  0.80192997  1  -0.036693  0  -0.08887  -0.195075  0  3.968446  0
C  C346  1  0.20849913  0.26471573  0.30190885  1  -0.026448  0  -0.089014  -0.196017  0  3.968096  0
C  C347  1  0.59329214  0.03708475  0.30190908  1  0.02292  0  -0.088813  -0.196099  0  3.968009  0
C  C348  1  0.73528691  0.40663085  0.19820009  1  -0.030177  0  -0.089579  -0.196262  0  3.968465  0
C  C349  1  0.96290704  0.79147449  0.19806948  1  -0.03684  0  -0.088819  -0.194884  0  3.968405  0
C  C350  1  0.79150214  0.73528313  0.69809115  1  -0.026442  0  -0.089046  -0.196076  0  3.968068  0
C  C351  1  0.40670734  0.96291552  0.69809037  1  0.023038  0  -0.088866  -0.196205  0  3.968144  0
C  C352  1  0.33284510  0.58252938  0.84836557  1  -0.015132  0  0.014861  0.171627  0  3.947144  0
C  C353  1  0.01551834  0.26594284  0.84847676  1  -0.052787  0  0.015659  0.173221  0  3.943437  0
C  C354  1  0.26591517  0.33284437  0.34848241  1  -0.05004  0  0.014735  0.170848  0  3.9459  0
C  C355  1  0.58244508  0.01549053  0.34846149  1  -0.017281  0  0.015453  0.174404  0  3.943085  0
C  C356  1  0.66715464  0.41747027  0.15163413  1  -0.015195  0  0.014856  0.171584  0  3.947215  0
C  C357  1  0.98448180  0.73405681  0.15152334  1  -0.052643  0  0.015635  0.173082  0  3.943547  0
C  C358  1  0.73408516  0.66715581  0.65151727  1  -0.050075  0  0.014756  0.170906  0  3.945796  0
C  C359  1  0.41755392  0.98450992  0.65153872  1  -0.017306  0  0.015466  0.174418  0  3.94309  0
C  C360  1  0.33325643  0.50450210  0.85241851  1  -0.036782  0  -0.085318  -0.184029  0  3.932844  0
C  C361  1  0.01913888  0.34803376  0.85251742  1  -0.022942  0  -0.085597  -0.185397  0  3.931816  0
C  C362  1  0.34801118  0.33324505  0.35252906  1  -0.04143  0  -0.085209  -0.183462  0  3.931515  0
C  C363  1  0.50440043  0.01909619  0.35250441  1  -0.064404  0  -0.085817  -0.186074  0  3.933567  0
C  C364  1  0.66674430  0.49549808  0.14758157  1  -0.0367  0  -0.085351  -0.184083  0  3.932918  0
C  C365  1  0.98086099  0.65196458  0.14748180  1  -0.022878  0  -0.085584  -0.185352  0  3.931636  0
C  C366  1  0.65198915  0.66675513  0.64747062  1  -0.041421  0  -0.085207  -0.18349  0  3.931467  0
C  C367  1  0.49559876  0.98090478  0.64749537  1  -0.064387  0  -0.085785  -0.186008  0  3.933397  0
C  C368  1  0.26819623  0.44156056  0.81038273  1  0.467123  0  0.045026  0.097341  0  3.955528  0
C  C369  1  0.04211087  0.36887950  0.81044987  1  0.495083  0  0.045595  0.099412  0  3.959558  0
C  C370  1  0.36886302  0.26821356  0.31046032  1  0.495741  0  0.045333  0.098563  0  3.95826  0
C  C371  1  0.44147571  0.04208055  0.31045671  1  0.478166  0  0.046027  0.099834  0  3.956901  0
C  C372  1  0.73180370  0.55843962  0.18961655  1  0.467101  0  0.045004  0.097276  0  3.955601  0
C  C373  1  0.95788923  0.63112024  0.18955081  1  0.495582  0  0.04559  0.099393  0  3.959534  0
C  C374  1  0.63113687  0.73178670  0.68953953  1  0.495812  0  0.045311  0.098568  0  3.95834  0
C  C375  1  0.55852299  0.95791867  0.68954319  1  0.478197  0  0.045985  0.099702  0  3.95692  0
C  C376  1  0.40145141  0.65250925  0.89205532  1  -0.010516  0  -0.156534  -0.203057  0  3.951098  0
C  C377  1  0.99058853  0.23963406  0.89213539  1  -0.014815  0  -0.157848  -0.205946  0  3.948776  0
C  C378  1  0.23961240  0.40146656  0.39213507  1  -0.004379  0  -0.157282  -0.20446  0  3.950471  0
C  C379  1  0.65245030  0.99057015  0.39210796  1  0.009187  0  -0.15726  -0.205874  0  3.948818  0
C  C380  1  0.59854851  0.34749092  0.10794396  1  -0.010611  0  -0.156524  -0.203021  0  3.951078  0
C  C381  1  0.00941134  0.76036428  0.10786383  1  -0.014873  0  -0.157769  -0.205736  0  3.948724  0
C  C382  1  0.76038708  0.59853371  0.60786439  1  -0.004276  0  -0.157239  -0.204364  0  3.950411  0
C  C383  1  0.34754943  0.00942950  0.60789174  1  0.009199  0  -0.157222  -0.205817  0  3.948835  0
C  C384  1  0.37460633  0.72078244  0.93796424  1  -0.003555  0  -0.162743  -0.134606  0  3.923062  0
C  C385  1  0.06333500  0.21721223  0.93799384  1  -0.025017  0  -0.161719  -0.131456  0  3.921574  0
C  C386  1  0.21723839  0.37466323  0.43804600  1  -6.9e-05  0  -0.16221  -0.1329  0  3.923957  0
C  C387  1  0.72075535  0.06334084  0.43793643  1  -0.009019  0  -0.162155  -0.132828  0  3.920842  0
C  C388  1  0.62539340  0.27921721  0.06203547  1  -0.003441  0  -0.162763  -0.134605  0  3.923001  0
C  C389  1  0.93666499  0.78278681  0.06200611  1  -0.024949  0  -0.161774  -0.131611  0  3.921618  0
C  C390  1  0.78276162  0.62533774  0.56195458  1  0.000101  0  -0.162232  -0.132887  0  3.923917  0
C  C391  1  0.27924407  0.93665759  0.56206297  1  -0.008965  0  -0.162151  -0.132765  0  3.920774  0
C  C392  1  0.44500380  0.79298633  0.97982955  1  -0.015032  0  -0.155799  -0.195939  0  3.939871  0
C  C393  1  0.03476058  0.18690701  0.97983841  1  0.002045  0  -0.155842  -0.196669  0  3.941339  0
C  C394  1  0.18694134  0.44511672  0.47988831  1  -0.023976  0  -0.155967  -0.196179  0  3.941782  0
C  C395  1  0.79297872  0.03482796  0.47977611  1  0.004996  0  -0.155821  -0.196229  0  3.939403  0
C  C396  1  0.55499674  0.20701332  0.02017096  1  -0.014993  0  -0.155766  -0.195997  0  3.93983  0
C  C397  1  0.96524001  0.81309256  0.02016152  1  0.002042  0  -0.155853  -0.19669  0  3.941348  0
C  C398  1  0.81305984  0.55488337  0.52011160  1  -0.024098  0  -0.155983  -0.196292  0  3.94175  0
C  C399  1  0.20702145  0.96517160  0.52022342  1  0.004978  0  -0.155828  -0.196202  0  3.939385  0
C  C400  1  0.42148948  0.86094625  0.02601613  1  -0.023192  0  0.009825  0.169338  0  3.950129  0
C  C401  1  0.10445742  0.16511867  0.02598429  1  -0.043217  0  0.01055  0.169568  0  3.951088  0
C  C402  1  0.16520009  0.42161530  0.52608018  1  -0.041535  0  0.010256  0.168156  0  3.951884  0
C  C403  1  0.86093570  0.10453470  0.52593126  1  -0.035938  0  0.010533  0.170213  0  3.949871  0
C  C404  1  0.57850969  0.13905279  0.97398302  1  -0.023382  0  0.009876  0.169501  0  3.950055  0
C  C405  1  0.89554316  0.83488089  0.97401563  1  -0.043218  0  0.010547  0.169538  0  3.95113  0
C  C406  1  0.83480069  0.57838479  0.47391932  1  -0.041541  0  0.010298  0.16823  0  3.951841  0
C  C407  1  0.13906399  0.89546504  0.47406903  1  -0.036064  0  0.010533  0.1702  0  3.949776  0
C  C408  1  0.42232354  0.94151991  0.02665884  1  -0.058036  0  -0.095494  -0.204973  0  3.975864  0
C  C409  1  0.10422832  0.08518107  0.02660601  1  -0.005076  0  -0.09487  -0.203459  0  3.97382  0
C  C410  1  0.08526811  0.42245473  0.52672071  1  -0.024173  0  -0.095111  -0.20299  0  3.974192  0
C  C411  1  0.94151639  0.10432534  0.52656604  1  -0.067127  0  -0.095527  -0.205258  0  3.973709  0
C  C412  1  0.57767420  0.05847870  0.97334010  1  -0.058366  0  -0.095527  -0.205038  0  3.975876  0
C  C413  1  0.89577153  0.91481929  0.97339443  1  -0.004936  0  -0.09487  -0.203455  0  3.973815  0
C  C414  1  0.91473137  0.57754554  0.47327874  1  -0.024269  0  -0.095086  -0.202937  0  3.974252  0
C  C415  1  0.05848435  0.89567484  0.47343404  1  -0.06711  0  -0.095502  -0.205328  0  3.974215  0
C  C416  1  0.40030225  0.00281978  0.07033004  1  0.513535  0  0.038621  0.092641  0  3.983714  0
C  C417  1  0.16992214  0.06754159  0.07026046  1  0.482567  0  0.038974  0.09258  0  3.981716  0
C  C418  1  0.06763530  0.40037237  0.57036276  1  0.471116  0  0.038178  0.09164  0  3.983305  0
C  C419  1  0.00282155  0.17001082  0.57025885  1  0.498822  0  0.039464  0.093761  0  3.981267  0
C  C420  1  0.59969556  0.99717865  0.92966775  1  0.513963  0  0.038609  0.092612  0  3.983679  0
C  C421  1  0.83007756  0.93245815  0.92973982  1  0.482429  0  0.038946  0.092547  0  3.981564  0
C  C422  1  0.93236401  0.59962834  0.42963529  1  0.471164  0  0.038133  0.091617  0  3.983242  0
C  C423  1  0.99717890  0.82999005  0.42974156  1  0.498811  0  0.0394  0.092621  0  3.981111  0
C  C424  1  0.37415070  0.90985281  0.11105307  1  0.429688  0  0.038674  0.090352  0  3.972719  0
C  C425  1  0.23688662  0.20120178  0.11094314  1  0.477776  0  0.039507  0.091124  0  3.974508  0
C  C426  1  0.20129912  0.37414444  0.61103571  1  0.466123  0  0.039715  0.09115  0  3.973164  0
C  C427  1  0.90986424  0.23690426  0.61098849  1  0.460269  0  0.039189  0.09111  0  3.971551  0
C  C428  1  0.62584726  0.09014624  0.88894487  1  0.429728  0  0.038665  0.090365  0  3.972672  0
C  C429  1  0.76311349  0.79879796  0.88905755  1  0.477772  0  0.039496  0.091147  0  3.974494  0
C  C430  1  0.79869910  0.62585399  0.38896248  1  0.465876  0  0.039717  0.091183  0  3.973038  0
C  C431  1  0.09013574  0.76309478  0.38901146  1  0.460011  0  0.039155  0.091057  0  3.971539  0
C  C432  1  0.39670341  0.84563676  0.06982053  1  -0.033136  0  -0.092423  -0.192265  0  3.930348  0
C  C433  1  0.17309022  0.22421146  0.06974666  1  -0.092781  0  -0.092534  -0.193009  0  3.932352  0
C  C434  1  0.22429540  0.39675814  0.56983643  1  -0.072938  0  -0.092749  -0.193146  0  3.932227  0
C  C435  1  0.84564771  0.17312103  0.56974388  1  -0.036212  0  -0.092839  -0.193622  0  3.930955  0
C  C436  1  0.60329485  0.15436255  0.93017955  1  -0.032975  0  -0.092427  -0.192332  0  3.930461  0
C  C437  1  0.82691007  0.77578880  0.93025359  1  -0.09279  0  -0.092511  -0.19297  0  3.932336  0
C  C438  1  0.77570318  0.60324037  0.43016274  1  -0.072722  0  -0.092793  -0.193271  0  3.932207  0
C  C439  1  0.15435187  0.82687801  0.43025567  1  -0.036068  0  -0.092829  -0.193611  0  3.93084  0
N  N440  1  0.61255448  0.49960324  0.85947547  1  -1.242865  0  -0.338264  -0.244683  0  3.540351  0
N  N441  1  0.74688688  0.35987606  0.85954914  1  -1.234566  0  -0.336492  -0.241347  0  3.53779  0
N  N442  1  0.35994437  0.61258012  0.35953541  1  -1.260568  0  -0.336286  -0.24009  0  3.537955  0
N  N443  1  0.49959349  0.74687156  0.35954650  1  -1.247032  0  -0.337847  -0.244592  0  3.539504  0
N  N444  1  0.38744710  0.50039684  0.14052483  1  -1.243081  0  -0.338257  -0.244665  0  3.540279  0
N  N445  1  0.25311301  0.64012421  0.14045072  1  -1.234567  0  -0.336475  -0.24129  0  3.537765  0
N  N446  1  0.64005576  0.38741953  0.64046470  1  -1.260305  0  -0.33632  -0.240214  0  3.537986  0
N  N447  1  0.50040699  0.25312923  0.64045334  1  -1.247045  0  -0.337799  -0.244487  0  3.539404  0
N  N448  1  0.43812001  0.68732961  0.51380896  1  -1.237817  0  -0.336135  -0.24073  0  3.534999  0
N  N449  1  0.57564278  0.82641737  0.51372743  1  -1.231308  0  -0.33464  -0.23728  0  3.533403  0
N  N450  1  0.82639321  0.43807498  0.01377215  1  -1.250565  0  -0.334883  -0.238225  0  3.534146  0
N  N451  1  0.68728625  0.57569172  0.01373178  1  -1.236478  0  -0.336126  -0.240841  0  3.533766  0
N  N452  1  0.56187981  0.31267083  0.48619206  1  -1.237801  0  -0.33617  -0.240756  0  3.534962  0
N  N453  1  0.42435599  0.17358167  0.48627131  1  -1.231229  0  -0.334633  -0.237252  0  3.533575  0
N  N454  1  0.17360723  0.56192590  0.98622826  1  -1.250257  0  -0.334928  -0.238291  0  3.534173  0
N  N455  1  0.31271375  0.42430925  0.98626881  1  -1.236449  0  -0.33611  -0.240805  0  3.533861  0
N  N456  1  0.20359065  0.45291708  0.76596810  1  -1.246638  0  -0.330778  -0.233293  0  3.514171  0
N  N457  1  0.06228419  0.31308801  0.76602488  1  -1.239112  0  -0.331443  -0.234831  0  3.514011  0
N  N458  1  0.31306294  0.20362979  0.26601216  1  -1.237844  0  -0.33175  -0.235215  0  3.514605  0
N  N459  1  0.45282915  0.06227454  0.26603615  1  -1.238726  0  -0.331398  -0.235199  0  3.513575  0
N  N460  1  0.79640964  0.54708319  0.23403216  1  -1.246601  0  -0.330838  -0.233366  0  3.514233  0
N  N461  1  0.93771679  0.68691155  0.23397545  1  -1.239121  0  -0.331446  -0.234791  0  3.514059  0
N  N462  1  0.68693664  0.79636925  0.73398739  1  -1.237834  0  -0.331734  -0.235211  0  3.514671  0
N  N463  1  0.54716945  0.93772590  0.73396366  1  -1.238742  0  -0.331408  -0.235202  0  3.513506  0
N  N464  1  0.37626331  0.98725982  0.11175397  1  -1.239685  0  -0.332291  -0.23645  0  3.519514  0
N  N465  1  0.23542227  0.12450151  0.11165337  1  -1.239463  0  -0.333259  -0.236426  0  3.517952  0
N  N466  1  0.12459014  0.37626598  0.61174027  1  -1.231601  0  -0.33275  -0.2358  0  3.517304  0
N  N467  1  0.98727517  0.23547334  0.61168315  1  -1.235435  0  -0.332901  -0.23702  0  3.518421  0
N  N468  1  0.62373377  0.01273940  0.88824432  1  -1.239795  0  -0.332257  -0.236398  0  3.519495  0
N  N469  1  0.76457699  0.87549832  0.88834709  1  -1.239453  0  -0.333236  -0.236418  0  3.517835  0
N  N470  1  0.87540723  0.62373254  0.38825769  1  -1.23161  0  -0.332762  -0.235813  0  3.517262  0
N  N471  1  0.01272437  0.76452578  0.38831698  1  -1.235151  0  -0.332834  -0.237111  0  3.519068  0
Cl  Cl472  1  0.61245912  0.36254155  0.93818752  1  -0.720191  0  -0.343496  -0.568933  0  1.078517  0
Cl  Cl473  1  0.82570633  0.57561576  0.93819566  1  -0.720157  0  -0.343514  -0.569357  0  1.078693  0
Cl  Cl474  1  0.57560375  0.61245724  0.43817167  1  -0.716993  0  -0.34342  -0.569314  0  1.078937  0
Cl  Cl475  1  0.36249672  0.82566891  0.43817401  1  -0.717777  0  -0.34359  -0.569457  0  1.078478  0
Cl  Cl476  1  0.38754092  0.63745932  0.06181248  1  -0.7202  0  -0.343496  -0.568934  0  1.078539  0
Cl  Cl477  1  0.17429496  0.42438502  0.06180498  1  -0.720144  0  -0.343504  -0.569327  0  1.078675  0
Cl  Cl478  1  0.42439570  0.38754312  0.56182836  1  -0.716988  0  -0.343423  -0.569312  0  1.078932  0
Cl  Cl479  1  0.63750317  0.17433136  0.56182584  1  -0.717777  0  -0.343589  -0.56946  0  1.078489  0
Cl  Cl480  1  0.99090510  0.45441993  0.68938817  1  -0.733225  0  -0.397196  -0.610089  0  0.975987  0
Cl  Cl481  1  0.19846928  0.23490778  0.68941970  1  -0.731923  0  -0.397259  -0.609864  0  0.976177  0
Cl  Cl482  1  0.23482038  0.99095284  0.18936287  1  -0.731771  0  -0.397272  -0.610156  0  0.976295  0
Cl  Cl483  1  0.45446690  0.19846518  0.18945578  1  -0.731085  0  -0.397112  -0.609962  0  0.97619  0
Cl  Cl484  1  0.00909564  0.54558024  0.31061191  1  -0.733219  0  -0.397189  -0.610086  0  0.975997  0
Cl  Cl485  1  0.80153045  0.76509187  0.31058000  1  -0.731939  0  -0.397259  -0.609968  0  0.97645  0
Cl  Cl486  1  0.76517932  0.00904690  0.81063741  1  -0.731778  0  -0.397278  -0.610167  0  0.976297  0
Cl  Cl487  1  0.54553349  0.80153386  0.81054458  1  -0.731073  0  -0.397112  -0.609978  0  0.976207  0
