# generated using pymatgen
data_ZnH17C28N3O2
_symmetry_space_group_name_H-M   'P 1'
_cell_length_a   23.71866009
_cell_length_b   23.71868569
_cell_length_c   30.70395902
_cell_angle_alpha   110.59921746
_cell_angle_beta   110.59957504
_cell_angle_gamma   95.16769074
_symmetry_Int_Tables_number   1
_chemical_formula_structural   ZnH17C28N3O2
_chemical_formula_sum   'Zn8 H136 C224 N24 O16'
_cell_volume   14677.39115396
_cell_formula_units_Z   8
loop_
 _symmetry_equiv_pos_site_id
 _symmetry_equiv_pos_as_xyz
  1  'x, y, z'
loop_
 _atom_site_type_symbol
 _atom_site_label
 _atom_site_symmetry_multiplicity
 _atom_site_fract_x
 _atom_site_fract_y
 _atom_site_fract_z
 _atom_site_occupancy
 _atom_site_pbe_bader_charge
 _atom_site_pbe_bader_spin_density
 _atom_site_pbe_cm5_charge
 _atom_site_pbe_ddec_charge
 _atom_site_pbe_ddec_spin_density
 _atom_site_pbe_ddec_sum_bond_order
 _atom_site_pbe_magmom
Zn  Zn0  1  0.36831376  0.11840140  0.73666113  1  1.228619  0  0.697281  0.609853  0  2.538044  0
Zn  Zn1  1  0.88160105  0.63168865  0.76334332  1  1.228675  0  0.697348  0.609935  0  2.537966  0
Zn  Zn2  1  0.63168877  0.88160046  0.26334025  1  1.22862  0  0.697331  0.609934  0  2.537909  0
Zn  Zn3  1  0.11839881  0.36831000  0.23665586  1  1.228647  0  0.697375  0.609998  0  2.537988  0
Zn  Zn4  1  0.90163211  0.15157043  0.80316689  1  1.273221  0  0.664135  0.813708  0  2.447694  0
Zn  Zn5  1  0.84842773  0.09836508  0.69682702  1  1.284431  0  0.664087  0.813606  0  2.447889  0
Zn  Zn6  1  0.09836852  0.84842973  0.19683166  1  1.273226  0  0.66411  0.813594  0  2.447876  0
Zn  Zn7  1  0.15157074  0.90163538  0.30317262  1  1.284426  0  0.664118  0.813681  0  2.447839  0
H  H8  1  0.46349718  0.92618027  0.74315517  1  0.07638  0  0.102955  0.123087  0  1.01129  0
H  H9  1  0.55481657  0.00846063  0.74868109  1  0.098062  0  0.103441  0.124051  0  1.009783  0
H  H10  1  0.57898876  0.23447759  0.74906250  1  0.08293  0  0.102982  0.122132  0  1.011965  0
H  H11  1  0.50488072  0.31394677  0.74358347  1  0.088951  0  0.103169  0.122652  0  1.010571  0
H  H12  1  0.54737966  0.07960680  0.66663552  1  0.046621  0  0.096388  0.096152  0  1.003172  0
H  H13  1  0.65305851  0.07826378  0.66669253  1  0.059814  0  0.099603  0.100807  0  1.011071  0
H  H14  1  0.73537426  0.16049081  0.83019769  1  0.095675  0  0.102894  0.10684  0  1.003192  0
H  H15  1  0.62982227  0.16180858  0.83066735  1  0.054439  0  0.102309  0.105256  0  0.991855  0
H  H16  1  0.39007253  0.93431967  0.81815041  1  0.059271  0  0.102521  0.103957  0  0.991624  0
H  H17  1  0.37662864  0.82517101  0.80988630  1  0.044395  0  0.099246  0.094192  0  0.995727  0
H  H18  1  0.32615773  0.73743967  0.72375827  1  0.056809  0  0.097081  0.091716  0  1.002588  0
H  H19  1  0.28838292  0.75948487  0.64617989  1  0.070201  0  0.09916  0.094709  0  0.995047  0
H  H20  1  0.30154454  0.86879254  0.65491206  1  0.054938  0  0.098519  0.098723  0  0.999723  0
H  H21  1  0.26920264  0.90810703  0.38437914  1  0.117315  0  0.130246  0.106606  0  0.978318  0
H  H22  1  0.32061699  0.95387945  0.47914244  1  0.076727  0  0.113241  0.116754  0  1.002879  0
H  H23  1  0.20238729  0.07342987  0.55478476  1  0.070598  0  0.111628  0.115286  0  1.003312  0
H  H24  1  0.25303420  0.11810710  0.64927227  1  0.105468  0  0.122279  0.093138  0  1.000762  0
H  H25  1  0.27939767  0.31693823  0.74277100  1  0.083015  0  0.10296  0.123149  0  1.012205  0
H  H26  1  0.19381424  0.24032165  0.74860916  1  0.080367  0  0.103145  0.12359  0  1.010126  0
H  H27  1  0.17005477  0.01476007  0.74907536  1  0.09436  0  0.103267  0.123293  0  1.01067  0
H  H28  1  0.23863213  0.92974068  0.74346498  1  0.084582  0  0.103252  0.122804  0  1.010125  0
H  H29  1  0.11925191  0.08701472  0.66673114  1  0.07388  0  0.096453  0.095932  0  1.003124  0
H  H30  1  0.01361659  0.08828729  0.66680037  1  0.064741  0  0.099783  0.100983  0  1.011652  0
H  H31  1  0.09497728  0.16973477  0.83029098  1  0.083543  0  0.102806  0.107042  0  1.001849  0
H  H32  1  0.20106191  0.16913859  0.83079299  1  0.068142  0  0.102341  0.105306  0  0.991817  0
H  H33  1  0.42803950  0.38398389  0.81808104  1  0.079516  0  0.102668  0.104411  0  0.991594  0
H  H34  1  0.43318298  0.48489437  0.80988611  1  0.040063  0  0.099213  0.094509  0  0.996183  0
H  H35  1  0.39755932  0.48649282  0.72377100  1  0.05138  0  0.097432  0.092078  0  1.002804  0
H  H36  1  0.35780051  0.38679392  0.64615341  1  0.05564  0  0.099231  0.094716  0  0.996135  0
H  H37  1  0.35342210  0.28620807  0.65487980  1  0.050005  0  0.098514  0.098247  0  1.00068  0
H  H38  1  0.11516467  0.97635197  0.38435810  1  0.117893  0  0.130081  0.106378  0  0.977995  0
H  H39  1  0.15856275  0.02534425  0.47912811  1  0.051262  0  0.113241  0.116994  0  1.002471  0
H  H40  1  0.35245379  0.98149573  0.55480157  1  0.054997  0  0.111682  0.114759  0  1.002975  0
H  H41  1  0.39620453  0.03113284  0.64930463  1  0.096049  0  0.122159  0.092774  0  1.000595  0
H  H42  1  0.07382145  0.53650305  0.75684530  1  0.076315  0  0.102928  0.123032  0  1.011316  0
H  H43  1  0.99154016  0.44518525  0.75132150  1  0.098089  0  0.103471  0.124067  0  1.009801  0
H  H44  1  0.76552264  0.42101256  0.75093808  1  0.082907  0  0.102987  0.122119  0  1.011982  0
H  H45  1  0.68605564  0.49512327  0.75642043  1  0.088916  0  0.103184  0.122663  0  1.010571  0
H  H46  1  0.92039005  0.45261945  0.83336907  1  0.046584  0  0.096413  0.096175  0  1.003141  0
H  H47  1  0.92173793  0.34694087  0.83330899  1  0.059705  0  0.099628  0.100806  0  1.011163  0
H  H48  1  0.83951391  0.26463067  0.66980802  1  0.095833  0  0.102941  0.106903  0  1.0033  0
H  H49  1  0.83819156  0.37018084  0.66933722  1  0.053977  0  0.10237  0.105319  0  0.991856  0
H  H50  1  0.06567964  0.60992670  0.68184733  1  0.059166  0  0.102501  0.103948  0  0.991667  0
H  H51  1  0.17482657  0.62337006  0.69011050  1  0.043935  0  0.099262  0.094251  0  0.995717  0
H  H52  1  0.26256230  0.67384147  0.77623800  1  0.056756  0  0.097087  0.091741  0  1.002567  0
H  H53  1  0.24051850  0.71161851  0.85381744  1  0.070306  0  0.099231  0.094745  0  0.995076  0
H  H54  1  0.13121326  0.69845670  0.84508622  1  0.055161  0  0.098557  0.098744  0  0.999742  0
H  H55  1  0.09188874  0.73079805  0.11562194  1  0.11722  0  0.130215  0.106504  0  0.978352  0
H  H56  1  0.04611735  0.67938158  0.02085932  1  0.077062  0  0.113195  0.116701  0  1.002886  0
H  H57  1  0.92657138  0.79761199  0.94521442  1  0.070538  0  0.111584  0.115263  0  1.003319  0
H  H58  1  0.88189269  0.74696173  0.85072623  1  0.102412  0  0.122267  0.09312  0  1.000657  0
H  H59  1  0.68306182  0.72060432  0.75723055  1  0.082989  0  0.102954  0.123134  0  1.012223  0
H  H60  1  0.75968022  0.80618677  0.75139183  1  0.080333  0  0.10312  0.123527  0  1.010157  0
H  H61  1  0.98524382  0.82994807  0.75092814  1  0.094146  0  0.103253  0.123311  0  1.010719  0
H  H62  1  0.07026454  0.76137085  0.75654038  1  0.08419  0  0.103231  0.122813  0  1.010028  0
H  H63  1  0.91298759  0.88074840  0.83326836  1  0.073899  0  0.09645  0.095953  0  1.003182  0
H  H64  1  0.91171644  0.98638310  0.83320015  1  0.064768  0  0.099825  0.101043  0  1.011651  0
H  H65  1  0.83026460  0.90502621  0.66971198  1  0.083365  0  0.102824  0.107096  0  1.00183  0
H  H66  1  0.83085439  0.79893936  0.66920576  1  0.068235  0  0.102296  0.10522  0  0.991897  0
H  H67  1  0.61601661  0.57196166  0.68192051  1  0.079577  0  0.10264  0.104379  0  0.991628  0
H  H68  1  0.51510545  0.56681625  0.69011427  1  0.04007  0  0.09923  0.094505  0  0.996213  0
H  H69  1  0.51350590  0.60243985  0.77622843  1  0.051311  0  0.0974  0.092022  0  1.002845  0
H  H70  1  0.61320352  0.64219882  0.85384561  1  0.055642  0  0.09925  0.094747  0  0.996108  0
H  H71  1  0.71378967  0.64657929  0.84512266  1  0.049962  0  0.098518  0.098249  0  1.000637  0
H  H72  1  0.02364509  0.88483437  0.11563904  1  0.117915  0  0.130083  0.10636  0  0.978049  0
H  H73  1  0.97465333  0.84143786  0.02087021  1  0.051208  0  0.113217  0.11697  0  1.002506  0
H  H74  1  0.01850271  0.64754531  0.94520120  1  0.054886  0  0.111713  0.114856  0  1.002963  0
H  H75  1  0.96886689  0.60379213  0.85069839  1  0.095955  0  0.122226  0.092811  0  1.000625  0
H  H76  1  0.53650279  0.07382215  0.25684598  1  0.076301  0  0.10293  0.123018  0  1.011274  0
H  H77  1  0.44518562  0.99154141  0.25132181  1  0.098088  0  0.103433  0.124041  0  1.009807  0
H  H78  1  0.42101547  0.76552447  0.25093920  1  0.082954  0  0.102981  0.122145  0  1.011913  0
H  H79  1  0.49512404  0.68605627  0.25641876  1  0.089033  0  0.103247  0.122764  0  1.010524  0
H  H80  1  0.45262052  0.92039148  0.33336722  1  0.046653  0  0.096397  0.096145  0  1.003133  0
H  H81  1  0.34694290  0.92174117  0.33330912  1  0.059679  0  0.099614  0.100775  0  1.011062  0
H  H82  1  0.26463066  0.83951419  0.16980470  1  0.095828  0  0.102936  0.106849  0  1.003285  0
H  H83  1  0.37018157  0.83819135  0.16933582  1  0.053878  0  0.102332  0.105283  0  0.991898  0
H  H84  1  0.60992662  0.06567927  0.18184759  1  0.059195  0  0.102508  0.103944  0  0.991661  0
H  H85  1  0.62336937  0.17482704  0.19011147  1  0.044241  0  0.099236  0.094152  0  0.995755  0
H  H86  1  0.67384068  0.26256088  0.27623851  1  0.056843  0  0.097105  0.091765  0  1.002604  0
H  H87  1  0.71161616  0.24051669  0.35381803  1  0.070313  0  0.099206  0.094751  0  0.995018  0
H  H88  1  0.69845545  0.13121057  0.34508584  1  0.055094  0  0.098552  0.098765  0  0.999691  0
H  H89  1  0.73079820  0.09189259  0.61562101  1  0.117327  0  0.130259  0.106609  0  0.978334  0
H  H90  1  0.67938234  0.04611703  0.52085761  1  0.07706  0  0.113193  0.11668  0  1.002888  0
H  H91  1  0.79761345  0.92657082  0.44521623  1  0.070563  0  0.111631  0.115264  0  1.00341  0
H  H92  1  0.74696750  0.88189539  0.35072782  1  0.105347  0  0.122272  0.093147  0  1.000768  0
H  H93  1  0.72060447  0.68306184  0.25722813  1  0.083023  0  0.102958  0.12315  0  1.012204  0
H  H94  1  0.80618667  0.75968015  0.25138967  1  0.080315  0  0.103146  0.123595  0  1.010156  0
H  H95  1  0.82994709  0.98524283  0.25092582  1  0.094282  0  0.103263  0.123297  0  1.010713  0
H  H96  1  0.76137057  0.07026401  0.25653890  1  0.084197  0  0.103219  0.122768  0  1.010067  0
H  H97  1  0.88074602  0.91298321  0.33326888  1  0.073877  0  0.096441  0.095946  0  1.003108  0
H  H98  1  0.98638232  0.91170838  0.33320111  1  0.064671  0  0.099823  0.101039  0  1.011606  0
H  H99  1  0.90502603  0.83026418  0.16971165  1  0.083354  0  0.10282  0.107099  0  1.001821  0
H  H100  1  0.79894007  0.83085988  0.16920646  1  0.068267  0  0.102339  0.105332  0  0.991843  0
H  H101  1  0.57196171  0.61601511  0.18191996  1  0.079557  0  0.102666  0.104432  0  0.991654  0
H  H102  1  0.56681772  0.51510607  0.19011577  1  0.040383  0  0.099209  0.094511  0  0.996188  0
H  H103  1  0.60244067  0.51350792  0.27622971  1  0.05139  0  0.097402  0.092005  0  1.002824  0
H  H104  1  0.64219926  0.61320579  0.35384660  1  0.055633  0  0.09924  0.094739  0  0.99613  0
H  H105  1  0.64657822  0.71379095  0.34512030  1  0.050016  0  0.098515  0.098253  0  1.000673  0
H  H106  1  0.88483757  0.02364826  0.61564300  1  0.117837  0  0.13006  0.106303  0  0.978013  0
H  H107  1  0.84143892  0.97465631  0.52087242  1  0.051237  0  0.113227  0.116974  0  1.002457  0
H  H108  1  0.64754590  0.01850182  0.44519976  1  0.054958  0  0.111682  0.114773  0  1.002967  0
H  H109  1  0.60379562  0.96886831  0.35069716  1  0.096001  0  0.122167  0.092774  0  1.0006  0
H  H110  1  0.92617843  0.46349715  0.24315295  1  0.076038  0  0.102939  0.123036  0  1.011263  0
H  H111  1  0.00845831  0.55481435  0.24867581  1  0.098053  0  0.103452  0.124073  0  1.009743  0
H  H112  1  0.23448008  0.57898926  0.24906675  1  0.082997  0  0.102957  0.1221  0  1.011963  0
H  H113  1  0.31394643  0.50487791  0.24358375  1  0.088971  0  0.103194  0.122704  0  1.010561  0
H  H114  1  0.07960934  0.54737969  0.16663150  1  0.046602  0  0.096432  0.096222  0  1.003062  0
H  H115  1  0.07825617  0.65305704  0.16669045  1  0.05958  0  0.099633  0.100768  0  1.011158  0
H  H116  1  0.16047862  0.73537033  0.33019124  1  0.097653  0  0.102924  0.106885  0  1.003307  0
H  H117  1  0.16180827  0.62982154  0.33066332  1  0.053985  0  0.102312  0.105263  0  0.991769  0
H  H118  1  0.93431792  0.39007254  0.31814860  1  0.059312  0  0.102526  0.103984  0  0.991646  0
H  H119  1  0.82517144  0.37662594  0.30988635  1  0.044421  0  0.099255  0.094215  0  0.995704  0
H  H120  1  0.73743632  0.32615288  0.22375946  1  0.056785  0  0.097059  0.0917  0  1.002604  0
H  H121  1  0.75948019  0.28837646  0.14617962  1  0.070186  0  0.099191  0.094777  0  0.995134  0
H  H122  1  0.86878577  0.30154016  0.15491025  1  0.05501  0  0.098503  0.098689  0  0.999721  0
H  H123  1  0.90810805  0.26920140  0.88437927  1  0.117326  0  0.130246  0.106581  0  0.978346  0
H  H124  1  0.95388145  0.32061802  0.97914204  1  0.076734  0  0.113216  0.1167  0  1.00289  0
H  H125  1  0.07342522  0.20238390  0.05478333  1  0.070531  0  0.111631  0.11528  0  1.003402  0
H  H126  1  0.11810680  0.25303226  0.14927165  1  0.105446  0  0.122271  0.093164  0  1.0008  0
H  H127  1  0.31693934  0.27939563  0.24276993  1  0.082944  0  0.102968  0.12317  0  1.012195  0
H  H128  1  0.24032099  0.19381429  0.24861009  1  0.080337  0  0.103147  0.123577  0  1.010152  0
H  H129  1  0.01475581  0.17005161  0.24907127  1  0.09408  0  0.103248  0.123253  0  1.010705  0
H  H130  1  0.92973609  0.23863017  0.24346049  1  0.084101  0  0.103228  0.12278  0  1.010057  0
H  H131  1  0.08701328  0.11925111  0.16673043  1  0.073841  0  0.096466  0.095946  0  1.003123  0
H  H132  1  0.08828693  0.01361679  0.16679836  1  0.064722  0  0.099818  0.101046  0  1.011623  0
H  H133  1  0.16973527  0.09497400  0.33028627  1  0.083465  0  0.102832  0.107146  0  1.001768  0
H  H134  1  0.16914146  0.20106018  0.33079171  1  0.068348  0  0.102329  0.10528  0  0.991791  0
H  H135  1  0.38398431  0.42804014  0.31807833  1  0.079521  0  0.102661  0.104439  0  0.991579  0
H  H136  1  0.48489430  0.43318428  0.30988386  1  0.040098  0  0.099188  0.094462  0  0.996224  0
H  H137  1  0.48649241  0.39756021  0.22377012  1  0.051327  0  0.097407  0.092009  0  1.002807  0
H  H138  1  0.38679377  0.35780001  0.14615284  1  0.055626  0  0.099224  0.094711  0  0.996143  0
H  H139  1  0.28620877  0.35342130  0.15487833  1  0.049982  0  0.098503  0.09824  0  1.000634  0
H  H140  1  0.97634545  0.11516238  0.88435822  1  0.117879  0  0.130045  0.106277  0  0.978028  0
H  H141  1  0.02534064  0.15855797  0.97912770  1  0.051152  0  0.113227  0.116979  0  1.002432  0
H  H142  1  0.98149584  0.35245253  0.05479851  1  0.054919  0  0.111693  0.114819  0  1.002914  0
H  H143  1  0.03113041  0.39620228  0.14930193  1  0.095967  0  0.122177  0.092764  0  1.000599  0
C  C144  1  0.41185428  0.00165027  0.74377626  1  0.402094  0  0.085287  0.179817  0  4.06016  0
C  C145  1  0.46300268  0.97240141  0.74430609  1  -0.07181  0  -0.110666  -0.189535  0  3.994113  0
C  C146  1  0.50927659  0.01410307  0.74701356  1  -0.095926  0  -0.110626  -0.18986  0  3.993939  0
C  C147  1  0.48639419  0.06889297  0.74761280  1  0.49363  0  0.083288  0.174828  0  4.07196  0
C  C148  1  0.51915644  0.12205139  0.74840085  1  -0.063535  0  -0.00517  -0.086632  0  3.94839  0
C  C149  1  0.49759934  0.17522571  0.74755384  1  0.459188  0  0.086038  0.18389  0  4.061567  0
C  C150  1  0.53214753  0.22862617  0.74722786  1  -0.066809  0  -0.109086  -0.18615  0  3.989153  0
C  C151  1  0.49463992  0.26894441  0.74453386  1  -0.118233  0  -0.10885  -0.186637  0  3.989269  0
C  C152  1  0.43724118  0.24065849  0.74368587  1  0.454129  0  0.086129  0.184612  0  4.05563  0
C  C153  1  0.35524439  0.97414989  0.74170386  1  0.02415  0  -0.00247  -0.076939  0  3.930298  0
C  C154  1  0.58206298  0.12103569  0.74867700  1  0.022205  0  -0.001636  0.096405  0  4.017674  0
C  C155  1  0.58874900  0.09730985  0.70248054  1  -0.059027  0  -0.095165  -0.145469  0  4.004874  0
C  C156  1  0.64727754  0.09658500  0.70233161  1  -0.020415  0  -0.088961  -0.090095  0  4.001685  0
C  C157  1  0.70023107  0.11964206  0.74842554  1  -0.036784  0  -0.021755  -0.037904  0  3.981965  0
C  C158  1  0.69374848  0.14293598  0.79465898  1  -0.04932  0  -0.085179  -0.085608  0  3.990759  0
C  C159  1  0.63512620  0.14361062  0.79475707  1  -0.052669  0  -0.091786  -0.141882  0  3.990023  0
C  C160  1  0.76324016  0.12021973  0.74814557  1  1.57409  0  0.212568  0.592003  0  4.1786  0
C  C161  1  0.34669871  0.90871434  0.73708378  1  0.055235  0  -0.005885  0.086942  0  4.010881  0
C  C162  1  0.36767773  0.89581816  0.78050528  1  -0.089038  0  -0.090847  -0.135989  0  3.978103  0
C  C163  1  0.36022794  0.83452946  0.77576155  1  -0.058824  0  -0.097079  -0.086165  0  4.053069  0
C  C164  1  0.33184333  0.78531288  0.72749920  1  -0.070164  0  -0.100328  -0.099012  0  4.056508  0
C  C165  1  0.31068155  0.79767730  0.68400387  1  -0.072783  0  -0.097686  -0.086129  0  4.052363  0
C  C166  1  0.31799659  0.85896903  0.68880642  1  -0.025832  0  -0.093665  -0.14048  0  3.986942  0
C  C167  1  0.24683884  0.93446763  0.40751777  1  0.417154  0  0.064293  0.108159  0  3.91902  0
C  C168  1  0.27486180  0.96038103  0.46049104  1  0.084932  0  -0.077345  -0.174156  0  3.945354  0
C  C169  1  0.24525043  0.06194556  0.57339884  1  -0.068715  0  -0.078616  -0.171483  0  3.944668  0
C  C170  1  0.27322513  0.08740375  0.62642871  1  0.57913  0  0.057236  0.101174  0  3.937255  0
C  C171  1  0.33175541  0.24216661  0.74349532  1  0.46305  0  0.084464  0.178638  0  4.060128  0
C  C172  1  0.28109805  0.27190123  0.74396989  1  -0.068574  0  -0.109893  -0.188414  0  3.995132  0
C  C173  1  0.23764410  0.23298751  0.74685554  1  -0.099772  0  -0.110457  -0.189465  0  3.994599  0
C  C174  1  0.26120710  0.17888054  0.74758022  1  0.454389  0  0.083261  0.173312  0  4.074494  0
C  C175  1  0.22930718  0.12656710  0.74848023  1  -0.032468  0  -0.004584  -0.083887  0  3.946578  0
C  C176  1  0.24999637  0.07253695  0.74765873  1  0.461896  0  0.085887  0.183297  0  4.061402  0
C  C177  1  0.21506484  0.01877042  0.74724948  1  -0.083255  0  -0.109062  -0.187797  0  3.988644  0
C  C178  1  0.24984746  0.97572266  0.74448485  1  -0.074129  0  -0.10907  -0.186445  0  3.989301  0
C  C179  1  0.30643426  0.00320052  0.74371929  1  0.421594  0  0.085993  0.183229  0  4.058464  0
C  C180  1  0.38637889  0.26765684  0.74156810  1  -0.018991  0  -0.002367  -0.077951  0  3.931235  0
C  C181  1  0.16670824  0.12784251  0.74878409  1  -0.056977  0  -0.002227  0.095774  0  4.016841  0
C  C182  1  0.11377103  0.10520727  0.70258054  1  -0.069704  0  -0.095165  -0.145451  0  4.004981  0
C  C183  1  0.05508612  0.10567863  0.70242671  1  -0.041506  0  -0.089202  -0.090263  0  4.003521  0
C  C184  1  0.04829464  0.12872299  0.74853020  1  -0.023939  0  -0.021754  -0.037932  0  3.983725  0
C  C185  1  0.10106500  0.15178835  0.79476845  1  -0.028095  0  -0.085362  -0.086343  0  3.990317  0
C  C186  1  0.15980512  0.15137828  0.79487803  1  0.00403  0  -0.091292  -0.141335  0  3.988388  0
C  C187  1  0.98501069  0.12785831  0.74824178  1  1.565504  0  0.212804  0.592581  0  4.179591  0
C  C188  1  0.39038273  0.32851873  0.73702954  1  -0.019255  0  -0.00608  0.086098  0  4.014658  0
C  C189  1  0.41280130  0.38485628  0.78045494  1  -0.062263  0  -0.090899  -0.135736  0  3.979913  0
C  C190  1  0.41550541  0.44141042  0.77573562  1  -0.063455  0  -0.097423  -0.087229  0  4.05367  0
C  C191  1  0.39564575  0.44232751  0.72747344  1  -0.032034  0  -0.100393  -0.099442  0  4.055754  0
C  C192  1  0.37335566  0.38643440  0.68396771  1  -0.075094  0  -0.098006  -0.0864  0  4.054307  0
C  C193  1  0.37086712  0.32994970  0.68877270  1  -0.011117  0  -0.093164  -0.138488  0  3.98872  0
C  C194  1  0.16065409  0.97308109  0.40750316  1  0.508578  0  0.064499  0.108433  0  3.918818  0
C  C195  1  0.18562685  0.00013670  0.46047966  1  0.039949  0  -0.077288  -0.174293  0  3.944337  0
C  C196  1  0.32820113  0.01157330  0.57342051  1  0.036902  0  -0.078708  -0.170492  0  3.94146  0
C  C197  1  0.35319111  0.03903072  0.62645398  1  0.485116  0  0.057199  0.101544  0  3.936306  0
C  C198  1  0.99835256  0.58814765  0.75622849  1  0.402442  0  0.085291  0.180024  0  4.060036  0
C  C199  1  0.02760014  0.53699771  0.75569624  1  -0.072408  0  -0.110618  -0.189486  0  3.994133  0
C  C200  1  0.98589925  0.49072522  0.75298995  1  -0.095742  0  -0.11069  -0.189919  0  3.994235  0
C  C201  1  0.93111076  0.51360763  0.75239295  1  0.495348  0  0.083169  0.174702  0  4.072004  0
C  C202  1  0.87795241  0.48084631  0.75160703  1  -0.0649  0  -0.005032  -0.086461  0  3.948199  0
C  C203  1  0.82477783  0.50240520  0.75245411  1  0.459221  0  0.085995  0.183741  0  4.06143  0
C  C204  1  0.77137530  0.46785641  0.75277800  1  -0.066716  0  -0.109103  -0.186021  0  3.988949  0
C  C205  1  0.73105822  0.50536505  0.75547237  1  -0.118311  0  -0.108915  -0.186822  0  3.989315  0
C  C206  1  0.75934491  0.56276310  0.75632085  1  0.454407  0  0.086223  0.184818  0  4.05536  0
C  C207  1  0.02585191  0.64475630  0.75829890  1  0.023831  0  -0.002393  -0.076974  0  3.930421  0
C  C208  1  0.87896705  0.41793928  0.75133005  1  0.02309  0  -0.001667  0.0964  0  4.017728  0
C  C209  1  0.90269381  0.41125134  0.79752586  1  -0.059238  0  -0.095243  -0.145536  0  4.005065  0
C  C210  1  0.90341498  0.35272201  0.79767139  1  -0.020095  0  -0.08897  -0.090043  0  4.002171  0
C  C211  1  0.88036152  0.29977090  0.75157836  1  -0.037257  0  -0.021763  -0.037865  0  3.981899  0
C  C212  1  0.85706703  0.30625574  0.70534517  1  -0.049648  0  -0.085186  -0.085662  0  3.990569  0
C  C213  1  0.85639261  0.36487935  0.70524935  1  -0.052088  0  -0.091809  -0.141974  0  3.989952  0
C  C214  1  0.87978784  0.23676281  0.75185931  1  1.574346  0  0.212654  0.592069  0  4.17856  0
C  C215  1  0.09128637  0.65330106  0.76291412  1  0.05563  0  -0.005802  0.087046  0  4.010925  0
C  C216  1  0.10417964  0.63232322  0.71949172  1  -0.08902  0  -0.090858  -0.136009  0  3.978144  0
C  C217  1  0.16546959  0.63977225  0.72423548  1  -0.058624  0  -0.097087  -0.086219  0  4.053116  0
C  C218  1  0.21468749  0.66815730  0.77249834  1  -0.070013  0  -0.100416  -0.09917  0  4.05664  0
C  C219  1  0.20232485  0.68932071  0.81599360  1  -0.072726  0  -0.097667  -0.086045  0  4.052315  0
C  C220  1  0.14103277  0.68200469  0.81119079  1  -0.026175  0  -0.093792  -0.140568  0  3.986963  0
C  C221  1  0.06552720  0.75316161  0.09248301  1  0.417019  0  0.064354  0.108259  0  3.918851  0
C  C222  1  0.03961534  0.72513845  0.03950967  1  0.08464  0  -0.077346  -0.174124  0  3.945336  0
C  C223  1  0.93805335  0.75474769  0.92660130  1  -0.06866  0  -0.078495  -0.171457  0  3.944688  0
C  C224  1  0.91259700  0.72677328  0.87357232  1  0.582293  0  0.057254  0.101198  0  3.937135  0
C  C225  1  0.75783500  0.66824619  0.75650843  1  0.463183  0  0.084422  0.178554  0  4.060197  0
C  C226  1  0.72809963  0.71890335  0.75603322  1  -0.068533  0  -0.109835  -0.188268  0  3.995016  0
C  C227  1  0.76701231  0.76235618  0.75314598  1  -0.099603  0  -0.110483  -0.189546  0  3.994556  0
C  C228  1  0.82112009  0.73879239  0.75242176  1  0.454135  0  0.083327  0.173443  0  4.074415  0
C  C229  1  0.87343401  0.77069443  0.75152176  1  -0.032304  0  -0.004615  -0.084118  0  3.946638  0
C  C230  1  0.92746415  0.75000506  0.75234382  1  0.462596  0  0.085892  0.183436  0  4.06117  0
C  C231  1  0.98123093  0.78493788  0.75275227  1  -0.083515  0  -0.109122  -0.187953  0  3.988546  0
C  C232  1  0.02428099  0.75015539  0.75551916  1  -0.073638  0  -0.10898  -0.186427  0  3.988923  0
C  C233  1  0.99680186  0.69356744  0.75628523  1  0.421755  0  0.085969  0.183261  0  4.05852  0
C  C234  1  0.73234278  0.61362176  0.75843258  1  -0.019445  0  -0.002403  -0.077978  0  3.931207  0
C  C235  1  0.87215724  0.83329366  0.75121742  1  -0.056917  0  -0.002283  0.095878  0  4.01664  0
C  C236  1  0.89479528  0.88623173  0.79742078  1  -0.06974  0  -0.0951  -0.145429  0  4.004899  0
C  C237  1  0.89432295  0.94491589  0.79757456  1  -0.041706  0  -0.089261  -0.090329  0  4.003713  0
C  C238  1  0.87127777  0.95170548  0.75147106  1  -0.023937  0  -0.021799  -0.038034  0  3.983901  0
C  C239  1  0.84820734  0.89893492  0.70523184  1  -0.0279  0  -0.085311  -0.086339  0  3.990305  0
C  C240  1  0.84862283  0.84019555  0.70512253  1  0.004095  0  -0.091286  -0.141306  0  3.988383  0
C  C241  1  0.87214369  0.01498973  0.75175994  1  1.565299  0  0.212818  0.592633  0  4.179508  0
C  C242  1  0.67148201  0.60961772  0.76297168  1  -0.01919  0  -0.00614  0.085995  0  4.014729  0
C  C243  1  0.61514414  0.58719996  0.71954650  1  -0.062596  0  -0.090944  -0.135843  0  3.979981  0
C  C244  1  0.55858915  0.58449429  0.72426479  1  -0.063183  0  -0.09745  -0.087197  0  4.053646  0
C  C245  1  0.55767131  0.60435257  0.77252666  1  -0.032121  0  -0.100311  -0.099306  0  4.05578  0
C  C246  1  0.61356458  0.62664433  0.81603153  1  -0.075059  0  -0.097978  -0.086429  0  4.054392  0
C  C247  1  0.67004996  0.62913216  0.81122760  1  -0.0111  0  -0.093101  -0.138364  0  3.988725  0
C  C248  1  0.02691721  0.83934559  0.09249528  1  0.508597  0  0.064553  0.108508  0  3.918981  0
C  C249  1  0.99985942  0.81437150  0.03951832  1  0.039617  0  -0.077311  -0.174364  0  3.944511  0
C  C250  1  0.98842730  0.67179748  0.92658056  1  0.037363  0  -0.078661  -0.170463  0  3.941553  0
C  C251  1  0.96097348  0.64680896  0.87354837  1  0.484918  0  0.057033  0.10127  0  3.936513  0
C  C252  1  0.58814775  0.99835221  0.25622788  1  0.402434  0  0.085264  0.179894  0  4.060131  0
C  C253  1  0.53699876  0.02760104  0.25569701  1  -0.072668  0  -0.110613  -0.189419  0  3.993977  0
C  C254  1  0.49072563  0.98589970  0.25299030  1  -0.095406  0  -0.11061  -0.189842  0  3.994139  0
C  C255  1  0.51360806  0.93111054  0.25239204  1  0.494521  0  0.083094  0.174522  0  4.072382  0
C  C256  1  0.48084732  0.87795203  0.25160457  1  -0.063735  0  -0.005024  -0.086419  0  3.948415  0
C  C257  1  0.50240606  0.82477884  0.25245137  1  0.458953  0  0.086008  0.183844  0  4.061499  0
C  C258  1  0.46785750  0.77137694  0.25277558  1  -0.066518  0  -0.109127  -0.186153  0  3.989176  0
C  C259  1  0.50536501  0.73105941  0.25546993  1  -0.118405  0  -0.108917  -0.186823  0  3.989424  0
C  C260  1  0.56276277  0.75934435  0.25631694  1  0.454096  0  0.086122  0.184661  0  4.05561  0
C  C261  1  0.64475584  0.02585224  0.25829802  1  0.02386  0  -0.002405  -0.076915  0  3.93031  0
C  C262  1  0.41794067  0.87896600  0.25132737  1  0.022851  0  -0.001676  0.09647  0  4.01773  0
C  C263  1  0.41125048  0.90269114  0.29752244  1  -0.059307  0  -0.095224  -0.145534  0  4.00489  0
C  C264  1  0.35272009  0.90341453  0.29766764  1  -0.019676  0  -0.088894  -0.089956  0  4.001765  0
C  C265  1  0.29976889  0.88036155  0.25157420  1  -0.037339  0  -0.021775  -0.037946  0  3.982094  0
C  C266  1  0.30625513  0.85706616  0.20534302  1  -0.049467  0  -0.085121  -0.085485  0  3.990717  0
C  C267  1  0.36488041  0.85639183  0.20524795  1  -0.052269  0  -0.091825  -0.142033  0  3.990022  0
C  C268  1  0.23676055  0.87978141  0.25185305  1  1.574268  0  0.212553  0.592021  0  4.178575  0
C  C269  1  0.65330221  0.09128745  0.26291505  1  0.055165  0  -0.005815  0.087013  0  4.011014  0
C  C270  1  0.63232240  0.10417971  0.21949278  1  -0.089063  0  -0.090834  -0.13596  0  3.978149  0
C  C271  1  0.63977259  0.16546935  0.22423643  1  -0.058741  0  -0.097076  -0.086139  0  4.053126  0
C  C272  1  0.66815636  0.21468704  0.27249933  1  -0.070045  0  -0.100425  -0.099173  0  4.056648  0
C  C273  1  0.68932059  0.20232395  0.31599386  1  -0.072933  0  -0.097682  -0.086104  0  4.052258  0
C  C274  1  0.68200431  0.14103240  0.31119193  1  -0.025658  0  -0.093769  -0.140581  0  3.986998  0
C  C275  1  0.75316205  0.06553105  0.59248290  1  0.41718  0  0.064353  0.108221  0  3.918868  0
C  C276  1  0.72513899  0.03961835  0.53950999  1  0.084421  0  -0.07732  -0.174063  0  3.945242  0
C  C277  1  0.75475015  0.93805317  0.42660198  1  -0.068788  0  -0.07856  -0.171383  0  3.944841  0
C  C278  1  0.72677702  0.91259754  0.37357323  1  0.579217  0  0.057156  0.101041  0  3.937378  0
C  C279  1  0.66824509  0.75783233  0.25650402  1  0.463079  0  0.084512  0.178649  0  4.060053  0
C  C280  1  0.71890268  0.72809823  0.25602830  1  -0.068702  0  -0.109881  -0.188392  0  3.995099  0
C  C281  1  0.76235666  0.76701269  0.25314361  1  -0.099561  0  -0.110492  -0.189538  0  3.994661  0
C  C282  1  0.73879145  0.82111886  0.25241857  1  0.453914  0  0.083313  0.173334  0  4.074494  0
C  C283  1  0.77069206  0.87343283  0.25151785  1  -0.032028  0  -0.00462  -0.083914  0  3.946574  0
C  C284  1  0.75000493  0.92746423  0.25234095  1  0.462175  0  0.085898  0.183384  0  4.061443  0
C  C285  1  0.78493644  0.98123039  0.25274972  1  -0.083779  0  -0.109113  -0.187905  0  3.988607  0
C  C286  1  0.75015422  0.02428032  0.25551709  1  -0.073508  0  -0.108964  -0.186375  0  3.988989  0
C  C287  1  0.69356628  0.99680157  0.25628243  1  0.421648  0  0.085889  0.183187  0  4.058501  0
C  C288  1  0.61362195  0.73234278  0.25843205  1  -0.019101  0  -0.002413  -0.07794  0  3.931295  0
C  C289  1  0.83329131  0.87215618  0.25121523  1  -0.057005  0  -0.002244  0.095762  0  4.017001  0
C  C290  1  0.88622807  0.89478987  0.29741926  1  -0.069679  0  -0.095165  -0.145475  0  4.005079  0
C  C291  1  0.94491375  0.89431560  0.29757434  1  -0.041533  0  -0.089327  -0.090407  0  4.003571  0
C  C292  1  0.95170632  0.87127512  0.25147147  1  -0.023473  0  -0.021718  -0.037913  0  3.983686  0
C  C293  1  0.89893626  0.84820611  0.20523307  1  -0.028325  0  -0.085292  -0.086331  0  3.990402  0
C  C294  1  0.84019615  0.84862098  0.20512208  1  0.003975  0  -0.091328  -0.141417  0  3.988524  0
C  C295  1  0.01499164  0.87214532  0.25176081  1  1.565036  0  0.212825  0.592639  0  4.179427  0
C  C296  1  0.60961675  0.67148140  0.26297112  1  -0.019163  0  -0.006089  0.086043  0  4.01483  0
C  C297  1  0.58719963  0.61514470  0.21954577  1  -0.062374  0  -0.090942  -0.135862  0  3.980017  0
C  C298  1  0.58449428  0.55859037  0.22426524  1  -0.063729  0  -0.097408  -0.087175  0  4.053655  0
C  C299  1  0.60435263  0.55767197  0.27252611  1  -0.032099  0  -0.100326  -0.099297  0  4.055748  0
C  C300  1  0.62664409  0.61356495  0.31603182  1  -0.075068  0  -0.098023  -0.08648  0  4.054307  0
C  C301  1  0.62913128  0.67005015  0.31122733  1  -0.011097  0  -0.093111  -0.138399  0  3.988799  0
C  C302  1  0.83934789  0.02691943  0.59249721  1  0.508578  0  0.064527  0.108605  0  3.918775  0
C  C303  1  0.81437341  0.99986170  0.53952084  1  0.039629  0  -0.077232  -0.174268  0  3.944452  0
C  C304  1  0.67179902  0.98842580  0.42658035  1  0.037258  0  -0.078696  -0.170495  0  3.941564  0
C  C305  1  0.64680875  0.96096879  0.37354752  1  0.484804  0  0.057138  0.10149  0  3.936404  0
C  C306  1  0.00164630  0.41185085  0.24376781  1  0.402893  0  0.08523  0.179816  0  4.060047  0
C  C307  1  0.97239797  0.46300083  0.24429978  1  -0.07238  0  -0.110563  -0.18935  0  3.993914  0
C  C308  1  0.01409962  0.50927414  0.24700869  1  -0.095462  0  -0.110683  -0.189966  0  3.994119  0
C  C309  1  0.06888751  0.48639169  0.24760463  1  0.495338  0  0.083238  0.174794  0  4.071903  0
C  C310  1  0.12204685  0.51915280  0.24839293  1  -0.064966  0  -0.005068  -0.086546  0  3.948382  0
C  C311  1  0.17522158  0.49759431  0.24754694  1  0.459543  0  0.086013  0.183808  0  4.061511  0
C  C312  1  0.22862523  0.53214412  0.24722463  1  -0.066895  0  -0.109079  -0.186071  0  3.989121  0
C  C313  1  0.26894264  0.49463617  0.24453108  1  -0.118442  0  -0.108909  -0.186811  0  3.989314  0
C  C314  1  0.24065498  0.43723715  0.24368162  1  0.454414  0  0.086181  0.184733  0  4.055454  0
C  C315  1  0.97414681  0.35524301  0.24169913  1  0.023432  0  -0.002443  -0.077039  0  3.930512  0
C  C316  1  0.12103176  0.58205983  0.24866947  1  0.023444  0  -0.001624  0.096351  0  4.017927  0
C  C317  1  0.09730518  0.58875010  0.20247431  1  -0.059205  0  -0.095256  -0.145543  0  4.005019  0
C  C318  1  0.09658204  0.64728002  0.20232959  1  -0.019775  0  -0.088957  -0.089953  0  4.001996  0
C  C319  1  0.11963571  0.70023178  0.24842283  1  -0.037332  0  -0.021768  -0.038017  0  3.981864  0
C  C320  1  0.14292777  0.69374512  0.29465497  1  -0.051316  0  -0.085229  -0.085661  0  3.990619  0
C  C321  1  0.14360459  0.63512055  0.29474994  1  -0.052708  0  -0.091787  -0.141907  0  3.989849  0
C  C322  1  0.12021110  0.76323753  0.24813941  1  1.574822  0  0.212761  0.592334  0  4.178308  0
C  C323  1  0.90871129  0.34669749  0.23708145  1  0.055304  0  -0.005887  0.086924  0  4.010962  0
C  C324  1  0.89581866  0.36767561  0.28050402  1  -0.089149  0  -0.090818  -0.135989  0  3.978037  0
C  C325  1  0.83452846  0.36022567  0.27576093  1  -0.059262  0  -0.097193  -0.086315  0  4.053006  0
C  C326  1  0.78531123  0.33183959  0.22749829  1  -0.069864  0  -0.10022  -0.09887  0  4.056472  0
C  C327  1  0.79767299  0.31067656  0.18400261  1  -0.07258  0  -0.09771  -0.086249  0  4.052345  0
C  C328  1  0.85896528  0.31799479  0.18880470  1  -0.025791  0  -0.093707  -0.14043  0  3.986846  0
C  C329  1  0.93446991  0.24683936  0.90751713  1  0.417149  0  0.064324  0.108223  0  3.918847  0
C  C330  1  0.96038074  0.27486129  0.96049037  1  0.084898  0  -0.077317  -0.174091  0  3.945247  0
C  C331  1  0.06194502  0.24524937  0.07339685  1  -0.068499  0  -0.078603  -0.171457  0  3.944853  0
C  C332  1  0.08740242  0.27322214  0.12642688  1  0.578867  0  0.057197  0.101062  0  3.937363  0
C  C333  1  0.24216660  0.33175376  0.24349250  1  0.463263  0  0.084446  0.178642  0  4.060171  0
C  C334  1  0.27190201  0.28109733  0.24396867  1  -0.068527  0  -0.1099  -0.188415  0  3.995023  0
C  C335  1  0.23298849  0.23764357  0.24685554  1  -0.099649  0  -0.110461  -0.189511  0  3.994697  0
C  C336  1  0.17888155  0.26120829  0.24758014  1  0.454116  0  0.083265  0.173391  0  4.074456  0
C  C337  1  0.12656602  0.22930619  0.24847758  1  -0.031933  0  -0.004623  -0.084107  0  3.946595  0
C  C338  1  0.07253430  0.24999503  0.24765533  1  0.462064  0  0.085878  0.183358  0  4.061122  0
C  C339  1  0.01876759  0.21506282  0.24724648  1  -0.083029  0  -0.109083  -0.187767  0  3.988473  0
C  C340  1  0.97571824  0.24984453  0.24447892  1  -0.073858  0  -0.10903  -0.186507  0  3.989039  0
C  C341  1  0.00319656  0.30643192  0.24371295  1  0.421547  0  0.085971  0.183331  0  4.058611  0
C  C342  1  0.26765700  0.38637833  0.24156791  1  -0.019446  0  -0.002376  -0.077877  0  3.931297  0
C  C343  1  0.12784169  0.16670631  0.24878081  1  -0.05708  0  -0.002255  0.095844  0  4.016749  0
C  C344  1  0.10520672  0.11376830  0.20257774  1  -0.069782  0  -0.09515  -0.145424  0  4.004819  0
C  C345  1  0.10567856  0.05508390  0.20242440  1  -0.041677  0  -0.089295  -0.090403  0  4.003662  0
C  C346  1  0.12872275  0.04829333  0.24852692  1  -0.023895  0  -0.021765  -0.037994  0  3.983671  0
C  C347  1  0.15179262  0.10106423  0.29476557  1  -0.027915  0  -0.085353  -0.086423  0  3.990104  0
C  C348  1  0.15137744  0.15980355  0.29487473  1  0.00394  0  -0.091252  -0.141271  0  3.988262  0
C  C349  1  0.12785680  0.98501039  0.24823800  1  1.56587  0  0.212816  0.592686  0  4.179509  0
C  C350  1  0.32851728  0.39038331  0.23702784  1  -0.019261  0  -0.006113  0.085914  0  4.014886  0
C  C351  1  0.38485534  0.41280136  0.28045275  1  -0.062422  0  -0.09094  -0.13583  0  3.979949  0
C  C352  1  0.44141039  0.41550764  0.27573406  1  -0.063219  0  -0.09738  -0.087104  0  4.053708  0
C  C353  1  0.44232820  0.39564743  0.22747262  1  -0.032155  0  -0.100328  -0.099342  0  4.055839  0
C  C354  1  0.38643463  0.37335572  0.18396792  1  -0.075069  0  -0.098002  -0.086406  0  4.054386  0
C  C355  1  0.32994954  0.37086953  0.18877213  1  -0.011088  0  -0.09309  -0.138373  0  3.988753  0
C  C356  1  0.97307819  0.16065277  0.90750314  1  0.508628  0  0.064529  0.108628  0  3.918797  0
C  C357  1  0.00013715  0.18562606  0.96047987  1  0.039991  0  -0.077282  -0.174353  0  3.94427  0
C  C358  1  0.01157194  0.32819920  0.07341800  1  0.036804  0  -0.078706  -0.170574  0  3.941418  0
C  C359  1  0.03902918  0.35318848  0.12645129  1  0.484925  0  0.057141  0.101535  0  3.936241  0
C  C360  1  0.24431943  0.99432843  0.48864540  1  -0.103875  0  0.016035  0.108107  0  3.97028  0
C  C361  1  0.27264032  0.02266856  0.54523544  1  0.013963  0  0.011997  0.098661  0  3.979016  0
C  C362  1  0.00566875  0.75567912  0.01135403  1  -0.103616  0  0.0161  0.108151  0  3.970378  0
C  C363  1  0.97733040  0.72735764  0.95476375  1  0.013806  0  0.011841  0.098595  0  3.979053  0
C  C364  1  0.75568084  0.00567034  0.51135559  1  -0.103349  0  0.015984  0.108016  0  3.970428  0
C  C365  1  0.72736023  0.97733148  0.45476535  1  0.01401  0  0.01203  0.098724  0  3.97902  0
C  C366  1  0.99432845  0.24431873  0.98864433  1  -0.103879  0  0.015996  0.108036  0  3.970289  0
C  C367  1  0.02266727  0.27263852  0.04523462  1  0.014391  0  0.012055  0.098802  0  3.978992  0
N  N368  1  0.42735786  0.06009945  0.74578129  1  -1.220804  0  -0.368109  -0.371109  0  3.453772  0
N  N369  1  0.44051358  0.18400746  0.74574721  1  -1.21924  0  -0.365738  -0.365392  0  3.443563  0
N  N370  1  0.31834900  0.18579760  0.74564480  1  -1.217109  0  -0.368122  -0.370623  0  3.452494  0
N  N371  1  0.30527383  0.06194583  0.74585853  1  -1.22115  0  -0.365671  -0.364744  0  3.444339  0
N  N372  1  0.93990456  0.57264484  0.75422560  1  -1.221253  0  -0.368089  -0.371216  0  3.45362  0
N  N373  1  0.81599561  0.55949067  0.75426149  1  -1.21923  0  -0.365822  -0.36551  0  3.443615  0
N  N374  1  0.81420299  0.68165082  0.75435730  1  -1.217231  0  -0.368128  -0.370575  0  3.452549  0
N  N375  1  0.93805703  0.69472898  0.75414612  1  -1.221588  0  -0.365684  -0.364769  0  3.444325  0
N  N376  1  0.57264480  0.93990417  0.25422535  1  -1.221407  0  -0.368007  -0.371067  0  3.453776  0
N  N377  1  0.55949145  0.81599652  0.25425855  1  -1.219367  0  -0.365758  -0.365458  0  3.443497  0
N  N378  1  0.68164899  0.81420008  0.25435250  1  -1.217115  0  -0.368167  -0.370593  0  3.452573  0
N  N379  1  0.69472904  0.93805673  0.25414367  1  -1.221155  0  -0.365613  -0.364724  0  3.444361  0
N  N380  1  0.06009406  0.42735431  0.24577046  1  -1.221245  0  -0.368148  -0.371181  0  3.453469  0
N  N381  1  0.18400252  0.44050791  0.24573874  1  -1.219284  0  -0.365787  -0.365443  0  3.44355  0
N  N382  1  0.18579927  0.31834977  0.24564428  1  -1.217279  0  -0.368162  -0.370682  0  3.452523  0
N  N383  1  0.06194202  0.30527066  0.24585224  1  -1.221066  0  -0.365607  -0.364693  0  3.444315  0
N  N384  1  0.19071409  0.94073833  0.38146131  1  -1.230072  0  -0.315631  -0.18632  0  3.510251  0
N  N385  1  0.32631821  0.07631920  0.65271037  1  -1.248274  0  -0.30499  -0.188894  0  3.492055  0
N  N386  1  0.05926019  0.80928842  0.11853997  1  -1.229705  0  -0.315663  -0.186304  0  3.510089  0
N  N387  1  0.92368266  0.67368006  0.84729118  1  -1.24833  0  -0.304947  -0.188716  0  3.491976  0
N  N388  1  0.80928866  0.05926251  0.61853983  1  -1.230104  0  -0.315713  -0.186462  0  3.510199  0
N  N389  1  0.67368327  0.92368312  0.34729136  1  -1.248085  0  -0.304942  -0.188841  0  3.491947  0
N  N390  1  0.94073514  0.19071137  0.88145977  1  -1.230006  0  -0.315632  -0.186391  0  3.510113  0
N  N391  1  0.07631803  0.32631592  0.15270836  1  -1.248107  0  -0.304965  -0.188875  0  3.492036  0
O  O392  1  0.80951192  0.14141090  0.79127176  1  -1.167804  0  -0.319708  -0.548949  0  2.326014  0
O  O393  1  0.76574122  0.09979341  0.70464831  1  -1.162921  0  -0.320512  -0.555453  0  2.336594  0
O  O394  1  0.98189540  0.14976867  0.79136781  1  -1.166558  0  -0.319845  -0.549407  0  2.326201  0
O  O395  1  0.93898267  0.10483796  0.70473887  1  -1.178059  0  -0.320723  -0.555635  0  2.337902  0
O  O396  1  0.85859344  0.19049163  0.70872986  1  -1.168342  0  -0.319687  -0.548917  0  2.325772  0
O  O397  1  0.90021117  0.23425824  0.79535274  1  -1.162699  0  -0.320597  -0.55555  0  2.336833  0
O  O398  1  0.85022765  0.01810527  0.70863128  1  -1.166083  0  -0.31989  -0.54948  0  2.326026  0
O  O399  1  0.89515945  0.06101752  0.79525846  1  -1.17831  0  -0.320714  -0.555607  0  2.338058  0
O  O400  1  0.19049000  0.85859175  0.20872669  1  -1.168091  0  -0.319757  -0.549014  0  2.325921  0
O  O401  1  0.23425653  0.90020493  0.29534874  1  -1.162817  0  -0.320481  -0.555441  0  2.33661  0
O  O402  1  0.01810783  0.85023495  0.20863567  1  -1.166509  0  -0.319847  -0.549375  0  2.326241  0
O  O403  1  0.06101955  0.89516841  0.29526500  1  -1.17771  0  -0.320761  -0.555704  0  2.337774  0
O  O404  1  0.14140243  0.80950983  0.29126716  1  -1.168869  0  -0.319699  -0.549001  0  2.325706  0
O  O405  1  0.09978926  0.76574126  0.20464560  1  -1.162636  0  -0.320618  -0.555564  0  2.336785  0
O  O406  1  0.14977206  0.98189416  0.29136540  1  -1.166796  0  -0.319909  -0.549504  0  2.326104  0
O  O407  1  0.10483652  0.93898170  0.20473913  1  -1.1782  0  -0.320669  -0.555606  0  2.338053  0
