# generated using pymatgen
data_ZnH20C29N3O5
_symmetry_space_group_name_H-M   'P 1'
_cell_length_a   17.37080205
_cell_length_b   21.01900634
_cell_length_c   21.01958228
_cell_angle_alpha   80.16180364
_cell_angle_beta   65.58386514
_cell_angle_gamma   65.59189464
_symmetry_Int_Tables_number   1
_chemical_formula_structural   ZnH20C29N3O5
_chemical_formula_sum   'Zn8 H160 C232 N24 O40'
_cell_volume   6363.67290612
_cell_formula_units_Z   8
loop_
 _symmetry_equiv_pos_site_id
 _symmetry_equiv_pos_as_xyz
  1  'x, y, z'
loop_
 _atom_site_type_symbol
 _atom_site_label
 _atom_site_symmetry_multiplicity
 _atom_site_fract_x
 _atom_site_fract_y
 _atom_site_fract_z
 _atom_site_occupancy
 _atom_site_pbe_bader_charge
 _atom_site_pbe_bader_spin_density
 _atom_site_pbe_cm5_charge
 _atom_site_pbe_ddec_charge
 _atom_site_pbe_ddec_spin_density
 _atom_site_pbe_ddec_sum_bond_order
 _atom_site_pbe_magmom
Zn  Zn0  1  0.41013625  0.95758244  0.27158182  1  1.268597  0  0.684869  0.763108  0  2.297683  0
Zn  Zn1  1  0.13935085  0.54247695  0.22846682  1  1.266537  0  0.685014  0.763099  0  2.298244  0
Zn  Zn2  1  0.68160167  0.72857969  0.45754108  1  1.265913  0  0.685456  0.763102  0  2.298535  0
Zn  Zn3  1  0.36774916  0.77148472  0.04242478  1  1.267159  0  0.685177  0.762975  0  2.297224  0
Zn  Zn4  1  0.58986476  0.04241714  0.72841910  1  1.268532  0  0.684876  0.763086  0  2.297587  0
Zn  Zn5  1  0.86064753  0.45752158  0.77153537  1  1.266484  0  0.685024  0.763066  0  2.29833  0
Zn  Zn6  1  0.31839420  0.27142093  0.54246324  1  1.265957  0  0.685436  0.763045  0  2.298656  0
Zn  Zn7  1  0.63224786  0.22851381  0.95757816  1  1.267161  0  0.685151  0.762954  0  2.297263  0
H  H8  1  0.62558341  0.00901038  0.29676577  1  0.114203  0  0.106261  0.112178  0  0.994124  0
H  H9  1  0.75803781  0.04782196  0.25840567  1  0.088714  0  0.108563  0.125074  0  1.00279  0
H  H10  1  0.78975218  0.04648082  0.04473014  1  0.119993  0  0.106545  0.1234  0  1.046044  0
H  H11  1  0.65878160  0.00721992  0.08310343  1  0.102916  0  0.10885  0.114243  0  0.989867  0
H  H12  1  0.89668289  0.93299267  0.10862578  1  0.072759  0  0.09953  0.11433  0  1.031619  0
H  H13  1  0.05396412  0.84281247  0.07528231  1  0.097838  0  0.100461  0.098509  0  1.027355  0
H  H14  1  0.15667225  0.99747514  0.07332109  1  0.071558  0  0.104919  0.107374  0  0.996298  0
H  H15  1  0.99973687  0.09031796  0.10221526  1  0.091075  0  0.108062  0.125668  0  1.004107  0
H  H16  1  0.47576892  0.83376950  0.34973767  1  0.115444  0  0.124961  0.102215  0  0.975065  0
H  H17  1  0.56479939  0.70700732  0.33386021  1  0.140121  0  0.107189  0.121378  0  1.057579  0
H  H18  1  0.57585468  0.73355009  0.12136014  1  0.106185  0  0.10569  0.112144  0  1.056399  0
H  H19  1  0.48814506  0.86021216  0.14612931  1  0.112686  0  0.126281  0.101523  0  0.963965  0
H  H20  1  0.70638657  0.61869228  0.27801142  1  0.102844  0  0.105406  0.110556  0  1.019664  0
H  H21  1  0.79599216  0.49246446  0.25054930  1  0.080075  0  0.117804  0.087417  0  0.963262  0
H  H22  1  0.67232066  0.49773188  0.11739998  1  0.061613  0  0.111068  0.076956  0  0.972801  0
H  H23  1  0.57428134  0.62332618  0.14110396  1  0.087125  0  0.106876  0.117437  0  1.015122  0
H  H24  1  0.33398406  0.07445830  0.35815494  1  0.119701  0  0.124002  0.10016  0  0.997384  0
H  H25  1  0.27014352  0.20471709  0.35767050  1  0.092268  0  0.108847  0.118016  0  1.020093  0
H  H26  1  0.29419093  0.19591951  0.14588887  1  0.082189  0  0.108546  0.116262  0  1.030039  0
H  H27  1  0.35748179  0.06560868  0.15554005  1  0.104458  0  0.128839  0.101345  0  0.956394  0
H  H28  1  0.43097485  0.49129172  0.20356930  1  0.080712  0  0.106498  0.112184  0  0.994466  0
H  H29  1  0.56397751  0.45243550  0.24177069  1  0.103444  0  0.106931  0.122656  0  1.006741  0
H  H30  1  0.38093953  0.45337515  0.45550587  1  0.105165  0  0.106126  0.122891  0  1.047275  0
H  H31  1  0.24901828  0.49265403  0.41729522  1  0.108016  0  0.108042  0.113602  0  0.989748  0
H  H32  1  0.43811428  0.56702638  0.39183131  1  0.06313  0  0.100925  0.115803  0  1.030596  0
H  H33  1  0.47204471  0.65714575  0.42512452  1  0.095977  0  0.10025  0.098234  0  1.027457  0
H  H34  1  0.72762741  0.50249040  0.42661241  1  0.072757  0  0.10354  0.105924  0  0.998365  0
H  H35  1  0.69233640  0.40968392  0.39771761  1  0.127691  0  0.108823  0.126175  0  1.005094  0
H  H36  1  0.15929411  0.66617629  0.15031030  1  0.122353  0  0.12544  0.102578  0  0.9737  0
H  H37  1  0.10579518  0.79294599  0.16609731  1  0.13441  0  0.106913  0.121474  0  1.059638  0
H  H38  1  0.93099854  0.76654478  0.37874993  1  0.105548  0  0.105676  0.112221  0  1.055806  0
H  H39  1  0.99458738  0.63987091  0.35403917  1  0.101466  0  0.125933  0.102054  0  0.963847  0
H  H40  1  0.10332412  0.88135176  0.22191491  1  0.096348  0  0.106034  0.111209  0  1.018358  0
H  H41  1  0.03921173  0.00759509  0.24944408  1  0.065509  0  0.116884  0.086382  0  0.964773  0
H  H42  1  0.78756843  0.00232480  0.38261157  1  0.058042  0  0.111559  0.07729  0  0.971927  0
H  H43  1  0.83884602  0.87665668  0.35882671  1  0.09197  0  0.104582  0.115642  0  1.016517  0
H  H44  1  0.26682875  0.42554061  0.14178413  1  0.154337  0  0.123439  0.09858  0  1.000588  0
H  H45  1  0.33272247  0.29526665  0.14223909  1  0.093291  0  0.108097  0.117201  0  1.02032  0
H  H46  1  0.13602653  0.30412007  0.35405527  1  0.086462  0  0.106635  0.114536  0  1.032058  0
H  H47  1  0.07879468  0.43442928  0.34437909  1  0.101585  0  0.128421  0.101461  0  0.956379  0
H  H48  1  0.92204332  0.70342597  0.50893848  1  0.079879  0  0.10619  0.11197  0  0.994333  0
H  H49  1  0.01616473  0.74159816  0.54785950  1  0.08815  0  0.108226  0.123935  0  1.005261  0
H  H50  1  0.83430967  0.95539504  0.54659181  1  0.109192  0  0.105443  0.122743  0  1.047824  0
H  H51  1  0.74165366  0.91711929  0.50727415  1  0.100492  0  0.109377  0.115189  0  0.989112  0
H  H52  1  0.00521344  0.89140964  0.43302330  1  0.068104  0  0.100563  0.115086  0  1.031282  0
H  H53  1  0.12925280  0.92467679  0.34283448  1  0.098873  0  0.101295  0.099358  0  1.026149  0
H  H54  1  0.22981961  0.92670484  0.49757379  1  0.05818  0  0.104527  0.107196  0  0.997831  0
H  H55  1  0.10164317  0.89790304  0.59038472  1  0.089103  0  0.107933  0.125364  0  1.006043  0
H  H56  1  0.82548428  0.65045224  0.33384869  1  0.122829  0  0.12524  0.102772  0  0.973903  0
H  H57  1  0.89875836  0.66623466  0.20702875  1  0.151845  0  0.107896  0.1218  0  1.057382  0
H  H58  1  0.69720470  0.87870777  0.23332991  1  0.115263  0  0.10514  0.111773  0  1.055798  0
H  H59  1  0.63422961  0.85403940  0.36003212  1  0.083479  0  0.126463  0.102382  0  0.963271  0
H  H60  1  0.98447452  0.72213103  0.11867669  1  0.099889  0  0.105247  0.110912  0  1.018455  0
H  H61  1  0.04662804  0.74956204  0.99243707  1  0.074635  0  0.116349  0.086215  0  0.965106  0
H  H62  1  0.78980813  0.88244410  0.99751157  1  0.070664  0  0.109986  0.075372  0  0.972904  0
H  H63  1  0.71539014  0.85873349  0.12315274  1  0.092962  0  0.105746  0.116421  0  1.016536  0
H  H64  1  0.69239108  0.64180665  0.57441390  1  0.125765  0  0.12311  0.099354  0  0.998354  0
H  H65  1  0.62804469  0.64229369  0.70468183  1  0.091671  0  0.108006  0.117747  0  1.019925  0
H  H66  1  0.43996689  0.85395969  0.69595717  1  0.115528  0  0.107762  0.1158  0  1.029615  0
H  H67  1  0.51291224  0.84433803  0.56558757  1  0.100779  0  0.128604  0.101896  0  0.955432  0
H  H68  1  0.63452745  0.79657447  0.99096447  1  0.09418  0  0.10598  0.112205  0  0.993919  0
H  H69  1  0.80573592  0.75828542  0.95216336  1  0.086824  0  0.108399  0.124524  0  1.005573  0
H  H70  1  0.83640522  0.54450513  0.95352863  1  0.110132  0  0.106212  0.123494  0  1.046663  0
H  H71  1  0.66623949  0.58284170  0.99270980  1  0.092879  0  0.108057  0.112736  0  0.990528  0
H  H72  1  0.82976918  0.60851296  0.06714924  1  0.067902  0  0.100879  0.114885  0  1.031461  0
H  H73  1  0.89700307  0.57527288  0.15727739  1  0.066983  0  0.099994  0.0981  0  1.028707  0
H  H74  1  0.15423733  0.57339622  0.00245391  1  0.085775  0  0.104741  0.108041  0  0.997091  0
H  H75  1  0.09004804  0.60221177  0.90970502  1  0.13033  0  0.108328  0.125556  0  1.004248  0
H  H76  1  0.30962111  0.84964642  0.16610960  1  0.115062  0  0.125248  0.102306  0  0.973834  0
H  H77  1  0.27179110  0.83388197  0.29294438  1  0.142872  0  0.10752  0.120991  0  1.057969  0
H  H78  1  0.30931966  0.62131365  0.26654137  1  0.099395  0  0.104914  0.112176  0  1.056129  0
H  H79  1  0.34834615  0.64600470  0.13989528  1  0.116417  0  0.125769  0.10212  0  0.962932  0
H  H80  1  0.32504548  0.77798073  0.38130210  1  0.089128  0  0.10612  0.111441  0  1.019328  0
H  H81  1  0.28831295  0.75056404  0.50755532  1  0.082533  0  0.116908  0.086149  0  0.965562  0
H  H82  1  0.16952009  0.61761591  0.50241887  1  0.062092  0  0.110789  0.076163  0  0.972253  0
H  H83  1  0.19712488  0.64135563  0.37681093  1  0.076461  0  0.105206  0.115596  0  1.015856  0
H  H84  1  0.40841043  0.85819465  0.92547186  1  0.116366  0  0.124186  0.100207  0  0.998785  0
H  H85  1  0.47487721  0.85765169  0.79525121  1  0.107922  0  0.10787  0.117084  0  1.019972  0
H  H86  1  0.49012685  0.64585345  0.80414422  1  0.081075  0  0.107594  0.115325  0  1.029863  0
H  H87  1  0.42298659  0.65558791  0.93448384  1  0.102231  0  0.128624  0.101661  0  0.955725  0
H  H88  1  0.37441870  0.99098919  0.70323213  1  0.114118  0  0.106284  0.112208  0  0.99427  0
H  H89  1  0.24196311  0.95218023  0.74159084  1  0.088613  0  0.108551  0.125072  0  1.002683  0
H  H90  1  0.21024831  0.95351667  0.95526855  1  0.120026  0  0.106555  0.123419  0  1.046014  0
H  H91  1  0.34122056  0.99277705  0.91689383  1  0.102816  0  0.108856  0.114218  0  0.989939  0
H  H92  1  0.10331897  0.06700743  0.89137212  1  0.072686  0  0.099524  0.114328  0  1.031636  0
H  H93  1  0.94603995  0.15718920  0.92471639  1  0.097801  0  0.100446  0.098462  0  1.027371  0
H  H94  1  0.84332882  0.00252809  0.92667792  1  0.071582  0  0.104965  0.107448  0  0.996308  0
H  H95  1  0.00026299  0.90968266  0.89778248  1  0.091103  0  0.10806  0.125662  0  1.004074  0
H  H96  1  0.52423283  0.16623217  0.65026272  1  0.11551  0  0.124967  0.102218  0  0.975081  0
H  H97  1  0.43520546  0.29299278  0.66613849  1  0.140112  0  0.107201  0.121413  0  1.057559  0
H  H98  1  0.42414559  0.26644687  0.87863903  1  0.106002  0  0.105647  0.112026  0  1.056561  0
H  H99  1  0.51185432  0.13978481  0.85387012  1  0.112616  0  0.126285  0.101466  0  0.96398  0
H  H100  1  0.29361576  0.38130834  0.72198828  1  0.102873  0  0.105408  0.110594  0  1.019625  0
H  H101  1  0.20401489  0.50753721  0.74945019  1  0.080091  0  0.117816  0.087394  0  0.963382  0
H  H102  1  0.32769090  0.50226718  0.88259755  1  0.062105  0  0.111059  0.077  0  0.972813  0
H  H103  1  0.42572623  0.37667183  0.85889558  1  0.087049  0  0.106869  0.117478  0  1.01515  0
H  H104  1  0.66601160  0.92554076  0.64184529  1  0.119723  0  0.12398  0.100077  0  0.997373  0
H  H105  1  0.72985524  0.79528040  0.64232803  1  0.092169  0  0.108889  0.118084  0  1.019925  0
H  H106  1  0.70580935  0.80408007  0.85411024  1  0.082221  0  0.108564  0.116289  0  1.030065  0
H  H107  1  0.64251445  0.93439090  0.84446060  1  0.104476  0  0.128834  0.101389  0  0.956354  0
H  H108  1  0.56902385  0.50870682  0.79642875  1  0.080758  0  0.106508  0.112189  0  0.994458  0
H  H109  1  0.43602109  0.54756304  0.75822874  1  0.103395  0  0.106941  0.122681  0  1.006787  0
H  H110  1  0.61906059  0.54662547  0.54449414  1  0.105161  0  0.106118  0.122835  0  1.047322  0
H  H111  1  0.75098410  0.50734555  0.58270496  1  0.107976  0  0.108068  0.113645  0  0.989728  0
H  H112  1  0.56188710  0.43297424  0.60816934  1  0.063134  0  0.100917  0.115765  0  1.030626  0
H  H113  1  0.52795106  0.34285749  0.57487539  1  0.096059  0  0.10026  0.098284  0  1.027463  0
H  H114  1  0.27237046  0.49751231  0.57338628  1  0.072957  0  0.103503  0.105851  0  0.998353  0
H  H115  1  0.30766319  0.59031618  0.60228129  1  0.127645  0  0.108809  0.126114  0  1.00513  0
H  H116  1  0.84070040  0.33382486  0.84969131  1  0.122291  0  0.125424  0.102549  0  0.973737  0
H  H117  1  0.89420086  0.20705515  0.83390148  1  0.134409  0  0.106909  0.121475  0  1.059662  0
H  H118  1  0.06899844  0.23345688  0.62125019  1  0.105516  0  0.105658  0.1122  0  1.055819  0
H  H119  1  0.00541253  0.36012919  0.64596133  1  0.10149  0  0.125946  0.102095  0  0.963815  0
H  H120  1  0.89667510  0.11864625  0.77808543  1  0.096332  0  0.106052  0.111223  0  1.018387  0
H  H121  1  0.96078887  0.99240397  0.75055434  1  0.065273  0  0.116856  0.086327  0  0.964827  0
H  H122  1  0.21242938  0.99767530  0.61738787  1  0.058067  0  0.111539  0.077294  0  0.971952  0
H  H123  1  0.16115259  0.12334447  0.64117267  1  0.091951  0  0.104602  0.115656  0  1.016482  0
H  H124  1  0.73316880  0.57446054  0.85821759  1  0.154288  0  0.123419  0.098564  0  1.000594  0
H  H125  1  0.66727760  0.70473502  0.85776045  1  0.093392  0  0.108096  0.117254  0  1.02028  0
H  H126  1  0.86397332  0.69587950  0.64594363  1  0.086605  0  0.106631  0.114528  0  1.032078  0
H  H127  1  0.92120669  0.56556716  0.65562051  1  0.101555  0  0.128435  0.101488  0  0.956336  0
H  H128  1  0.07795524  0.29657883  0.49106037  1  0.080012  0  0.106153  0.111943  0  0.994336  0
H  H129  1  0.98383063  0.25840717  0.45213786  1  0.088018  0  0.108243  0.123961  0  1.005146  0
H  H130  1  0.16568563  0.04460611  0.45341091  1  0.108974  0  0.10547  0.122765  0  1.047708  0
H  H131  1  0.25834189  0.08287925  0.49273091  1  0.100531  0  0.109395  0.115231  0  0.989037  0
H  H132  1  0.99478711  0.10859046  0.56697465  1  0.068145  0  0.100566  0.115065  0  1.031218  0
H  H133  1  0.87075135  0.07531966  0.65716294  1  0.099043  0  0.101305  0.099401  0  1.02616  0
H  H134  1  0.77018281  0.07329056  0.50242463  1  0.058089  0  0.10451  0.107205  0  0.997905  0
H  H135  1  0.89835580  0.10209759  0.40961328  1  0.089068  0  0.107919  0.125362  0  1.006027  0
H  H136  1  0.17451296  0.34954891  0.66615143  1  0.12269  0  0.125261  0.102776  0  0.973836  0
H  H137  1  0.10123867  0.33376700  0.79297068  1  0.151805  0  0.107899  0.121787  0  1.057338  0
H  H138  1  0.30279463  0.12129442  0.76667011  1  0.115265  0  0.105173  0.111824  0  1.055741  0
H  H139  1  0.36577235  0.14596123  0.63996668  1  0.083514  0  0.126461  0.102337  0  0.963255  0
H  H140  1  0.01552560  0.27787063  0.88132216  1  0.099815  0  0.105229  0.110899  0  1.018465  0
H  H141  1  0.95337193  0.25043910  0.00756157  1  0.074562  0  0.116372  0.086232  0  0.965144  0
H  H142  1  0.21019021  0.11755600  0.00248670  1  0.070663  0  0.109981  0.075353  0  0.972978  0
H  H143  1  0.28460894  0.14126766  0.87684617  1  0.092982  0  0.105761  0.116466  0  1.016519  0
H  H144  1  0.30760757  0.35819241  0.42558713  1  0.125759  0  0.123129  0.099396  0  0.9983  0
H  H145  1  0.37195553  0.35770588  0.29531798  1  0.091713  0  0.108012  0.117758  0  1.019906  0
H  H146  1  0.56003123  0.14604041  0.30404386  1  0.115326  0  0.107737  0.115818  0  1.029598  0
H  H147  1  0.48708756  0.15566155  0.43441203  1  0.100391  0  0.128589  0.101894  0  0.955462  0
H  H148  1  0.36547036  0.20342720  0.00903608  1  0.094138  0  0.105986  0.112227  0  0.993905  0
H  H149  1  0.19426200  0.24171782  0.04783693  1  0.087005  0  0.108426  0.12462  0  1.005563  0
H  H150  1  0.16359401  0.45549653  0.04647622  1  0.110059  0  0.106226  0.123494  0  1.046699  0
H  H151  1  0.33375964  0.41716205  0.00729409  1  0.092761  0  0.108084  0.1128  0  0.990599  0
H  H152  1  0.17022974  0.39148975  0.93285285  1  0.067897  0  0.100926  0.114971  0  1.031443  0
H  H153  1  0.10299506  0.42472879  0.84272475  1  0.067037  0  0.100001  0.098166  0  1.028661  0
H  H154  1  0.84576368  0.42660335  0.99754701  1  0.085772  0  0.104743  0.108015  0  0.997136  0
H  H155  1  0.90995055  0.39778781  0.09029898  1  0.130223  0  0.108345  0.125623  0  1.004172  0
H  H156  1  0.69037964  0.15035106  0.83389137  1  0.114987  0  0.125213  0.102258  0  0.97384  0
H  H157  1  0.72820954  0.16611552  0.70705798  1  0.142721  0  0.107527  0.121021  0  1.057982  0
H  H158  1  0.69067988  0.37868436  0.73346056  1  0.099504  0  0.10488  0.112113  0  1.05622  0
H  H159  1  0.65165317  0.35399279  0.86010713  1  0.116258  0  0.125743  0.102071  0  0.962864  0
H  H160  1  0.67496334  0.22201310  0.61869702  1  0.088699  0  0.106117  0.111414  0  1.019328  0
H  H161  1  0.71170044  0.24942926  0.49244455  1  0.08274  0  0.116929  0.086225  0  0.965537  0
H  H162  1  0.83048255  0.38238262  0.49758476  1  0.062011  0  0.110797  0.076184  0  0.97227  0
H  H163  1  0.80287161  0.35864395  0.62319200  1  0.076385  0  0.105205  0.115597  0  1.015851  0
H  H164  1  0.59158696  0.14180336  0.07452970  1  0.116323  0  0.124127  0.100088  0  0.998818  0
H  H165  1  0.52511855  0.14234946  0.20475104  1  0.107839  0  0.107823  0.117038  0  1.020008  0
H  H166  1  0.50987401  0.35414665  0.19585532  1  0.081078  0  0.107583  0.115296  0  1.029855  0
H  H167  1  0.57701558  0.34440957  0.06551570  1  0.102269  0  0.128627  0.101662  0  0.95565  0
C  C168  1  0.55716254  0.98242420  0.21423200  1  1.52463  0  0.179376  0.536876  0  4.264903  0
C  C169  1  0.63513369  0.00562331  0.19201104  1  -0.016474  0  -0.03091  -0.06492  0  4.018936  0
C  C170  1  0.66210871  0.01767792  0.24178030  1  -0.129864  0  -0.085916  -0.089602  0  4.010946  0
C  C171  1  0.73465745  0.03942038  0.22090473  1  0.059391  0  -0.099657  -0.201376  0  3.991214  0
C  C172  1  0.77971232  0.04920229  0.14979602  1  0.373024  0  0.087993  0.265415  0  4.032221  0
C  C173  1  0.75316425  0.03844963  0.09967581  1  -0.029415  0  -0.094441  -0.191278  0  3.971197  0
C  C174  1  0.68100197  0.01632158  0.12103716  1  -0.059237  0  -0.079491  -0.077246  0  3.988724  0
C  C175  1  0.93880322  0.01683802  0.10906493  1  0.406881  0  0.094567  0.283389  0  4.012019  0
C  C176  1  0.95329086  0.94747795  0.10085767  1  0.030408  0  -0.109679  -0.221179  0  4.000396  0
C  C177  1  0.04137308  0.89683437  0.08251778  1  -0.06647  0  -0.083648  -0.061461  0  4.001258  0
C  C178  1  0.11504832  0.91395165  0.07353459  1  -0.045357  0  -0.038365  -0.082886  0  4.033241  0
C  C179  1  0.09922512  0.98409748  0.08066161  1  -0.04282  0  -0.084758  -0.078363  0  4.008248  0
C  C180  1  0.01201333  0.03575042  0.09753636  1  0.006372  0  -0.099039  -0.198143  0  3.98061  0
C  C181  1  0.20736691  0.85790691  0.05880466  1  1.509691  0  0.182793  0.544881  0  4.232031  0
C  C182  1  0.50004049  0.80920433  0.29970360  1  0.419727  0  0.051114  0.093367  0  3.938926  0
C  C183  1  0.55006833  0.73782844  0.29007643  1  0.011019  0  -0.080649  -0.170019  0  3.923796  0
C  C184  1  0.57852468  0.70805648  0.22528944  1  0.002453  0  0.01652  0.11462  0  3.96171  0
C  C185  1  0.55466823  0.75309546  0.17303940  1  -0.043284  0  -0.082635  -0.171174  0  3.928266  0
C  C186  1  0.50574052  0.82409452  0.18640124  1  0.479841  0  0.053461  0.10278  0  3.941033  0
C  C187  1  0.63238366  0.63258363  0.21159315  1  -0.104333  0  0.006892  0.096178  0  3.982262  0
C  C188  1  0.69564779  0.59389755  0.24262648  1  0.046386  0  -0.080701  -0.166488  0  3.93411  0
C  C189  1  0.74640140  0.52309134  0.22676682  1  0.473212  0  0.04517  0.096246  0  3.996746  0
C  C190  1  0.67787295  0.52612686  0.15330590  1  0.516186  0  0.040268  0.084807  0  4.031333  0
C  C191  1  0.62337023  0.59689141  0.16604091  1  -0.045916  0  -0.087501  -0.178897  0  3.942144  0
C  C192  1  0.32335964  0.10375964  0.31248053  1  0.559616  0  0.053218  0.104578  0  3.921285  0
C  C193  1  0.28771408  0.17629300  0.31174608  1  -0.024302  0  -0.079855  -0.170884  0  3.936483  0
C  C194  1  0.27638447  0.21149805  0.25141720  1  -0.072511  0  0.015934  0.107565  0  3.979238  0
C  C195  1  0.30216221  0.17107150  0.19392302  1  -0.030261  0  -0.079915  -0.170271  0  3.927756  0
C  C196  1  0.33655755  0.09864351  0.19915123  1  0.553127  0  0.059844  0.109346  0  3.935962  0
C  C197  1  0.25357135  0.51757594  0.28613453  1  1.534252  0  0.178268  0.53674  0  4.262593  0
C  C198  1  0.33255758  0.49427572  0.30831320  1  -0.010262  0  -0.029602  -0.063062  0  4.016664  0
C  C199  1  0.42129456  0.48244892  0.25852442  1  -0.124928  0  -0.089136  -0.092394  0  4.012576  0
C  C200  1  0.49473515  0.46080288  0.27933496  1  0.015026  0  -0.094901  -0.195869  0  3.992027  0
C  C201  1  0.47854667  0.45089638  0.35040878  1  0.391864  0  0.087597  0.263939  0  4.038408  0
C  C202  1  0.39118425  0.46152517  0.40057874  1  -0.000607  0  -0.094194  -0.190326  0  3.979022  0
C  C203  1  0.31823266  0.48357299  0.37927531  1  -0.049155  0  -0.079774  -0.078102  0  3.992949  0
C  C204  1  0.56460280  0.48322141  0.39110175  1  0.391711  0  0.094915  0.285005  0  4.013881  0
C  C205  1  0.50155364  0.55257088  0.39942599  1  0.031703  0  -0.111328  -0.22387  0  4.00256  0
C  C206  1  0.52079066  0.60315489  0.41768221  1  -0.07422  0  -0.083955  -0.060556  0  4.001167  0
C  C207  1  0.60271163  0.58597983  0.42648800  1  -0.03944  0  -0.038013  -0.082166  0  4.034506  0
C  C208  1  0.66412109  0.51582106  0.41931981  1  -0.044842  0  -0.081739  -0.075364  0  4.00488  0
C  C209  1  0.64524936  0.46422134  0.40256244  1  0.004396  0  -0.100705  -0.200406  0  3.982394  0
C  C210  1  0.62420861  0.64204446  0.44121279  1  1.500023  0  0.184196  0.544769  0  4.229789  0
C  C211  1  0.10902854  0.69079810  0.20035982  1  0.499651  0  0.048453  0.093126  0  3.935518  0
C  C212  1  0.07807197  0.76218428  0.20993921  1  -0.064505  0  -0.079882  -0.17103  0  3.922739  0
C  C213  1  0.01194462  0.79201509  0.27470575  1  -0.021425  0  0.015656  0.114883  0  3.960041  0
C  C214  1  0.98080611  0.74701484  0.32700152  1  -0.007993  0  -0.082708  -0.170549  0  3.927595  0
C  C215  1  0.01626848  0.67598652  0.31371185  1  0.496504  0  0.055102  0.101653  0  3.940642  0
C  C216  1  0.97671732  0.86748162  0.28837903  1  -0.039532  0  0.006033  0.094461  0  3.979677  0
C  C217  1  0.03240384  0.90613415  0.25736154  1  -0.075266  0  -0.079929  -0.166338  0  3.930585  0
C  C218  1  0.99647553  0.97693982  0.27324152  1  0.555698  0  0.046449  0.09826  0  3.99761  0
C  C219  1  0.85739722  0.97392076  0.34664518  1  0.46977  0  0.039055  0.08285  0  4.034559  0
C  C220  1  0.88638871  0.90315799  0.33389024  1  0.000352  0  -0.084881  -0.176812  0  3.944684  0
C  C221  1  0.23980627  0.39624587  0.18745284  1  0.397999  0  0.055115  0.104119  0  3.924592  0
C  C222  1  0.27595104  0.32371041  0.18816785  1  0.072467  0  -0.078973  -0.167891  0  3.936332  0
C  C223  1  0.23938339  0.28852250  0.24849285  1  -0.10831  0  0.013887  0.106671  0  3.979433  0
C  C224  1  0.16721975  0.32894476  0.30600892  1  0.021717  0  -0.07722  -0.168327  0  3.927123  0
C  C225  1  0.13449051  0.40137273  0.30077557  1  0.497372  0  0.05968  0.10807  0  3.936769  0
C  C226  1  0.77123326  0.78597510  0.48237172  1  1.529066  0  0.179445  0.536527  0  4.263859  0
C  C227  1  0.82690017  0.80818896  0.50563592  1  -0.003575  0  -0.029591  -0.062503  0  4.016292  0
C  C228  1  0.90359318  0.75837887  0.51772006  1  -0.059924  0  -0.087876  -0.09113  0  4.013355  0
C  C229  1  0.95535150  0.77918586  0.53941071  1  0.032868  0  -0.097111  -0.198492  0  3.992478  0
C  C230  1  0.92934836  0.85028464  0.54917521  1  0.387932  0  0.088381  0.266439  0  4.032349  0
C  C231  1  0.85264434  0.90046144  0.53849845  1  -0.043722  0  -0.092337  -0.190282  0  3.972473  0
C  C232  1  0.80181446  0.87915448  0.51635573  1  -0.058203  0  -0.081401  -0.080155  0  3.989971  0
C  C233  1  0.04779125  0.89090108  0.51684147  1  0.407289  0  0.094049  0.282158  0  4.014962  0
C  C234  1  0.05408121  0.89914308  0.44749386  1  0.02363  0  -0.110504  -0.220958  0  4.001429  0
C  C235  1  0.12382061  0.91748389  0.39687237  1  -0.064726  0  -0.085842  -0.065134  0  4.001333  0
C  C236  1  0.18848194  0.92647620  0.41400619  1  -0.035985  0  -0.037323  -0.079981  0  4.032904  0
C  C237  1  0.17970892  0.91941233  0.48417166  1  -0.058164  0  -0.084902  -0.079063  0  4.009711  0
C  C238  1  0.10937261  0.90250144  0.53579603  1  0.043916  0  -0.097432  -0.19589  0  3.981069  0
C  C239  1  0.26608081  0.94116833  0.35793354  1  1.505839  0  0.184354  0.545715  0  4.231133  0
C  C240  1  0.79972024  0.70042220  0.30917108  1  0.475729  0  0.049939  0.092025  0  3.934806  0
C  C241  1  0.84012696  0.71000510  0.23777898  1  -0.074652  0  -0.082463  -0.170945  0  3.921876  0
C  C242  1  0.80383044  0.77479625  0.20796784  1  0.023139  0  0.016547  0.113887  0  3.960643  0
C  C243  1  0.72770159  0.82707655  0.25295510  1  -0.041932  0  -0.081397  -0.167871  0  3.925054  0
C  C244  1  0.69207794  0.81373876  0.32395913  1  0.490369  0  0.052498  0.099796  0  3.941759  0
C  C245  1  0.84402193  0.78850092  0.13249307  1  0.00096  0  0.004301  0.092867  0  3.98684  0
C  C246  1  0.93833787  0.75748663  0.09386686  1  -0.083061  0  -0.080234  -0.165695  0  3.937452  0
C  C247  1  0.97324614  0.77329876  0.02305164  1  0.543837  0  0.048201  0.09751  0  4.001137  0
C  C248  1  0.83124856  0.84655339  0.02593622  1  0.471735  0  0.040146  0.08614  0  4.032562  0
C  C249  1  0.78944955  0.83391575  0.09673268  1  -0.035909  0  -0.084019  -0.176439  0  3.943812  0
C  C250  1  0.63603598  0.68747362  0.60371607  1  0.407056  0  0.054928  0.104603  0  3.921783  0
C  C251  1  0.59962269  0.68819182  0.67625646  1  0.106911  0  -0.078713  -0.169545  0  3.935801  0
C  C252  1  0.52782717  0.74847483  0.71146710  1  -0.009373  0  0.014339  0.107282  0  3.978894  0
C  C253  1  0.49603589  0.80596557  0.67105416  1  -0.049272  0  -0.07833  -0.169357  0  3.925075  0
C  C254  1  0.53571060  0.80076835  0.59862344  1  0.50005  0  0.058185  0.106947  0  3.935215  0
C  C255  1  0.53963626  0.71395066  0.01753004  1  1.534673  0  0.179361  0.537744  0  4.264863  0
C  C256  1  0.64080214  0.69176628  0.99428440  1  -0.008952  0  -0.029659  -0.062543  0  4.016536  0
C  C257  1  0.67973226  0.74158267  0.98232694  1  -0.174643  0  -0.088551  -0.09339  0  4.01369  0
C  C258  1  0.77400542  0.72072633  0.96069833  1  0.030118  0  -0.097706  -0.198113  0  3.995027  0
C  C259  1  0.82890327  0.64964193  0.95093125  1  0.411093  0  0.088182  0.264381  0  4.037171  0
C  C260  1  0.79173037  0.59945045  0.96161137  1  -0.059099  0  -0.096412  -0.193167  0  3.978724  0
C  C261  1  0.69746466  0.62081668  0.98364299  1  0.032099  0  -0.077661  -0.075218  0  3.991755  0
C  C262  1  0.95563460  0.60904934  0.98323872  1  0.388506  0  0.093817  0.281707  0  4.013875  0
C  C263  1  0.90081095  0.60090544  0.05263399  1  0.011711  0  -0.110172  -0.219963  0  4.001626  0
C  C264  1  0.93832659  0.58252607  0.10321911  1  -0.005262  0  -0.083679  -0.061659  0  4.000538  0
C  C265  1  0.02910148  0.57360856  0.08603609  1  -0.041436  0  -0.038167  -0.081519  0  4.033  0
C  C266  1  0.08338230  0.58077182  0.01587549  1  -0.047501  0  -0.086181  -0.082748  0  4.008086  0
C  C267  1  0.04775342  0.59755620  0.96427526  1  -0.034253  0  -0.096929  -0.193914  0  3.977025  0
C  C268  1  0.06535557  0.55888513  0.14207517  1  1.517314  0  0.182473  0.544798  0  4.236979  0
C  C269  1  0.30926400  0.79964273  0.19078136  1  0.414336  0  0.048496  0.093693  0  3.934336  0
C  C270  1  0.28783209  0.79007064  0.26218018  1  0.030366  0  -0.08143  -0.170392  0  3.918673  0
C  C271  1  0.28635181  0.72531744  0.29200806  1  -0.043305  0  0.016837  0.116633  0  3.958957  0
C  C272  1  0.30750296  0.67303396  0.24701168  1  0.013063  0  -0.081414  -0.170686  0  3.928036  0
C  C273  1  0.32970287  0.68633268  0.17598941  1  0.458815  0  0.053323  0.101243  0  3.940687  0
C  C274  1  0.26476109  0.71162932  0.36749086  1  -0.053265  0  0.00574  0.092983  0  3.983831  0
C  C275  1  0.28945429  0.74262114  0.40611797  1  -0.006829  0  -0.080941  -0.167178  0  3.936441  0
C  C276  1  0.26936253  0.72678277  0.47693329  1  0.474924  0  0.047435  0.098437  0  3.996629  0
C  C277  1  0.20357664  0.65347510  0.47403061  1  0.52655  0  0.039098  0.083959  0  4.032957  0
C  C278  1  0.21996679  0.66613125  0.40323731  1  -0.032901  0  -0.086008  -0.175668  0  3.941879  0
C  C279  1  0.42713395  0.81246793  0.89623164  1  0.557808  0  0.053218  0.101995  0  3.923096  0
C  C280  1  0.46404158  0.81171942  0.82369732  1  -0.09136  0  -0.079489  -0.167991  0  3.935681  0
C  C281  1  0.48787140  0.75139452  0.78850345  1  -0.01746  0  0.017533  0.107799  0  3.977125  0
C  C282  1  0.47322539  0.69390627  0.82896702  1  -0.060144  0  -0.079782  -0.170769  0  3.925848  0
C  C283  1  0.43524319  0.69913482  0.90140099  1  0.49324  0  0.058594  0.107565  0  3.934146  0
C  C284  1  0.44284309  0.01757172  0.78576101  1  1.524448  0  0.17934  0.536863  0  4.265252  0
C  C285  1  0.36487246  0.99437209  0.80798425  1  -0.016915  0  -0.030927  -0.06505  0  4.019093  0
C  C286  1  0.33789010  0.98232322  0.75821632  1  -0.129496  0  -0.085941  -0.089689  0  4.011182  0
C  C287  1  0.26534383  0.96057815  0.77909391  1  0.059402  0  -0.099648  -0.201291  0  3.991144  0
C  C288  1  0.22029304  0.95079520  0.85020156  1  0.373416  0  0.087912  0.265355  0  4.032332  0
C  C289  1  0.24683688  0.96155256  0.90032368  1  -0.029135  0  -0.094484  -0.191452  0  3.971182  0
C  C290  1  0.31900309  0.98367696  0.87895766  1  -0.059157  0  -0.079443  -0.077031  0  3.988658  0
C  C291  1  0.06119879  0.98316156  0.89093435  1  0.406841  0  0.094584  0.283413  0  4.011856  0
C  C292  1  0.04671084  0.05252320  0.89914113  1  0.030412  0  -0.10964  -0.221124  0  4.000281  0
C  C293  1  0.95862924  0.10316626  0.91748192  1  -0.066128  0  -0.083666  -0.061493  0  4.001305  0
C  C294  1  0.88495297  0.08605211  0.92646394  1  -0.045846  0  -0.038371  -0.08285  0  4.033208  0
C  C295  1  0.90077496  0.01590418  0.91933793  1  -0.042563  0  -0.084786  -0.078498  0  4.008209  0
C  C296  1  0.98798811  0.96425020  0.90246361  1  0.006227  0  -0.098981  -0.198048  0  3.980463  0
C  C297  1  0.79263579  0.14209632  0.94119589  1  1.509867  0  0.182885  0.544989  0  4.231613  0
C  C298  1  0.49996289  0.19079681  0.70029605  1  0.419716  0  0.051147  0.093455  0  3.938943  0
C  C299  1  0.44993137  0.26217219  0.70992337  1  0.010977  0  -0.080616  -0.17002  0  3.923774  0
C  C300  1  0.42147565  0.29194362  0.77471127  1  0.00246  0  0.016483  0.11452  0  3.961839  0
C  C301  1  0.44534040  0.24690517  0.82695775  1  -0.043113  0  -0.082562  -0.171016  0  3.928338  0
C  C302  1  0.49426323  0.17590505  0.81359819  1  0.47989  0  0.05344  0.102897  0  3.941028  0
C  C303  1  0.36762118  0.36741648  0.78840554  1  -0.104418  0  0.006946  0.096188  0  3.982209  0
C  C304  1  0.30435501  0.40610308  0.75737275  1  0.0464  0  -0.080735  -0.166545  0  3.933932  0
C  C305  1  0.25360087  0.47690824  0.77323474  1  0.473423  0  0.04519  0.096372  0  3.996787  0
C  C306  1  0.32213993  0.47387325  0.84669041  1  0.515039  0  0.040348  0.084778  0  4.031513  0
C  C307  1  0.37664024  0.40310817  0.83395620  1  -0.045513  0  -0.087602  -0.179016  0  3.942178  0
C  C308  1  0.67664000  0.89623838  0.68752002  1  0.56026  0  0.053182  0.10459  0  3.921374  0
C  C309  1  0.71228746  0.82370605  0.68825139  1  -0.024331  0  -0.079801  -0.170852  0  3.936287  0
C  C310  1  0.72361413  0.78850048  0.74858223  1  -0.072606  0  0.015919  0.107534  0  3.979242  0
C  C311  1  0.69783634  0.82892808  0.80607594  1  -0.030032  0  -0.080008  -0.17039  0  3.927874  0
C  C312  1  0.66344661  0.90135554  0.80084613  1  0.5531  0  0.05996  0.10938  0  3.935808  0
C  C313  1  0.74642756  0.48242416  0.71386761  1  1.534389  0  0.178281  0.536681  0  4.26279  0
C  C314  1  0.66744123  0.50572490  0.69168687  1  -0.010782  0  -0.029609  -0.063095  0  4.016651  0
C  C315  1  0.57870515  0.51755275  0.74147422  1  -0.124954  0  -0.0892  -0.092443  0  4.012682  0
C  C316  1  0.50526340  0.53919722  0.72066628  1  0.015315  0  -0.094877  -0.195872  0  3.992067  0
C  C317  1  0.52145413  0.54910372  0.64959145  1  0.391388  0  0.087597  0.263939  0  4.038414  0
C  C318  1  0.60881649  0.53847075  0.59942112  1  -0.000519  0  -0.094183  -0.190225  0  3.979063  0
C  C319  1  0.68176960  0.51642189  0.62072291  1  -0.048734  0  -0.079806  -0.078166  0  3.99295  0
C  C320  1  0.43539969  0.51677973  0.60889817  1  0.391614  0  0.094865  0.284865  0  4.013916  0
C  C321  1  0.49844758  0.44742922  0.60057445  1  0.031673  0  -0.111287  -0.223772  0  4.002442  0
C  C322  1  0.47920500  0.39684782  0.58231679  1  -0.074263  0  -0.083974  -0.060594  0  4.001102  0
C  C323  1  0.39728315  0.41402289  0.57351127  1  -0.03877  0  -0.037959  -0.082184  0  4.034445  0
C  C324  1  0.33587558  0.48418479  0.58067978  1  -0.045445  0  -0.081766  -0.075331  0  4.004808  0
C  C325  1  0.35475224  0.53577981  0.59743773  1  0.004792  0  -0.100645  -0.200221  0  3.982342  0
C  C326  1  0.37578590  0.35795877  0.55878648  1  1.4996  0  0.184084  0.544568  0  4.230088  0
C  C327  1  0.89097106  0.30920252  0.79964136  1  0.49961  0  0.048472  0.093144  0  3.935497  0
C  C328  1  0.92192448  0.23781686  0.79005980  1  -0.0643  0  -0.079871  -0.171012  0  3.922725  0
C  C329  1  0.98805230  0.20798501  0.72529395  1  -0.021493  0  0.015637  0.114829  0  3.960056  0
C  C330  1  0.01919233  0.25298578  0.67299765  1  -0.007939  0  -0.082709  -0.170536  0  3.927528  0
C  C331  1  0.98372907  0.32401306  0.68628875  1  0.496395  0  0.055069  0.101568  0  3.940682  0
C  C332  1  0.02328186  0.13251848  0.71161966  1  -0.039713  0  0.006051  0.0945  0  3.979687  0
C  C333  1  0.96759361  0.09386699  0.74263582  1  -0.075101  0  -0.079966  -0.166377  0  3.930639  0
C  C334  1  0.00352071  0.02306184  0.72675679  1  0.555886  0  0.046437  0.098266  0  3.997732  0
C  C335  1  0.14260101  0.02607934  0.65335447  1  0.469778  0  0.039009  0.082776  0  4.034649  0
C  C336  1  0.11360968  0.09684211  0.66610734  1  0.000397  0  -0.084879  -0.176786  0  3.944695  0
C  C337  1  0.76019521  0.60375266  0.81254877  1  0.398031  0  0.055128  0.104105  0  3.924677  0
C  C338  1  0.72404704  0.67628917  0.81183159  1  0.072381  0  -0.078955  -0.167834  0  3.936247  0
C  C339  1  0.76061783  0.71147603  0.75150648  1  -0.108288  0  0.013896  0.106594  0  3.979366  0
C  C340  1  0.83278304  0.67105325  0.69399035  1  0.021528  0  -0.077241  -0.168296  0  3.927202  0
C  C341  1  0.86551175  0.59862528  0.69922488  1  0.497253  0  0.059674  0.108019  0  3.936906  0
C  C342  1  0.22876618  0.21402813  0.51762575  1  1.528802  0  0.179444  0.536358  0  4.263899  0
C  C343  1  0.17309754  0.19181480  0.49436367  1  -0.003471  0  -0.029698  -0.062572  0  4.016148  0
C  C344  1  0.09640138  0.24162436  0.48228426  1  -0.060569  0  -0.087791  -0.091121  0  4.013197  0
C  C345  1  0.04464370  0.22081947  0.46058872  1  0.033334  0  -0.097074  -0.198455  0  3.992117  0
C  C346  1  0.07065040  0.14971703  0.45082439  1  0.387976  0  0.088363  0.266518  0  4.032148  0
C  C347  1  0.14735405  0.09954179  0.46150136  1  -0.043706  0  -0.092374  -0.19028  0  3.972355  0
C  C348  1  0.19818476  0.12084510  0.48364572  1  -0.058077  0  -0.081432  -0.080279  0  3.98983  0
C  C349  1  0.95220557  0.10909902  0.48315960  1  0.407211  0  0.094095  0.282244  0  4.015056  0
C  C350  1  0.94591562  0.10085911  0.55250489  1  0.023938  0  -0.110487  -0.220873  0  4.001439  0
C  C351  1  0.87618149  0.08251203  0.60312675  1  -0.065006  0  -0.085915  -0.065328  0  4.001401  0
C  C352  1  0.81152117  0.07351868  0.58599245  1  -0.036107  0  -0.037288  -0.079827  0  4.032905  0
C  C353  1  0.82029345  0.08058412  0.51582629  1  -0.057833  0  -0.084785  -0.078991  0  4.009804  0
C  C354  1  0.89062882  0.09749501  0.46420287  1  0.043798  0  -0.09751  -0.196009  0  3.981165  0
C  C355  1  0.73392371  0.05882654  0.64206367  1  1.505476  0  0.184304  0.545614  0  4.23114  0
C  C356  1  0.20027967  0.29957790  0.69082942  1  0.475877  0  0.049957  0.092033  0  3.934714  0
C  C357  1  0.15987080  0.28999500  0.76222115  1  -0.07464  0  -0.082531  -0.170996  0  3.92188  0
C  C358  1  0.19616926  0.22520437  0.79203196  1  0.023555  0  0.01658  0.113892  0  3.960789  0
C  C359  1  0.27229844  0.17292616  0.74704397  1  -0.042233  0  -0.081409  -0.16793  0  3.92504  0
C  C360  1  0.30791998  0.18626134  0.67603892  1  0.490274  0  0.052522  0.099947  0  3.941526  0
C  C361  1  0.15597667  0.21150023  0.86750631  1  0.000939  0  0.004317  0.092894  0  3.986885  0
C  C362  1  0.06166236  0.24251295  0.90613294  1  -0.083015  0  -0.080232  -0.165733  0  3.937483  0
C  C363  1  0.02675340  0.22670135  0.97694796  1  0.543813  0  0.048212  0.097585  0  4.00106  0
C  C364  1  0.16875020  0.15344985  0.97406448  1  0.471424  0  0.040131  0.086127  0  4.032639  0
C  C365  1  0.21054937  0.16608488  0.90326602  1  -0.035835  0  -0.08402  -0.176453  0  3.943832  0
C  C366  1  0.36396535  0.31252544  0.39628417  1  0.407051  0  0.054912  0.104569  0  3.921774  0
C  C367  1  0.40037770  0.31180828  0.32374356  1  0.106956  0  -0.078729  -0.169543  0  3.93578  0
C  C368  1  0.47217416  0.25152527  0.28853196  1  -0.009364  0  0.014366  0.107268  0  3.978919  0
C  C369  1  0.50396408  0.19403557  0.32894448  1  -0.049143  0  -0.078338  -0.169384  0  3.92523  0
C  C370  1  0.46428853  0.19923175  0.40137594  1  0.500482  0  0.058184  0.106877  0  3.935274  0
C  C371  1  0.46036181  0.28604840  0.98247285  1  1.534595  0  0.179286  0.537633  0  4.265074  0
C  C372  1  0.35919715  0.30823486  0.00571748  1  -0.009475  0  -0.029668  -0.06256  0  4.016658  0
C  C373  1  0.32026540  0.25841795  0.01767684  1  -0.174149  0  -0.088585  -0.093412  0  4.013558  0
C  C374  1  0.22599087  0.27927638  0.03930386  1  0.030025  0  -0.097702  -0.198186  0  3.994836  0
C  C375  1  0.17109412  0.35036079  0.04907365  1  0.411194  0  0.088276  0.264478  0  4.036928  0
C  C376  1  0.20826897  0.40055226  0.03839093  1  -0.059184  0  -0.096467  -0.193191  0  3.978771  0
C  C377  1  0.30253515  0.37918551  0.01635655  1  0.032258  0  -0.077646  -0.075273  0  3.991866  0
C  C378  1  0.04436326  0.39095076  0.01676576  1  0.388886  0  0.09392  0.281906  0  4.013636  0
C  C379  1  0.09918870  0.39909675  0.94736762  1  0.011645  0  -0.110312  -0.220191  0  4.001434  0
C  C380  1  0.06167238  0.41747560  0.89678345  1  -0.005449  0  -0.083665  -0.061736  0  4.000509  0
C  C381  1  0.97089681  0.42639206  0.91396515  1  -0.04141  0  -0.038205  -0.081487  0  4.03297  0
C  C382  1  0.91661677  0.41922723  0.98412574  1  -0.047508  0  -0.08617  -0.082659  0  4.007978  0
C  C383  1  0.95224581  0.40244390  0.03572847  1  -0.034205  0  -0.096976  -0.194121  0  3.977035  0
C  C384  1  0.93464644  0.44111550  0.85792294  1  1.517322  0  0.18259  0.544748  0  4.237165  0
C  C385  1  0.69073711  0.20035476  0.80922051  1  0.414247  0  0.04858  0.093792  0  3.934483  0
C  C386  1  0.71217175  0.20992581  0.73782137  1  0.031034  0  -0.081445  -0.170502  0  3.918884  0
C  C387  1  0.71364793  0.27468005  0.70799455  1  -0.043787  0  0.016868  0.116687  0  3.958891  0
C  C388  1  0.69249920  0.32696405  0.75299015  1  0.013012  0  -0.081361  -0.170553  0  3.927986  0
C  C389  1  0.67029567  0.31366480  0.82401188  1  0.458943  0  0.053321  0.101211  0  3.940463  0
C  C390  1  0.73524165  0.28836765  0.63251027  1  -0.052605  0  0.005684  0.093009  0  3.983618  0
C  C391  1  0.71055223  0.25737478  0.59388051  1  -0.006372  0  -0.080964  -0.167214  0  3.936387  0
C  C392  1  0.73064388  0.27321315  0.52306657  1  0.474514  0  0.047458  0.098378  0  3.996631  0
C  C393  1  0.79642558  0.34652605  0.52597275  1  0.526786  0  0.039119  0.083956  0  4.032787  0
C  C394  1  0.78003495  0.33386572  0.59676547  1  -0.033239  0  -0.086027  -0.17574  0  3.941743  0
C  C395  1  0.57286554  0.18753060  0.10376753  1  0.557769  0  0.053283  0.102154  0  3.923078  0
C  C396  1  0.53595654  0.18827911  0.17630259  1  -0.091392  0  -0.079426  -0.167908  0  3.935742  0
C  C397  1  0.51213082  0.24860402  0.21149423  1  -0.017509  0  0.017577  0.107834  0  3.977255  0
C  C398  1  0.52677479  0.30609331  0.17103348  1  -0.060029  0  -0.079767  -0.170749  0  3.925915  0
C  C399  1  0.56475839  0.30086372  0.09859924  1  0.493255  0  0.058599  0.107641  0  3.934029  0
N  N400  1  0.47843313  0.85193766  0.24886720  1  -1.250112  0  -0.327037  -0.224584  0  3.578443  0
N  N401  1  0.73888449  0.48887499  0.18255350  1  -1.191377  0  -0.328102  -0.278825  0  3.300659  0
N  N402  1  0.34686625  0.06541812  0.25749053  1  -1.230715  0  -0.3179  -0.212538  0  3.537251  0
N  N403  1  0.07929022  0.64810650  0.25124965  1  -1.27378  0  -0.326522  -0.224052  0  3.57814  0
N  N404  1  0.91048675  0.01112831  0.31745290  1  -1.195346  0  -0.328238  -0.277935  0  3.302189  0
N  N405  1  0.16994636  0.43459302  0.24243572  1  -1.253554  0  -0.317985  -0.21056  0  3.537809  0
N  N406  1  0.72723251  0.75129768  0.35184757  1  -1.251609  0  -0.324836  -0.222544  0  3.57625  0
N  N407  1  0.92154307  0.81737763  0.98876340  1  -1.209801  0  -0.328622  -0.278476  0  3.30284  0
N  N408  1  0.60444506  0.74246069  0.56539833  1  -1.238245  0  -0.316974  -0.210301  0  3.536993  0
N  N409  1  0.33034295  0.74877450  0.14810330  1  -1.250481  0  -0.324581  -0.224885  0  3.576482  0
N  N410  1  0.22742977  0.68269221  0.51122932  1  -1.194651  0  -0.327209  -0.277822  0  3.299147  0
N  N411  1  0.41230850  0.75747969  0.93460681  1  -1.222668  0  -0.316764  -0.208486  0  3.534717  0
N  N412  1  0.52156489  0.14806348  0.75113404  1  -1.250116  0  -0.327088  -0.224705  0  3.578561  0
N  N413  1  0.26112628  0.51112302  0.81744408  1  -1.191217  0  -0.32814  -0.278873  0  3.300871  0
N  N414  1  0.65313477  0.93458094  0.74250811  1  -1.23138  0  -0.317987  -0.212545  0  3.53729  0
N  N415  1  0.92070790  0.35189360  0.74875137  1  -1.273711  0  -0.326497  -0.223967  0  3.578085  0
N  N416  1  0.08951143  0.98887179  0.68254743  1  -1.195329  0  -0.328132  -0.277821  0  3.302218  0
N  N417  1  0.83005313  0.56540604  0.75756573  1  -1.253433  0  -0.317957  -0.210523  0  3.537813  0
N  N418  1  0.27276536  0.24870347  0.64815001  1  -1.251651  0  -0.324885  -0.222579  0  3.576262  0
N  N419  1  0.07845416  0.18262142  0.01123905  1  -1.209415  0  -0.328643  -0.278536  0  3.302689  0
N  N420  1  0.39555317  0.25753836  0.43460249  1  -1.238204  0  -0.316968  -0.210281  0  3.536933  0
N  N421  1  0.66965654  0.25122299  0.85189704  1  -1.250488  0  -0.324586  -0.224839  0  3.576385  0
N  N422  1  0.77257502  0.31730580  0.48877240  1  -1.194791  0  -0.327232  -0.277788  0  3.29901  0
N  N423  1  0.58769063  0.24251936  0.06539374  1  -1.222568  0  -0.316774  -0.208594  0  3.534824  0
O  O424  1  0.53297483  0.97268857  0.16862504  1  -1.172015  0  -0.340535  -0.574356  0  2.127153  0
O  O425  1  0.51637041  0.97422494  0.28023986  1  -1.173215  0  -0.342052  -0.559886  0  2.205604  0
O  O426  1  0.85315640  0.06973473  0.12919862  1  -1.088311  0  -0.15577  -0.216487  0  2.507733  0
O  O427  1  0.21846634  0.79426753  0.05742837  1  -1.165215  0  -0.339456  -0.56488  0  2.137292  0
O  O428  1  0.27477238  0.87506711  0.04942199  1  -1.175996  0  -0.342235  -0.563891  0  2.195449  0
O  O429  1  0.17405213  0.52724873  0.33173439  1  -1.175372  0  -0.340336  -0.574309  0  2.124292  0
O  O430  1  0.27058634  0.52599744  0.22013160  1  -1.172873  0  -0.34097  -0.559715  0  2.205477  0
O  O431  1  0.55193379  0.43035586  0.37096461  1  -1.088915  0  -0.15677  -0.217121  0  2.509185  0
O  O432  1  0.57027923  0.70568945  0.44263190  1  -1.171849  0  -0.340034  -0.565335  0  2.139344  0
O  O433  1  0.69941088  0.62490653  0.45055357  1  -1.168864  0  -0.342975  -0.56384  0  2.190893  0
O  O434  1  0.70136440  0.83158401  0.47273911  1  -1.178546  0  -0.341757  -0.575267  0  2.125913  0
O  O435  1  0.79657420  0.71998585  0.47402595  1  -1.173129  0  -0.341817  -0.559732  0  2.206544  0
O  O436  1  0.98224808  0.87078968  0.56971528  1  -1.103844  0  -0.157366  -0.21767  0  2.510538  0
O  O437  1  0.27589559  0.94250641  0.29428205  1  -1.165204  0  -0.339649  -0.565444  0  2.136822  0
O  O438  1  0.32407956  0.95055202  0.37513344  1  -1.172845  0  -0.343484  -0.56469  0  2.192876  0
O  O439  1  0.50570889  0.66835311  0.02724450  1  -1.174837  0  -0.341114  -0.575055  0  2.127657  0
O  O440  1  0.49065372  0.77995474  0.02585243  1  -1.174765  0  -0.341509  -0.560392  0  2.204999  0
O  O441  1  0.92286345  0.62910373  0.93035493  1  -1.087965  0  -0.155616  -0.216001  0  2.5093  0
O  O442  1  0.01289308  0.55747846  0.20574190  1  -1.177864  0  -0.338459  -0.564899  0  2.138951  0
O  O443  1  0.14993971  0.54952318  0.12485937  1  -1.171824  0  -0.342957  -0.564443  0  2.196823  0
O  O444  1  0.46702240  0.02730944  0.83137286  1  -1.172259  0  -0.340432  -0.574271  0  2.127248  0
O  O445  1  0.48362976  0.02577463  0.71975490  1  -1.172778  0  -0.342111  -0.5599  0  2.205726  0
O  O446  1  0.14684640  0.93026432  0.87080522  1  -1.08871  0  -0.155775  -0.21649  0  2.507698  0
O  O447  1  0.78153431  0.20573623  0.94257271  1  -1.165445  0  -0.339515  -0.564951  0  2.137075  0
O  O448  1  0.72522974  0.12493561  0.95057813  1  -1.17588  0  -0.342288  -0.563938  0  2.195327  0
O  O449  1  0.82594558  0.47275032  0.66826759  1  -1.175278  0  -0.340339  -0.57432  0  2.124447  0
O  O450  1  0.72941425  0.47400109  0.77987028  1  -1.172981  0  -0.340969  -0.559616  0  2.205682  0
O  O451  1  0.44806481  0.56964372  0.62903939  1  -1.088844  0  -0.156761  -0.217112  0  2.509214  0
O  O452  1  0.42971455  0.29431275  0.55736674  1  -1.171906  0  -0.33993  -0.565185  0  2.139521  0
O  O453  1  0.30058583  0.37509252  0.54944432  1  -1.168876  0  -0.342968  -0.563781  0  2.190958  0
O  O454  1  0.29862759  0.16841923  0.52726462  1  -1.178429  0  -0.341755  -0.575123  0  2.125874  0
O  O455  1  0.20342174  0.28001895  0.52597301  1  -1.173087  0  -0.341785  -0.559665  0  2.206592  0
O  O456  1  0.01774282  0.12921773  0.43028681  1  -1.103672  0  -0.157372  -0.217742  0  2.510576  0
O  O457  1  0.72410809  0.05749003  0.70571585  1  -1.165074  0  -0.339594  -0.565382  0  2.13689  0
O  O458  1  0.67592135  0.04944547  0.62486546  1  -1.17279  0  -0.343501  -0.564699  0  2.19275  0
O  O459  1  0.49428950  0.33164752  0.97275536  1  -1.174778  0  -0.341046  -0.574974  0  2.127618  0
O  O460  1  0.50934199  0.22004484  0.97414939  1  -1.174707  0  -0.341526  -0.5604  0  2.205068  0
O  O461  1  0.07713489  0.37089898  0.06964902  1  -1.088127  0  -0.155711  -0.216064  0  2.509212  0
O  O462  1  0.98710568  0.44252321  0.79425770  1  -1.177939  0  -0.33848  -0.564815  0  2.139058  0
O  O463  1  0.85006319  0.45047587  0.87513736  1  -1.171729  0  -0.343011  -0.56446  0  2.196981  0
