# generated using pymatgen
data_ZnH6(C3N2)2
_symmetry_space_group_name_H-M   'P 1'
_cell_length_a   9.72261348
_cell_length_b   23.65937869
_cell_length_c   41.72015283
_cell_angle_alpha   90.00007951
_cell_angle_beta   89.99984210
_cell_angle_gamma   90.00003504
_symmetry_Int_Tables_number   1
_chemical_formula_structural   ZnH6(C3N2)2
_chemical_formula_sum   'Zn24 H144 C144 N96'
_cell_volume   9596.92822936
_cell_formula_units_Z   24
loop_
 _symmetry_equiv_pos_site_id
 _symmetry_equiv_pos_as_xyz
  1  'x, y, z'
loop_
 _atom_site_type_symbol
 _atom_site_label
 _atom_site_symmetry_multiplicity
 _atom_site_fract_x
 _atom_site_fract_y
 _atom_site_fract_z
 _atom_site_occupancy
 _atom_site_pbe_bader_charge
 _atom_site_pbe_bader_spin_density
 _atom_site_pbe_cm5_charge
 _atom_site_pbe_ddec_charge
 _atom_site_pbe_ddec_spin_density
 _atom_site_pbe_ddec_sum_bond_order
 _atom_site_pbe_magmom
Zn  Zn0  1  0.79740501  0.50257698  0.91665910  1  1.182491  0  0.715628  0.619088  0  2.586898  0
Zn  Zn1  1  0.70259499  0.49742279  0.41665928  1  1.182497  0  0.715661  0.619143  0  2.586786  0
Zn  Zn2  1  0.29740703  0.99742297  0.58334068  1  1.182341  0  0.715662  0.619173  0  2.586755  0
Zn  Zn3  1  0.20259421  0.00257754  0.08334119  1  1.182367  0  0.715656  0.619158  0  2.586786  0
Zn  Zn4  1  0.20259561  0.49742232  0.08334139  1  1.182497  0  0.715621  0.61904  0  2.586909  0
Zn  Zn5  1  0.29740563  0.50257735  0.58334073  1  1.18248  0  0.71564  0.619148  0  2.586808  0
Zn  Zn6  1  0.70259360  0.00257717  0.41665932  1  1.18235  0  0.715628  0.619133  0  2.586763  0
Zn  Zn7  1  0.79740435  0.99742302  0.91665833  1  1.182503  0  0.715661  0.619075  0  2.586873  0
Zn  Zn8  1  0.70024078  0.37575937  0.03915678  1  1.180318  0  0.715865  0.620905  0  2.583009  0
Zn  Zn9  1  0.79976268  0.62423989  0.53915645  1  1.180327  0  0.715869  0.620925  0  2.582924  0
Zn  Zn10  1  0.20023776  0.12424012  0.46084345  1  1.180321  0  0.715845  0.620891  0  2.582998  0
Zn  Zn11  1  0.29975900  0.87575921  0.96084332  1  1.180494  0  0.715851  0.620925  0  2.582986  0
Zn  Zn12  1  0.29975881  0.62424035  0.96084346  1  1.180511  0  0.715843  0.620953  0  2.582956  0
Zn  Zn13  1  0.20024000  0.37575940  0.46084355  1  1.180306  0  0.715862  0.62092  0  2.582963  0
Zn  Zn14  1  0.79976390  0.87575960  0.53915655  1  1.180313  0  0.715851  0.620909  0  2.582944  0
Zn  Zn15  1  0.70023957  0.12424093  0.03915620  1  1.180261  0  0.715864  0.620888  0  2.582961  0
Zn  Zn16  1  0.79531466  0.37644756  0.79185605  1  1.18578  0  0.71522  0.6203  0  2.58042  0
Zn  Zn17  1  0.70468272  0.62355359  0.29185657  1  1.185794  0  0.715226  0.620305  0  2.580415  0
Zn  Zn18  1  0.29531669  0.12355233  0.70814429  1  1.185784  0  0.715171  0.620194  0  2.580469  0
Zn  Zn19  1  0.20468101  0.87644680  0.20814405  1  1.185801  0  0.715149  0.62019  0  2.58048  0
Zn  Zn20  1  0.20468493  0.62355300  0.20814395  1  1.185794  0  0.715166  0.620192  0  2.580484  0
Zn  Zn21  1  0.29531482  0.37644570  0.70814319  1  1.185799  0  0.715232  0.620375  0  2.580425  0
Zn  Zn22  1  0.70468188  0.87644696  0.29185571  1  1.185791  0  0.71512  0.620176  0  2.580569  0
Zn  Zn23  1  0.79531756  0.12355335  0.79185619  1  1.185815  0  0.715176  0.620273  0  2.580471  0
H  H24  1  0.79929395  0.47585786  0.99258882  1  0.117899  0  0.122608  0.077382  0  1.011177  0
H  H25  1  0.70070001  0.52414379  0.49258806  1  0.117905  0  0.122611  0.077437  0  1.011113  0
H  H26  1  0.29930233  0.02414458  0.50741129  1  0.117874  0  0.122613  0.077441  0  1.011197  0
H  H27  1  0.20069672  0.97585575  0.00741136  1  0.117852  0  0.122625  0.077408  0  1.011147  0
H  H28  1  0.20069844  0.52414355  0.00741191  1  0.117864  0  0.122609  0.077375  0  1.011176  0
H  H29  1  0.29930267  0.47585593  0.50741098  1  0.11784  0  0.122604  0.077389  0  1.011176  0
H  H30  1  0.70069829  0.97585641  0.49258848  1  0.117866  0  0.122609  0.077422  0  1.01118  0
H  H31  1  0.79929979  0.02414439  0.99258768  1  0.117898  0  0.12263  0.077438  0  1.011116  0
H  H32  1  0.62834096  0.31685448  0.97088012  1  0.069689  0  0.108214  0.09684  0  1.025019  0
H  H33  1  0.87166355  0.68314542  0.47087962  1  0.069897  0  0.108242  0.096912  0  1.024959  0
H  H34  1  0.12833492  0.18314495  0.52912058  1  0.069917  0  0.108254  0.096926  0  1.024946  0
H  H35  1  0.37166285  0.81685458  0.02912042  1  0.069807  0  0.108226  0.096865  0  1.024992  0
H  H36  1  0.37166069  0.68314524  0.02912061  1  0.069713  0  0.108245  0.096919  0  1.024981  0
H  H37  1  0.12833707  0.31685556  0.52912063  1  0.069839  0  0.108274  0.096936  0  1.024968  0
H  H38  1  0.87166365  0.81685477  0.47087991  1  0.069808  0  0.108243  0.096901  0  1.024945  0
H  H39  1  0.62833777  0.18314640  0.97087934  1  0.069761  0  0.108246  0.096964  0  1.024972  0
H  H40  1  0.67074763  0.37630441  0.91441317  1  0.096697  0  0.108234  0.098888  0  1.028575  0
H  H41  1  0.82925858  0.62369535  0.41441265  1  0.096652  0  0.108217  0.098921  0  1.02862  0
H  H42  1  0.17074392  0.12369461  0.58558725  1  0.096667  0  0.108238  0.098915  0  1.028612  0
H  H43  1  0.32925627  0.87630634  0.08558693  1  0.096691  0  0.108246  0.098936  0  1.028551  0
H  H44  1  0.32925505  0.62369446  0.08558731  1  0.09667  0  0.108246  0.098936  0  1.028611  0
H  H45  1  0.17074513  0.37630648  0.58558711  1  0.096695  0  0.10823  0.098935  0  1.02857  0
H  H46  1  0.82925671  0.87630469  0.41441275  1  0.09667  0  0.108242  0.09892  0  1.028598  0
H  H47  1  0.67074333  0.12369592  0.91441235  1  0.096637  0  0.108218  0.098918  0  1.028576  0
H  H48  1  0.87727472  0.40677052  0.86481862  1  0.102855  0  0.126632  0.082894  0  0.995884  0
H  H49  1  0.62272693  0.59322997  0.36481941  1  0.102831  0  0.12664  0.082915  0  0.995862  0
H  H50  1  0.37727449  0.09322982  0.63518071  1  0.102832  0  0.126626  0.082943  0  0.99588  0
H  H51  1  0.12272613  0.90677040  0.13518151  1  0.102861  0  0.126647  0.082985  0  0.995838  0
H  H52  1  0.12272899  0.59323005  0.13518139  1  0.102889  0  0.126662  0.082997  0  0.995819  0
H  H53  1  0.37727266  0.40677017  0.63518036  1  0.102856  0  0.126661  0.082955  0  0.995782  0
H  H54  1  0.62272716  0.90676990  0.36481905  1  0.102832  0  0.126648  0.08294  0  0.995854  0
H  H55  1  0.87727449  0.09322974  0.86481850  1  0.102862  0  0.126648  0.083009  0  0.995838  0
H  H56  1  0.59504034  0.48321874  0.80170560  1  0.10388  0  0.110997  0.105082  0  1.017869  0
H  H57  1  0.90495589  0.51678117  0.30170494  1  0.103861  0  0.111044  0.105185  0  1.017828  0
H  H58  1  0.09504439  0.01678111  0.69829488  1  0.103897  0  0.111033  0.105192  0  1.017745  0
H  H59  1  0.40495652  0.98321842  0.19829531  1  0.103851  0  0.111016  0.105137  0  1.017798  0
H  H60  1  0.40495720  0.51678056  0.19829537  1  0.103846  0  0.111031  0.105159  0  1.017854  0
H  H61  1  0.09504165  0.48321897  0.69829434  1  0.103899  0  0.111027  0.105142  0  1.017838  0
H  H62  1  0.90495727  0.98321861  0.30170513  1  0.103869  0  0.111014  0.105146  0  1.017791  0
H  H63  1  0.59504205  0.01678130  0.80170469  1  0.103844  0  0.110996  0.105089  0  1.017829  0
H  H64  1  0.59765045  0.54242366  0.85941945  1  0.095048  0  0.11121  0.105371  0  1.015525  0
H  H65  1  0.90235024  0.45757681  0.35941876  1  0.095071  0  0.111216  0.105387  0  1.015509  0
H  H66  1  0.09765172  0.95757582  0.64058117  1  0.095071  0  0.111217  0.105432  0  1.015476  0
H  H67  1  0.40235089  0.04242315  0.14058183  1  0.095082  0  0.111193  0.105379  0  1.015498  0
H  H68  1  0.40235120  0.45757606  0.14058127  1  0.09504  0  0.111212  0.105393  0  1.015493  0
H  H69  1  0.09764936  0.54242333  0.64058053  1  0.095037  0  0.111221  0.105395  0  1.015511  0
H  H70  1  0.90234993  0.04242306  0.35941883  1  0.095079  0  0.111209  0.105379  0  1.015486  0
H  H71  1  0.59764973  0.95757657  0.85941842  1  0.095069  0  0.111201  0.105389  0  1.01555  0
H  H72  1  0.52181944  0.52586205  0.95461759  1  0.088035  0  0.124641  0.08333  0  1.003774  0
H  H73  1  0.97818218  0.47413782  0.45461686  1  0.088049  0  0.124639  0.083359  0  1.003768  0
H  H74  1  0.02182392  0.97413657  0.54538308  1  0.088111  0  0.12465  0.083314  0  1.003726  0
H  H75  1  0.47817776  0.02586301  0.04538296  1  0.088098  0  0.124648  0.083333  0  1.003733  0
H  H76  1  0.47818015  0.47413767  0.04538242  1  0.088037  0  0.124654  0.083373  0  1.003751  0
H  H77  1  0.02182359  0.52586359  0.54538291  1  0.08811  0  0.124672  0.083365  0  1.003781  0
H  H78  1  0.97817773  0.02586358  0.45461668  1  0.08811  0  0.124671  0.083362  0  1.003771  0
H  H79  1  0.52181875  0.97413840  0.95461728  1  0.08802  0  0.124661  0.083393  0  1.003714  0
H  H80  1  0.54563638  0.69649287  0.92629536  1  0.09452  0  0.106805  0.09735  0  1.035231  0
H  H81  1  0.95436249  0.30350692  0.42629547  1  0.097558  0  0.1068  0.097353  0  1.03523  0
H  H82  1  0.04564130  0.80350617  0.57370553  1  0.097548  0  0.106779  0.097308  0  1.035266  0
H  H83  1  0.45436211  0.19649390  0.07370556  1  0.094483  0  0.106773  0.097303  0  1.035299  0
H  H84  1  0.45436116  0.30350685  0.07370464  1  0.097563  0  0.1068  0.09734  0  1.035229  0
H  H85  1  0.04564122  0.69649406  0.57370549  1  0.094496  0  0.106771  0.097306  0  1.035287  0
H  H86  1  0.95436035  0.19649355  0.42629471  1  0.094501  0  0.106771  0.097311  0  1.035282  0
H  H87  1  0.54563646  0.80350751  0.92629540  1  0.09758  0  0.106802  0.097344  0  1.035273  0
H  H88  1  0.78152467  0.64003154  0.90634352  1  0.100118  0  0.11147  0.104405  0  1.010938  0
H  H89  1  0.71847340  0.35996735  0.40634430  1  0.10013  0  0.111492  0.104462  0  1.010892  0
H  H90  1  0.28152944  0.85996713  0.59365651  1  0.099923  0  0.111473  0.104449  0  1.010985  0
H  H91  1  0.21847270  0.14003341  0.09365688  1  0.100063  0  0.111497  0.104466  0  1.010978  0
H  H92  1  0.21847286  0.35996860  0.09365601  1  0.100109  0  0.111485  0.104435  0  1.010926  0
H  H93  1  0.28153031  0.64003321  0.59365666  1  0.099913  0  0.111491  0.104531  0  1.010925  0
H  H94  1  0.71847015  0.14003301  0.40634397  1  0.100072  0  0.111499  0.104471  0  1.011019  0
H  H95  1  0.78152587  0.85996843  0.90634384  1  0.100119  0  0.111474  0.104429  0  1.010934  0
H  H96  1  0.00820365  0.42606787  0.03746048  1  0.101536  0  0.125618  0.082666  0  0.997916  0
H  H97  1  0.49179505  0.57393295  0.53746047  1  0.101505  0  0.125649  0.082718  0  0.997926  0
H  H98  1  0.50820017  0.07393115  0.46253988  1  0.101621  0  0.12561  0.082655  0  0.997924  0
H  H99  1  0.99179621  0.92606662  0.96253942  1  0.101578  0  0.125628  0.082658  0  0.997975  0
H  H100  1  0.99179492  0.57393227  0.96253905  1  0.101541  0  0.125626  0.082677  0  0.997919  0
H  H101  1  0.50820249  0.42606846  0.46254026  1  0.101528  0  0.125622  0.082672  0  0.997887  0
H  H102  1  0.49179634  0.92606688  0.53746037  1  0.101519  0  0.125659  0.082725  0  0.997938  0
H  H103  1  0.00820236  0.07393183  0.03745962  1  0.101557  0  0.125672  0.082772  0  0.997947  0
H  H104  1  0.91681486  0.50941982  0.12412433  1  0.094463  0  0.108309  0.097875  0  1.028713  0
H  H105  1  0.58318451  0.49057923  0.62412332  1  0.094457  0  0.108299  0.097824  0  1.028787  0
H  H106  1  0.41681339  0.99057894  0.37587639  1  0.094439  0  0.108331  0.097951  0  1.028657  0
H  H107  1  0.08318540  0.00941892  0.87587572  1  0.094492  0  0.108296  0.097831  0  1.028815  0
H  H108  1  0.08318370  0.49058033  0.87587519  1  0.094442  0  0.108295  0.097845  0  1.028743  0
H  H109  1  0.41681509  0.50942091  0.37587669  1  0.094454  0  0.108299  0.097855  0  1.028781  0
H  H110  1  0.58318518  0.00942036  0.62412337  1  0.09446  0  0.108341  0.097927  0  1.028687  0
H  H111  1  0.91681213  0.99057996  0.12412308  1  0.094488  0  0.108235  0.097682  0  1.028791  0
H  H112  1  0.68265260  0.45433759  0.10212063  1  0.086971  0  0.10995  0.102569  0  1.023584  0
H  H113  1  0.81734703  0.54566183  0.60211999  1  0.086997  0  0.109952  0.102586  0  1.023551  0
H  H114  1  0.18265124  0.04566232  0.39787913  1  0.08695  0  0.109943  0.10258  0  1.023622  0
H  H115  1  0.31734730  0.95433770  0.89787953  1  0.086981  0  0.109953  0.102523  0  1.02365  0
H  H116  1  0.31734699  0.54566298  0.89787889  1  0.086979  0  0.109956  0.102583  0  1.023595  0
H  H117  1  0.18265360  0.45433789  0.39787977  1  0.086991  0  0.109923  0.102502  0  1.023585  0
H  H118  1  0.81734733  0.95433698  0.60212039  1  0.086985  0  0.109945  0.102517  0  1.023593  0
H  H119  1  0.68265024  0.04566286  0.10211999  1  0.086959  0  0.109962  0.102562  0  1.023611  0
H  H120  1  0.51015794  0.33159889  0.76096218  1  0.101944  0  0.122692  0.078889  0  1.004786  0
H  H121  1  0.98984083  0.66840177  0.26096304  1  0.10182  0  0.122681  0.078876  0  1.004699  0
H  H122  1  0.01016276  0.16839671  0.73903786  1  0.101958  0  0.122673  0.078894  0  1.004664  0
H  H123  1  0.48983869  0.83159827  0.23903740  1  0.101851  0  0.122722  0.078929  0  1.004664  0
H  H124  1  0.48984268  0.66840125  0.23903758  1  0.10198  0  0.122659  0.078829  0  1.004773  0
H  H125  1  0.01015877  0.33159922  0.73903721  1  0.101818  0  0.122693  0.078879  0  1.004695  0
H  H126  1  0.98983478  0.83160259  0.26096238  1  0.101976  0  0.12268  0.0789  0  1.00466  0
H  H127  1  0.51015988  0.16840145  0.76096260  1  0.101822  0  0.122679  0.078894  0  1.004698  0
H  H128  1  0.54621562  0.46282711  0.69320240  1  0.054168  0  0.108963  0.101711  0  1.022827  0
H  H129  1  0.95378396  0.53717296  0.19320270  1  0.054298  0  0.108946  0.101645  0  1.02289  0
H  H130  1  0.04621944  0.03716892  0.80679858  1  0.109202  0  0.108942  0.101643  0  1.022821  0
H  H131  1  0.45378326  0.96282792  0.30679729  1  0.109314  0  0.108967  0.101694  0  1.022859  0
H  H132  1  0.45378397  0.53717219  0.30679784  1  0.109277  0  0.10894  0.101674  0  1.02284  0
H  H133  1  0.04621564  0.46282761  0.80679731  1  0.109315  0  0.108955  0.101701  0  1.022844  0
H  H134  1  0.95377913  0.96283037  0.19320167  1  0.109227  0  0.108946  0.101627  0  1.022928  0
H  H135  1  0.54621530  0.03717223  0.69320224  1  0.109291  0  0.108959  0.101696  0  1.022815  0
H  H136  1  0.77864981  0.46156510  0.73216575  1  0.095755  0  0.112208  0.106396  0  1.009981  0
H  H137  1  0.72135034  0.53843463  0.23216572  1  0.095739  0  0.112195  0.106402  0  1.010002  0
H  H138  1  0.27865511  0.03843140  0.76783556  1  0.095595  0  0.112228  0.106466  0  1.009959  0
H  H139  1  0.22134805  0.96156576  0.26783442  1  0.0957  0  0.112206  0.106386  0  1.009951  0
H  H140  1  0.22134979  0.53843419  0.26783473  1  0.095731  0  0.112194  0.106382  0  1.009922  0
H  H141  1  0.27865132  0.46156551  0.76783405  1  0.095711  0  0.112204  0.106368  0  1.009966  0
H  H142  1  0.72134345  0.96156874  0.23216444  1  0.095583  0  0.112235  0.106448  0  1.009909  0
H  H143  1  0.77865155  0.03843396  0.73216511  1  0.095716  0  0.112205  0.106425  0  1.009902  0
H  H144  1  0.62303317  0.24999948  0.01901829  1  0.048097  0  0.122397  0.07488  0  1.010699  0
H  H145  1  0.87696950  0.74999973  0.51901537  1  0.047956  0  0.122367  0.074832  0  1.01075  0
H  H146  1  0.12303112  0.24999956  0.48098368  1  0.04801  0  0.122389  0.074867  0  1.010727  0
H  H147  1  0.37696848  0.74999982  0.98098124  1  0.048074  0  0.122427  0.074911  0  1.010703  0
H  H148  1  0.92103809  0.30885829  0.08412847  1  0.078455  0  0.110755  0.104151  0  1.016307  0
H  H149  1  0.57897306  0.69114236  0.58412906  1  0.078115  0  0.110781  0.104204  0  1.016294  0
H  H150  1  0.42103467  0.19114168  0.41587210  1  0.078077  0  0.11076  0.104181  0  1.016243  0
H  H151  1  0.07896159  0.80885796  0.91587158  1  0.078458  0  0.110777  0.104169  0  1.016266  0
H  H152  1  0.07896150  0.69114185  0.91587105  1  0.078438  0  0.110793  0.104194  0  1.016232  0
H  H153  1  0.42103476  0.30885736  0.41587214  1  0.078528  0  0.110759  0.104184  0  1.016266  0
H  H154  1  0.57897418  0.80885762  0.58412910  1  0.078176  0  0.110788  0.104219  0  1.016273  0
H  H155  1  0.92103903  0.19114260  0.08412867  1  0.078457  0  0.110782  0.104192  0  1.016262  0
H  H156  1  0.82414236  0.25000042  0.76526333  1  0.08167  0  0.123252  0.078165  0  1.004784  0
H  H157  1  0.67585636  0.74999982  0.26526373  1  0.08168  0  0.123266  0.078164  0  1.004804  0
H  H158  1  0.32414118  0.24999948  0.73473604  1  0.081709  0  0.123278  0.078196  0  1.004769  0
H  H159  1  0.17585620  0.74999845  0.23473572  1  0.081714  0  0.123266  0.078172  0  1.004815  0
H  H160  1  0.70427492  0.30873368  0.85634096  1  0.088876  0  0.109206  0.099722  0  1.026737  0
H  H161  1  0.79572375  0.69126848  0.35634195  1  0.088792  0  0.109211  0.099741  0  1.026701  0
H  H162  1  0.20427473  0.19126619  0.64365849  1  0.088751  0  0.109178  0.099677  0  1.026748  0
H  H163  1  0.29573093  0.80873320  0.14365861  1  0.089416  0  0.109177  0.099692  0  1.026744  0
H  H164  1  0.29573599  0.69126985  0.14365833  1  0.089332  0  0.109191  0.099737  0  1.026716  0
H  H165  1  0.20427173  0.30873039  0.64365781  1  0.088749  0  0.109207  0.099733  0  1.026784  0
H  H166  1  0.79572486  0.80873310  0.35634176  1  0.088713  0  0.109208  0.099719  0  1.026727  0
H  H167  1  0.70427277  0.19126905  0.85634187  1  0.08878  0  0.109209  0.099731  0  1.026756  0
C  C168  1  0.75876581  0.44051836  0.97890670  1  0.979995  0  0.109933  0.124157  0  4.025333  0
C  C169  1  0.74123552  0.55948241  0.47890619  1  0.979986  0  0.109881  0.123967  0  4.025397  0
C  C170  1  0.25876894  0.05948237  0.52109343  1  0.980041  0  0.109833  0.123971  0  4.025452  0
C  C171  1  0.24122995  0.94051757  0.02109321  1  0.980034  0  0.109918  0.12418  0  4.025262  0
C  C172  1  0.24123070  0.55948178  0.02109355  1  0.980019  0  0.109943  0.124182  0  4.025311  0
C  C173  1  0.25877128  0.44051816  0.52109310  1  0.979987  0  0.109872  0.124052  0  4.025417  0
C  C174  1  0.74123271  0.94051777  0.47890633  1  0.980059  0  0.109828  0.123952  0  4.025487  0
C  C175  1  0.75876553  0.05948257  0.97890583  1  0.979638  0  0.109865  0.124035  0  4.025302  0
C  C176  1  0.67042640  0.35878965  0.96712414  1  0.34148  0  -0.025825  -0.062643  0  4.054485  0
C  C177  1  0.82957918  0.64121025  0.46712387  1  0.341974  0  -0.025797  -0.062604  0  4.054467  0
C  C178  1  0.17042128  0.14120937  0.53287628  1  0.341572  0  -0.02586  -0.0627  0  4.054533  0
C  C179  1  0.32957747  0.85879060  0.03287619  1  0.342053  0  -0.025837  -0.062621  0  4.054537  0
C  C180  1  0.32957628  0.64120965  0.03287682  1  0.341794  0  -0.025888  -0.062759  0  4.054537  0
C  C181  1  0.17042145  0.35879116  0.53287685  1  0.342029  0  -0.02586  -0.062674  0  4.054504  0
C  C182  1  0.82957934  0.85879077  0.46712420  1  0.34168  0  -0.025819  -0.062615  0  4.054437  0
C  C183  1  0.67042110  0.14121081  0.96712381  1  0.342066  0  -0.025844  -0.062745  0  4.054556  0
C  C184  1  0.69185396  0.38813654  0.93904251  1  0.366761  0  -0.025918  -0.065429  0  4.053384  0
C  C185  1  0.80815298  0.61186286  0.43904176  1  0.366739  0  -0.025926  -0.065545  0  4.053361  0
C  C186  1  0.19185155  0.11186333  0.56095790  1  0.366792  0  -0.025915  -0.065447  0  4.053397  0
C  C187  1  0.30814996  0.88813755  0.06095784  1  0.366794  0  -0.02592  -0.06548  0  4.05339  0
C  C188  1  0.30815078  0.61186403  0.06095773  1  0.366714  0  -0.02587  -0.065394  0  4.053299  0
C  C189  1  0.19185175  0.38813770  0.56095777  1  0.366278  0  -0.025924  -0.065546  0  4.053538  0
C  C190  1  0.80815010  0.88813723  0.43904234  1  0.366836  0  -0.025881  -0.065426  0  4.053268  0
C  C191  1  0.69184964  0.11186386  0.93904168  1  0.366726  0  -0.025932  -0.065521  0  4.053302  0
C  C192  1  0.80039526  0.43575055  0.85548000  1  0.949122  0  0.110547  0.116886  0  4.030762  0
C  C193  1  0.69960547  0.56425034  0.35548048  1  0.949099  0  0.110496  0.116799  0  4.030802  0
C  C194  1  0.30039590  0.06424935  0.64451962  1  0.949123  0  0.11034  0.11646  0  4.030846  0
C  C195  1  0.19960666  0.93575005  0.14452015  1  0.949175  0  0.110418  0.116609  0  4.030739  0
C  C196  1  0.19960844  0.56424917  0.14452000  1  0.949213  0  0.110401  0.116586  0  4.030723  0
C  C197  1  0.30039207  0.43574938  0.64451905  1  0.949087  0  0.110404  0.116684  0  4.030761  0
C  C198  1  0.69960575  0.93574953  0.35548062  1  0.949083  0  0.110448  0.116702  0  4.030758  0
C  C199  1  0.80039396  0.06424967  0.85547962  1  0.949188  0  0.110378  0.116501  0  4.030778  0
C  C200  1  0.65379396  0.47602543  0.82343872  1  0.358748  0  -0.022571  -0.062934  0  4.038747  0
C  C201  1  0.84620305  0.52397538  0.32343835  1  0.35878  0  -0.022629  -0.063055  0  4.038658  0
C  C202  1  0.15379930  0.02397528  0.67656100  1  0.358822  0  -0.02264  -0.063077  0  4.038623  0
C  C203  1  0.34620392  0.97602462  0.17656147  1  0.358745  0  -0.022635  -0.063086  0  4.038803  0
C  C204  1  0.34620358  0.52397429  0.17656153  1  0.358756  0  -0.022595  -0.062993  0  4.038806  0
C  C205  1  0.15379449  0.47602476  0.67656094  1  0.358768  0  -0.022571  -0.06296  0  4.038707  0
C  C206  1  0.84620441  0.97602444  0.32343876  1  0.358779  0  -0.022602  -0.063054  0  4.038703  0
C  C207  1  0.65379568  0.02397510  0.82343854  1  0.358759  0  -0.022584  -0.062955  0  4.038788  0
C  C208  1  0.65508256  0.50531068  0.85201149  1  0.316179  0  -0.023485  -0.064216  0  4.037744  0
C  C209  1  0.84491719  0.49468978  0.35201110  1  0.31621  0  -0.023482  -0.064222  0  4.037726  0
C  C210  1  0.15508688  0.99468924  0.64798838  1  0.316198  0  -0.023522  -0.064398  0  4.037855  0
C  C211  1  0.34491873  0.00530975  0.14798952  1  0.316356  0  -0.023413  -0.064134  0  4.037811  0
C  C212  1  0.34491807  0.49468946  0.14798899  1  0.316167  0  -0.02348  -0.064238  0  4.037887  0
C  C213  1  0.15508035  0.50530952  0.64798819  1  0.316212  0  -0.023502  -0.064234  0  4.037774  0
C  C214  1  0.84491786  0.00530922  0.35201139  1  0.31621  0  -0.023465  -0.064181  0  4.037795  0
C  C215  1  0.65508189  0.99468997  0.85201096  1  0.316175  0  -0.023431  -0.064198  0  4.037896  0
C  C216  1  0.56035958  0.56489519  0.94424898  1  0.958058  0  0.111063  0.125606  0  4.020862  0
C  C217  1  0.93964010  0.43510507  0.44424848  1  0.958073  0  0.111013  0.125473  0  4.020936  0
C  C218  1  0.06036285  0.93510428  0.55575167  1  0.958431  0  0.111118  0.125699  0  4.020761  0
C  C219  1  0.43963871  0.06489574  0.05575208  1  0.957812  0  0.111094  0.125678  0  4.020667  0
C  C220  1  0.43964104  0.43510538  0.05575126  1  0.958042  0  0.111051  0.125543  0  4.020888  0
C  C221  1  0.06036258  0.56489549  0.55575200  1  0.957793  0  0.11109  0.12568  0  4.020672  0
C  C222  1  0.93963777  0.06489544  0.44424834  1  0.95776  0  0.111104  0.125696  0  4.020803  0
C  C223  1  0.56035883  0.93510567  0.94424865  1  0.958032  0  0.111042  0.12555  0  4.020842  0
C  C224  1  0.57574449  0.65265994  0.92931905  1  0.329311  0  -0.025946  -0.066021  0  4.053907  0
C  C225  1  0.92425332  0.34733944  0.42931898  1  0.329279  0  -0.025933  -0.066017  0  4.053919  0
C  C226  1  0.07574951  0.84733868  0.57068182  1  0.329189  0  -0.025912  -0.065992  0  4.054023  0
C  C227  1  0.42425496  0.15266138  0.07068183  1  0.32926  0  -0.025955  -0.066068  0  4.054027  0
C  C228  1  0.42425408  0.34733978  0.07068119  1  0.329281  0  -0.025922  -0.065994  0  4.053937  0
C  C229  1  0.07574731  0.65266113  0.57068223  1  0.329257  0  -0.025934  -0.065995  0  4.05405  0
C  C230  1  0.92425214  0.15266146  0.42931842  1  0.329239  0  -0.02594  -0.066025  0  4.054058  0
C  C231  1  0.57574463  0.84734046  0.92931889  1  0.329307  0  -0.025919  -0.06596  0  4.053947  0
C  C232  1  0.69240246  0.62461441  0.91932288  1  0.337326  0  -0.025487  -0.068233  0  4.053735  0
C  C233  1  0.80759752  0.37538452  0.41932338  1  0.337275  0  -0.025456  -0.06824  0  4.053677  0
C  C234  1  0.19240638  0.87538340  0.58067744  1  0.337389  0  -0.025468  -0.068242  0  4.05391  0
C  C235  1  0.30759695  0.12461584  0.08067751  1  0.337271  0  -0.025395  -0.068129  0  4.053765  0
C  C236  1  0.30759714  0.37538531  0.08067713  1  0.337307  0  -0.025457  -0.068215  0  4.053689  0
C  C237  1  0.19240619  0.62461562  0.58067759  1  0.33738  0  -0.02543  -0.068297  0  4.053846  0
C  C238  1  0.80759425  0.12461632  0.41932328  1  0.337241  0  -0.025454  -0.06821  0  4.05389  0
C  C239  1  0.69240162  0.87538557  0.91932274  1  0.337312  0  -0.025509  -0.068323  0  4.053776  0
C  C240  1  0.95103131  0.44168043  0.05800852  1  0.958867  0  0.111116  0.123  0  4.025496  0
C  C241  1  0.54896884  0.55831930  0.55800783  1  0.958836  0  0.111048  0.122942  0  4.025611  0
C  C242  1  0.45102738  0.05831870  0.44199203  1  0.958791  0  0.111098  0.123089  0  4.025483  0
C  C243  1  0.04896754  0.94167889  0.94199115  1  0.958794  0  0.111119  0.123054  0  4.025512  0
C  C244  1  0.04896725  0.55831971  0.94199100  1  0.958882  0  0.111142  0.123106  0  4.025451  0
C  C245  1  0.45102973  0.44168168  0.44199218  1  0.958851  0  0.111059  0.122997  0  4.025487  0
C  C246  1  0.54896913  0.94167975  0.55800822  1  0.958833  0  0.111063  0.122955  0  4.02561  0
C  C247  1  0.95103000  0.05831956  0.05800742  1  0.958744  0  0.111064  0.122991  0  4.025484  0
C  C248  1  0.90120291  0.48418793  0.10271525  1  0.337555  0  -0.025327  -0.0627  0  4.049234  0
C  C249  1  0.59879671  0.51581106  0.60271425  1  0.337458  0  -0.025318  -0.062607  0  4.04922  0
C  C250  1  0.40120151  0.01581118  0.39728534  1  0.337605  0  -0.025414  -0.06284  0  4.049303  0
C  C251  1  0.09879600  0.98418588  0.89728470  1  0.337855  0  -0.025409  -0.062832  0  4.049354  0
C  C252  1  0.09879463  0.51581263  0.89728428  1  0.337796  0  -0.025296  -0.062621  0  4.049287  0
C  C253  1  0.40120391  0.48418908  0.39728576  1  0.337452  0  -0.025377  -0.062769  0  4.049311  0
C  C254  1  0.59879603  0.98418769  0.60271467  1  0.337211  0  -0.025372  -0.062741  0  4.049169  0
C  C255  1  0.90120153  0.01581257  0.10271411  1  0.337205  0  -0.025307  -0.06256  0  4.049307  0
C  C256  1  0.78510763  0.45675354  0.09189604  1  0.35801  0  -0.024726  -0.064641  0  4.043112  0
C  C257  1  0.71489109  0.54324543  0.59189523  1  0.358192  0  -0.024796  -0.064755  0  4.043055  0
C  C258  1  0.28510614  0.04324597  0.40810390  1  0.357985  0  -0.024758  -0.064683  0  4.042983  0
C  C259  1  0.21489125  0.95675239  0.90810388  1  0.357983  0  -0.024765  -0.064562  0  4.043061  0
C  C260  1  0.21488991  0.54324702  0.90810348  1  0.358037  0  -0.02475  -0.064662  0  4.042998  0
C  C261  1  0.28510850  0.45675429  0.40810454  1  0.358184  0  -0.024762  -0.064611  0  4.043051  0
C  C262  1  0.71489140  0.95675291  0.59189587  1  0.35841  0  -0.024746  -0.064617  0  4.043029  0
C  C263  1  0.78510629  0.04324649  0.09189516  1  0.358458  0  -0.024715  -0.06457  0  4.043055  0
C  C264  1  0.55171169  0.36711545  0.74760365  1  0.963495  0  0.11064  0.126268  0  4.028783  0
C  C265  1  0.94828930  0.63288433  0.24760402  1  0.963606  0  0.110658  0.126264  0  4.028668  0
C  C266  1  0.05171321  0.13287931  0.75239685  1  0.963112  0  0.110731  0.126429  0  4.028812  0
C  C267  1  0.44828499  0.86711528  0.25239644  1  0.96356  0  0.110678  0.126361  0  4.028687  0
C  C268  1  0.44828996  0.63288343  0.25239659  1  0.963357  0  0.110669  0.126358  0  4.028864  0
C  C269  1  0.05171133  0.36711624  0.75239574  1  0.963616  0  0.110742  0.12637  0  4.028563  0
C  C270  1  0.94828433  0.86712040  0.24760364  1  0.963094  0  0.110754  0.126501  0  4.028774  0
C  C271  1  0.55171152  0.13288318  0.74760380  1  0.963626  0  0.11067  0.126221  0  4.028748  0
C  C272  1  0.57335839  0.43514678  0.71295231  1  0.39291  0  -0.02662  -0.068448  0  4.053004  0
C  C273  1  0.92663889  0.56485376  0.21295240  1  0.392812  0  -0.026556  -0.068263  0  4.052981  0
C  C274  1  0.07336351  0.06484968  0.78704865  1  0.337642  0  -0.026561  -0.068261  0  4.052958  0
C  C275  1  0.42663634  0.93514669  0.28704760  1  0.33778  0  -0.026649  -0.068447  0  4.053019  0
C  C276  1  0.42664018  0.56485294  0.28704817  1  0.33776  0  -0.026628  -0.068494  0  4.05301  0
C  C277  1  0.07335864  0.43514723  0.78704688  1  0.337812  0  -0.026623  -0.06851  0  4.053017  0
C  C278  1  0.92663506  0.93514962  0.21295159  1  0.337682  0  -0.026654  -0.068376  0  4.05312  0
C  C279  1  0.57335914  0.06485303  0.71295241  1  0.33778  0  -0.02662  -0.068446  0  4.052979  0
C  C280  1  0.68816074  0.43472669  0.73233236  1  0.354571  0  -0.025675  -0.06694  0  4.051894  0
C  C281  1  0.81183734  0.56527305  0.23233252  1  0.354534  0  -0.025775  -0.067129  0  4.05204  0
C  C282  1  0.18816506  0.06526853  0.76766877  1  0.354558  0  -0.025766  -0.067141  0  4.052084  0
C  C283  1  0.31183502  0.93472737  0.26766779  1  0.354504  0  -0.02572  -0.066934  0  4.051778  0
C  C284  1  0.31183885  0.56527219  0.26766765  1  0.354552  0  -0.025653  -0.06682  0  4.051715  0
C  C285  1  0.18816328  0.43472709  0.76766748  1  0.354554  0  -0.025724  -0.066942  0  4.05193  0
C  C286  1  0.81183350  0.93473119  0.23233147  1  0.354548  0  -0.025706  -0.066971  0  4.05188  0
C  C287  1  0.68816149  0.06527193  0.73233245  1  0.354549  0  -0.025699  -0.067014  0  4.051807  0
C  C288  1  0.70485572  0.24999951  0.03673679  1  0.982225  0  0.110606  0.121913  0  4.031667  0
C  C289  1  0.79514674  0.74999974  0.53673537  1  0.982168  0  0.110541  0.1219  0  4.031714  0
C  C290  1  0.20485594  0.24999955  0.46326416  1  0.982201  0  0.110565  0.121912  0  4.031752  0
C  C291  1  0.29514593  0.74999936  0.96326273  1  0.982265  0  0.110535  0.121884  0  4.031709  0
C  C292  1  0.85922350  0.27915376  0.07051324  1  0.272655  0  -0.02323  -0.064356  0  4.04293  0
C  C293  1  0.64078679  0.72084600  0.57051309  1  0.273125  0  -0.023321  -0.064497  0  4.042709  0
C  C294  1  0.35922099  0.22084619  0.42948761  1  0.450347  0  -0.02325  -0.064415  0  4.042682  0
C  C295  1  0.14077614  0.77915349  0.92948631  1  0.272739  0  -0.023248  -0.064323  0  4.042779  0
C  C296  1  0.14077713  0.72084596  0.92948605  1  0.449888  0  -0.023226  -0.064367  0  4.042803  0
C  C297  1  0.35922103  0.27915330  0.42948763  1  0.272659  0  -0.023219  -0.064397  0  4.042903  0
C  C298  1  0.64078786  0.77915396  0.57051311  1  0.450325  0  -0.02332  -0.064499  0  4.04275  0
C  C299  1  0.85922345  0.22084623  0.07051346  1  0.449991  0  -0.023263  -0.064445  0  4.042939  0
C  C300  1  0.79192043  0.25000045  0.79019206  1  0.995404  0  0.111309  0.124212  0  4.028152  0
C  C301  1  0.70807697  0.74999985  0.29019220  1  0.995909  0  0.111322  0.12424  0  4.028126  0
C  C302  1  0.29191748  0.24999944  0.70980781  1  0.995393  0  0.111306  0.124155  0  4.02821  0
C  C303  1  0.20808020  0.74999927  0.20980746  1  0.995966  0  0.111257  0.124069  0  4.028302  0
C  C304  1  0.72977844  0.27913356  0.83739398  1  0.447628  0  -0.025662  -0.064369  0  4.048539  0
C  C305  1  0.77022045  0.72086855  0.33739477  1  0.270114  0  -0.025698  -0.064453  0  4.048305  0
C  C306  1  0.22977704  0.22086548  0.66260569  1  0.447704  0  -0.025676  -0.064366  0  4.048541  0
C  C307  1  0.27022634  0.77913270  0.16260557  1  0.447067  0  -0.025662  -0.064413  0  4.048435  0
C  C308  1  0.27023041  0.72086912  0.16260483  1  0.2695  0  -0.025683  -0.064485  0  4.048353  0
C  C309  1  0.22977503  0.27913032  0.66260547  1  0.270228  0  -0.025709  -0.064475  0  4.048312  0
C  C310  1  0.77022050  0.77913255  0.33739456  1  0.447802  0  -0.025643  -0.064325  0  4.048305  0
C  C311  1  0.72977531  0.22086956  0.83739468  1  0.270164  0  -0.025673  -0.064389  0  4.048344  0
N  N312  1  0.74818963  0.43996590  0.94671459  1  -1.310256  0  -0.37962  -0.294071  0  3.63949  0
N  N313  1  0.75181311  0.56003437  0.44671407  1  -1.310194  0  -0.379579  -0.293985  0  3.639513  0
N  N314  1  0.24819237  0.06003483  0.55328555  1  -1.310249  0  -0.379558  -0.294025  0  3.639566  0
N  N315  1  0.25180922  0.93996561  0.05328533  1  -1.310244  0  -0.379613  -0.294088  0  3.639523  0
N  N316  1  0.25180997  0.56003425  0.05328542  1  -1.310231  0  -0.379645  -0.294093  0  3.639365  0
N  N317  1  0.24819266  0.43996577  0.55328474  1  -1.309745  0  -0.379567  -0.293979  0  3.639493  0
N  N318  1  0.75181031  0.93996531  0.44671445  1  -1.310276  0  -0.379542  -0.293962  0  3.639525  0
N  N319  1  0.74818832  0.06003538  0.94671372  1  -1.309803  0  -0.379612  -0.294077  0  3.639523  0
N  N320  1  0.71300022  0.39229056  0.99233761  1  -1.254895  0  -0.37967  -0.29411  0  3.642068  0
N  N321  1  0.78700403  0.60770939  0.49233711  1  -1.255598  0  -0.379674  -0.294076  0  3.642118  0
N  N322  1  0.21299947  0.10770973  0.50766254  1  -1.255249  0  -0.379637  -0.294077  0  3.642099  0
N  N323  1  0.28699753  0.89229017  0.00766274  1  -1.255616  0  -0.379682  -0.294212  0  3.642124  0
N  N324  1  0.28699731  0.60770831  0.00766287  1  -1.25517  0  -0.379668  -0.294149  0  3.641996  0
N  N325  1  0.21300174  0.39229202  0.50766266  1  -1.255548  0  -0.379649  -0.294073  0  3.642013  0
N  N326  1  0.78700218  0.89229041  0.49233746  1  -1.255269  0  -0.379709  -0.294181  0  3.642135  0
N  N327  1  0.71299898  0.10771082  0.99233654  1  -1.255514  0  -0.379623  -0.293996  0  3.642004  0
N  N328  1  0.74839786  0.47947234  0.87220816  1  -1.26099  0  -0.380464  -0.287585  0  3.634777  0
N  N329  1  0.75160370  0.52052817  0.37220857  1  -1.260981  0  -0.380426  -0.28754  0  3.634704  0
N  N330  1  0.24839761  0.02052670  0.62779149  1  -1.261051  0  -0.38038  -0.287345  0  3.63475  0
N  N331  1  0.25160516  0.97947181  0.12779226  1  -1.261157  0  -0.380467  -0.287536  0  3.634747  0
N  N332  1  0.25160790  0.52052738  0.12779184  1  -1.261044  0  -0.380461  -0.287515  0  3.63484  0
N  N333  1  0.24839486  0.47947071  0.62779119  1  -1.261022  0  -0.380458  -0.287577  0  3.634802  0
N  N334  1  0.75160404  0.97947091  0.37220827  1  -1.260995  0  -0.38043  -0.287557  0  3.634829  0
N  N335  1  0.74839443  0.02052749  0.87220774  1  -1.26101  0  -0.380414  -0.287403  0  3.634812  0
N  N336  1  0.74622173  0.43193215  0.82585956  1  -1.251582  0  -0.381231  -0.289157  0  3.636295  0
N  N337  1  0.75377730  0.56806867  0.32586001  1  -1.251603  0  -0.381252  -0.289144  0  3.636265  0
N  N338  1  0.24622305  0.06806774  0.67414058  1  -1.251614  0  -0.381083  -0.288849  0  3.636045  0
N  N339  1  0.25377813  0.93193173  0.17414106  1  -1.251648  0  -0.38114  -0.289  0  3.636079  0
N  N340  1  0.25377992  0.56806757  0.17414116  1  -1.251619  0  -0.381165  -0.28904  0  3.636194  0
N  N341  1  0.24622024  0.43193105  0.67413952  1  -1.251559  0  -0.381178  -0.289096  0  3.636264  0
N  N342  1  0.75377860  0.93193114  0.32586015  1  -1.251582  0  -0.381174  -0.288997  0  3.636113  0
N  N343  1  0.74622043  0.06806798  0.82585894  1  -1.251644  0  -0.381174  -0.289068  0  3.636227  0
N  N344  1  0.68173650  0.56889275  0.92887100  1  -1.241722  0  -0.383007  -0.298249  0  3.640314  0
N  N345  1  0.81826336  0.43110705  0.42887106  1  -1.241721  0  -0.383048  -0.298291  0  3.640312  0
N  N346  1  0.18173959  0.93110590  0.57112909  1  -1.241701  0  -0.383098  -0.29844  0  3.640354  0
N  N347  1  0.31826076  0.06889416  0.07112958  1  -1.241687  0  -0.383168  -0.298496  0  3.640346  0
N  N348  1  0.31826412  0.43110739  0.07112900  1  -1.241701  0  -0.383034  -0.298306  0  3.640338  0
N  N349  1  0.18174035  0.56889394  0.57112942  1  -1.241743  0  -0.383138  -0.298475  0  3.640384  0
N  N350  1  0.81826103  0.06889424  0.42887140  1  -1.241704  0  -0.383082  -0.298408  0  3.640399  0
N  N351  1  0.68173574  0.93110767  0.92887067  1  -1.2417  0  -0.383026  -0.298228  0  3.640248  0
N  N352  1  0.49250131  0.61445438  0.94512534  1  -1.261547  0  -0.380829  -0.294021  0  3.633419  0
N  N353  1  0.00749871  0.38554533  0.44512508  1  -1.261334  0  -0.380814  -0.293946  0  3.633327  0
N  N354  1  0.99250622  0.88554477  0.55487527  1  -1.261597  0  -0.380853  -0.293964  0  3.633309  0
N  N355  1  0.50749911  0.11445622  0.05487552  1  -1.261027  0  -0.380797  -0.293936  0  3.633304  0
N  N356  1  0.50749725  0.38554534  0.05487491  1  -1.261317  0  -0.380857  -0.293986  0  3.633403  0
N  N357  1  0.99250397  0.61445566  0.55487589  1  -1.260958  0  -0.380819  -0.293986  0  3.633288  0
N  N358  1  0.00749543  0.11445537  0.44512425  1  -1.260971  0  -0.380857  -0.294057  0  3.633424  0
N  N359  1  0.49250152  0.88554646  0.94512520  1  -1.261513  0  -0.380839  -0.29405  0  3.633467  0
N  N360  1  0.81757744  0.42989651  0.06348985  1  -1.272181  0  -0.38192  -0.294554  0  3.63717  0
N  N361  1  0.68242059  0.57010282  0.56348907  1  -1.272228  0  -0.381852  -0.294483  0  3.637113  0
N  N362  1  0.31757565  0.07010301  0.43651055  1  -1.272217  0  -0.381853  -0.294484  0  3.637041  0
N  N363  1  0.18242139  0.92989626  0.93651006  1  -1.272193  0  -0.381845  -0.294493  0  3.637045  0
N  N364  1  0.18242010  0.57010363  0.93650992  1  -1.272159  0  -0.381912  -0.294615  0  3.637  0
N  N365  1  0.31757798  0.42989733  0.43651093  1  -1.272228  0  -0.381834  -0.294479  0  3.637097  0
N  N366  1  0.68242188  0.92989587  0.56348969  1  -1.272215  0  -0.381883  -0.294494  0  3.637081  0
N  N367  1  0.81757717  0.07010304  0.06348851  1  -1.272249  0  -0.381871  -0.29456  0  3.637107  0
N  N368  1  0.00598283  0.47441873  0.08108618  1  -1.256664  0  -0.381718  -0.294466  0  3.650016  0
N  N369  1  0.49401946  0.52558093  0.58108517  1  -1.256677  0  -0.381683  -0.294517  0  3.650046  0
N  N370  1  0.50597877  0.02557986  0.41891466  1  -1.256471  0  -0.381657  -0.294543  0  3.650025  0
N  N371  1  0.99401607  0.97441695  0.91891352  1  -1.256927  0  -0.381671  -0.294427  0  3.649978  0
N  N372  1  0.99401676  0.52558141  0.91891359  1  -1.256973  0  -0.381772  -0.294608  0  3.650162  0
N  N373  1  0.50598116  0.47442005  0.41891508  1  -1.25668  0  -0.381643  -0.294463  0  3.64998  0
N  N374  1  0.49401877  0.97441859  0.58108534  1  -1.2565  0  -0.381691  -0.29454  0  3.650056  0
N  N375  1  0.00597941  0.02558192  0.08108504  1  -1.256444  0  -0.381719  -0.294589  0  3.650051  0
N  N376  1  0.67360174  0.39138957  0.75425293  1  -1.285399  0  -0.38222  -0.297521  0  3.644439  0
N  N377  1  0.82639712  0.60861065  0.25425264  1  -1.285391  0  -0.382176  -0.297469  0  3.644373  0
N  N378  1  0.17360638  0.10860650  0.74574821  1  -1.284647  0  -0.382177  -0.297636  0  3.644508  0
N  N379  1  0.32639396  0.89138935  0.24574791  1  -1.285333  0  -0.382163  -0.297553  0  3.644392  0
N  N380  1  0.32639786  0.60860973  0.24574756  1  -1.285312  0  -0.382181  -0.297606  0  3.64437  0
N  N381  1  0.17360351  0.39138991  0.74574689  1  -1.285406  0  -0.382251  -0.297603  0  3.644424  0
N  N382  1  0.82639218  0.89139322  0.25425227  1  -1.284717  0  -0.382214  -0.297731  0  3.644593  0
N  N383  1  0.67360358  0.10860995  0.75425258  1  -1.285338  0  -0.382246  -0.297525  0  3.644383  0
N  N384  1  0.48730531  0.39203787  0.72277899  1  -1.27293  0  -0.381176  -0.295851  0  3.638719  0
N  N385  1  0.01269428  0.60796214  0.22277938  1  -1.272904  0  -0.381186  -0.295827  0  3.638722  0
N  N386  1  0.98730922  0.10795742  0.77722123  1  -1.272958  0  -0.381183  -0.295835  0  3.638881  0
N  N387  1  0.51269039  0.89203778  0.27722065  1  -1.272884  0  -0.381172  -0.295852  0  3.638777  0
N  N388  1  0.51269532  0.60796100  0.27722125  1  -1.272848  0  -0.38113  -0.295754  0  3.638874  0
N  N389  1  0.98730429  0.39203927  0.77722014  1  -1.272905  0  -0.381198  -0.295772  0  3.638625  0
N  N390  1  0.01269037  0.89204187  0.22277901  1  -1.272923  0  -0.381153  -0.295827  0  3.638873  0
N  N391  1  0.48730612  0.10796110  0.72277936  1  -1.272944  0  -0.381126  -0.295697  0  3.63874  0
N  N392  1  0.76084783  0.29729621  0.04897908  1  -1.247924  0  -0.380624  -0.287621  0  3.637426  0
N  N393  1  0.73915758  0.70270350  0.54897765  1  -1.247945  0  -0.380533  -0.287546  0  3.637215  0
N  N394  1  0.26084503  0.20270371  0.45102231  1  -1.247963  0  -0.38059  -0.287592  0  3.637213  0
N  N395  1  0.23915287  0.79729602  0.95102048  1  -1.247983  0  -0.380604  -0.28768  0  3.637433  0
N  N396  1  0.23915383  0.70270351  0.95102020  1  -1.247937  0  -0.380651  -0.287749  0  3.637498  0
N  N397  1  0.26084613  0.29729538  0.45102211  1  -1.247893  0  -0.380654  -0.287724  0  3.637597  0
N  N398  1  0.73915867  0.79729601  0.54897793  1  -1.24793  0  -0.380545  -0.287585  0  3.637357  0
N  N399  1  0.76084776  0.20270413  0.04897928  1  -1.248036  0  -0.380651  -0.287664  0  3.637513  0
N  N400  1  0.76934001  0.29733984  0.80731786  1  -1.281095  0  -0.379337  -0.293128  0  3.639857  0
N  N401  1  0.73065615  0.70266178  0.30731819  1  -1.281544  0  -0.379317  -0.293091  0  3.639729  0
N  N402  1  0.26933823  0.20266048  0.69268202  1  -1.281088  0  -0.379265  -0.292977  0  3.639828  0
N  N403  1  0.23065965  0.79733862  0.19268266  1  -1.281555  0  -0.379286  -0.292985  0  3.639825  0
N  N404  1  0.23066473  0.70266115  0.19268214  1  -1.281553  0  -0.379277  -0.292938  0  3.639664  0
N  N405  1  0.26933830  0.29733794  0.69268254  1  -1.281566  0  -0.379322  -0.293122  0  3.63992  0
N  N406  1  0.73065828  0.79733840  0.30731798  1  -1.28159  0  -0.379312  -0.293117  0  3.639738  0
N  N407  1  0.76934097  0.20266195  0.80731759  1  -1.281535  0  -0.379307  -0.293144  0  3.639833  0
