# generated using pymatgen
data_Zn8H72C99O38
_symmetry_space_group_name_H-M   'P 1'
_cell_length_a   26.86379092
_cell_length_b   26.86379136
_cell_length_c   33.07127797
_cell_angle_alpha   66.03289232
_cell_angle_beta   66.03291061
_cell_angle_gamma   59.99614417
_symmetry_Int_Tables_number   1
_chemical_formula_structural   Zn8H72C99O38
_chemical_formula_sum   'Zn16 H144 C198 O76'
_cell_volume   18253.49306231
_cell_formula_units_Z   2
loop_
 _symmetry_equiv_pos_site_id
 _symmetry_equiv_pos_as_xyz
  1  'x, y, z'
loop_
 _atom_site_type_symbol
 _atom_site_label
 _atom_site_symmetry_multiplicity
 _atom_site_fract_x
 _atom_site_fract_y
 _atom_site_fract_z
 _atom_site_occupancy
 _atom_site_pbe_bader_charge
 _atom_site_pbe_bader_spin_density
 _atom_site_pbe_cm5_charge
 _atom_site_pbe_ddec_charge
 _atom_site_pbe_ddec_spin_density
 _atom_site_pbe_ddec_sum_bond_order
 _atom_site_pbe_magmom
Zn  Zn0  1  0.23124274  0.09458061  0.49780674  1  1.317903  0  0.667755  0.963318  0  2.385953  0
Zn  Zn1  1  0.17633520  0.23124036  0.49780659  1  1.316633  0  0.668018  0.963825  0  2.383355  0
Zn  Zn2  1  0.09460513  0.17632918  0.49781043  1  1.316533  0  0.668138  0.963587  0  2.383755  0
Zn  Zn3  1  0.26875950  0.32366420  0.00219406  1  1.316726  0  0.667993  0.963789  0  2.383376  0
Zn  Zn4  1  0.32367055  0.40539462  0.00218983  1  1.316541  0  0.668149  0.963612  0  2.383708  0
Zn  Zn5  1  0.40541942  0.26875715  0.00219372  1  1.317919  0  0.667775  0.963319  0  2.38597  0
Zn  Zn6  1  0.76875715  0.90541939  0.50219290  1  1.317933  0  0.667768  0.963313  0  2.385967  0
Zn  Zn7  1  0.82366469  0.76875964  0.50219336  1  1.316626  0  0.667987  0.963796  0  2.383347  0
Zn  Zn8  1  0.90539476  0.82367081  0.50218951  1  1.316528  0  0.668183  0.963685  0  2.383701  0
Zn  Zn9  1  0.73124039  0.67633579  0.99780589  1  1.316729  0  0.668023  0.963834  0  2.383323  0
Zn  Zn10  1  0.67632889  0.59460515  0.99781063  1  1.316535  0  0.668143  0.963569  0  2.383758  0
Zn  Zn11  1  0.59458092  0.73124267  0.99780644  1  1.317947  0  0.667787  0.963312  0  2.385949  0
Zn  Zn12  1  0.13746948  0.13745207  0.58761262  1  1.303569  0  0.666618  0.962504  0  2.376925  0
Zn  Zn13  1  0.36254739  0.36253087  0.91238788  1  1.303619  0  0.666579  0.962453  0  2.376841  0
Zn  Zn14  1  0.86253041  0.86254792  0.41238732  1  1.303571  0  0.666544  0.962363  0  2.376931  0
Zn  Zn15  1  0.63745206  0.63746931  0.08761245  1  1.303618  0  0.666542  0.962379  0  2.376868  0
H  H16  1  0.23242122  0.99577364  0.68159218  1  0.103049  0  0.107779  0.112076  0  0.989186  0
H  H17  1  0.32198935  0.92069324  0.56587837  1  0.079522  0  0.108769  0.113621  0  0.98881  0
H  H18  1  0.29265196  0.90271786  0.72900625  1  0.073259  0  0.102846  0.112748  0  1.017541  0
H  H19  1  0.38211503  0.82572088  0.61351596  1  0.085286  0  0.107502  0.121329  0  0.986617  0
H  H20  1  0.34401373  0.80489279  0.76594318  1  0.050723  0  0.106392  0.078426  0  0.972915  0
H  H21  1  0.39009304  0.84595672  0.73244324  1  0.047362  0  0.107092  0.076131  0  0.988037  0
H  H22  1  0.48765784  0.73966709  0.68096005  1  0.058714  0  0.10608  0.07572  0  0.981851  0
H  H23  1  0.53281996  0.70797377  0.72030383  1  0.074264  0  0.106605  0.078708  0  0.982888  0
H  H24  1  0.52221810  0.89314102  0.66456043  1  0.081006  0  0.108094  0.122197  0  0.98714  0
H  H25  1  0.58971490  0.71671118  0.64896877  1  0.02911  0  0.101338  0.11048  0  1.023364  0
H  H26  1  0.61007019  0.90792527  0.60262294  1  0.09274  0  0.108412  0.112478  0  0.989641  0
H  H27  1  0.67669125  0.73192881  0.58846312  1  0.134591  0  0.107849  0.112263  0  0.990025  0
H  H28  1  0.09023723  0.23236021  0.68161049  1  0.100108  0  0.107957  0.112488  0  0.99022  0
H  H29  1  0.19135782  0.32200943  0.56585748  1  0.114681  0  0.108844  0.112968  0  0.990064  0
H  H30  1  0.07561176  0.29262331  0.72901845  1  0.067723  0  0.102811  0.112542  0  1.017631  0
H  H31  1  0.17861090  0.38209709  0.61350385  1  0.050574  0  0.10723  0.120476  0  0.986842  0
H  H32  1  0.08516105  0.34397242  0.76594112  1  0.083003  0  0.106311  0.077916  0  0.973356  0
H  H33  1  0.03151104  0.39007012  0.73244979  1  0.063791  0  0.106836  0.075253  0  0.987972  0
H  H34  1  0.09179178  0.48760795  0.68098869  1  0.057896  0  0.106065  0.077098  0  0.979371  0
H  H35  1  0.03899204  0.53276643  0.72034207  1  0.054503  0  0.106661  0.078582  0  0.983106  0
H  H36  1  0.92019691  0.52224712  0.66458408  1  0.085823  0  0.107776  0.121739  0  0.988857  0
H  H37  1  0.04471979  0.58976939  0.64892889  1  0.047344  0  0.101828  0.111021  0  1.022682  0
H  H38  1  0.87944860  0.61006073  0.60266590  1  0.081698  0  0.108802  0.113205  0  0.989277  0
H  H39  1  0.00299074  0.67673111  0.58840900  1  0.084428  0  0.108126  0.112907  0  0.990448  0
H  H40  1  0.99578640  0.09023522  0.68160106  1  0.107234  0  0.108039  0.112511  0  0.988478  0
H  H41  1  0.92070625  0.19140035  0.56588014  1  0.087574  0  0.10914  0.113992  0  0.98922  0
H  H42  1  0.90274661  0.07561414  0.72902012  1  0.072245  0  0.102694  0.11255  0  1.017138  0
H  H43  1  0.82573158  0.17865643  0.61354116  1  0.060572  0  0.107725  0.121238  0  0.986941  0
H  H44  1  0.80489902  0.08516262  0.76595973  1  0.069026  0  0.106004  0.077541  0  0.972814  0
H  H45  1  0.84599301  0.03149026  0.73247943  1  0.066775  0  0.107184  0.075484  0  0.987633  0
H  H46  1  0.73968172  0.09175590  0.68099138  1  0.061704  0  0.106054  0.075135  0  0.980261  0
H  H47  1  0.70797685  0.03894114  0.72032169  1  0.070385  0  0.106272  0.075798  0  0.985621  0
H  H48  1  0.89305421  0.92007858  0.66458569  1  0.067436  0  0.10805  0.121728  0  0.987696  0
H  H49  1  0.71668103  0.04472736  0.64894491  1  0.074257  0  0.101571  0.111047  0  1.023273  0
H  H50  1  0.90782443  0.87937238  0.60266786  1  0.119578  0  0.108847  0.113691  0  0.988774  0
H  H51  1  0.73187186  0.00304386  0.58843600  1  0.075723  0  0.107754  0.112135  0  0.989901  0
H  H52  1  0.26763765  0.40976416  0.81839109  1  0.100233  0  0.107961  0.112486  0  0.990257  0
H  H53  1  0.17798912  0.30864154  0.93414334  1  0.11464  0  0.108847  0.113036  0  0.990037  0
H  H54  1  0.20737552  0.42438947  0.77098255  1  0.067755  0  0.102834  0.112596  0  1.017608  0
H  H55  1  0.11790288  0.32138849  0.88649617  1  0.050548  0  0.107217  0.120433  0  0.986873  0
H  H56  1  0.15602774  0.41483978  0.73405927  1  0.083008  0  0.106307  0.077907  0  0.973357  0
H  H57  1  0.10993038  0.46848949  0.76755026  1  0.063777  0  0.106814  0.075204  0  0.987999  0
H  H58  1  0.01239246  0.40820862  0.81901112  1  0.057917  0  0.106072  0.077087  0  0.979392  0
H  H59  1  0.96723381  0.46100855  0.77965773  1  0.054515  0  0.106672  0.078584  0  0.983091  0
H  H60  1  0.97775295  0.57980355  0.83541610  1  0.085815  0  0.107778  0.121743  0  0.988853  0
H  H61  1  0.91023079  0.45528052  0.85107071  1  0.047353  0  0.101799  0.111014  0  1.02272  0
H  H62  1  0.88993827  0.62055217  0.89733422  1  0.081703  0  0.108818  0.113231  0  0.989237  0
H  H63  1  0.82326917  0.49700920  0.91159068  1  0.084533  0  0.108149  0.112952  0  0.990419  0
H  H64  1  0.40976615  0.50421367  0.81839950  1  0.107268  0  0.108043  0.112524  0  0.988453  0
H  H65  1  0.30859998  0.57929534  0.93411962  1  0.087701  0  0.109135  0.114033  0  0.989219  0
H  H66  1  0.42438779  0.59725306  0.77098038  1  0.072248  0  0.102714  0.11258  0  1.017109  0
H  H67  1  0.32134345  0.67426895  0.88645879  1  0.060587  0  0.107735  0.121253  0  0.98696  0
H  H68  1  0.41483745  0.69510004  0.73404097  1  0.069032  0  0.106017  0.077556  0  0.972821  0
H  H69  1  0.46851042  0.65400661  0.76752089  1  0.066761  0  0.107175  0.075474  0  0.987641  0
H  H70  1  0.40824481  0.76031812  0.81900823  1  0.06175  0  0.10603  0.075096  0  0.980337  0
H  H71  1  0.46106001  0.79202227  0.77967801  1  0.07039  0  0.106269  0.075811  0  0.985601  0
H  H72  1  0.57992175  0.60694498  0.83541448  1  0.067407  0  0.108055  0.121742  0  0.987627  0
H  H73  1  0.45527378  0.78331876  0.85105457  1  0.074284  0  0.101573  0.111052  0  1.023266  0
H  H74  1  0.62062778  0.59217432  0.89733282  1  0.11955  0  0.108871  0.113697  0  0.988707  0
H  H75  1  0.49695702  0.76812752  0.91156341  1  0.075748  0  0.107756  0.112164  0  0.989925  0
H  H76  1  0.50422653  0.26757868  0.81840965  1  0.102834  0  0.107763  0.112094  0  0.98918  0
H  H77  1  0.57930809  0.17800935  0.93412290  1  0.079663  0  0.108731  0.11353  0  0.98882  0
H  H78  1  0.59728108  0.20734858  0.77099520  1  0.073317  0  0.102817  0.112715  0  1.017443  0
H  H79  1  0.67427969  0.11788384  0.88648461  1  0.085244  0  0.107545  0.121418  0  0.986566  0
H  H80  1  0.69510638  0.15598700  0.73405723  1  0.05072  0  0.106408  0.078448  0  0.972929  0
H  H81  1  0.65404262  0.10990739  0.76755692  1  0.047455  0  0.10708  0.076126  0  0.988053  0
H  H82  1  0.76033281  0.01234229  0.81903974  1  0.058723  0  0.106087  0.075746  0  0.981839  0
H  H83  1  0.79202595  0.96718090  0.77969567  1  0.074274  0  0.106622  0.078728  0  0.98289  0
H  H84  1  0.60685981  0.97778181  0.83543929  1  0.081013  0  0.108096  0.122202  0  0.987142  0
H  H85  1  0.78328903  0.91028552  0.85103162  1  0.029087  0  0.101343  0.110528  0  1.023342  0
H  H86  1  0.59207488  0.88992982  0.89737638  1  0.092727  0  0.108425  0.112504  0  0.989613  0
H  H87  1  0.76807101  0.82330898  0.91153717  1  0.134593  0  0.107853  0.112303  0  0.989995  0
H  H88  1  0.76757912  0.00422659  0.31840784  1  0.103061  0  0.107763  0.112068  0  0.989206  0
H  H89  1  0.67801054  0.07930675  0.43412188  1  0.07952  0  0.108747  0.113595  0  0.988828  0
H  H90  1  0.70734793  0.09728255  0.27099386  1  0.073259  0  0.102855  0.112749  0  1.017524  0
H  H91  1  0.61788442  0.17427929  0.38648437  1  0.085284  0  0.107516  0.121332  0  0.986589  0
H  H92  1  0.65598616  0.19510680  0.23405689  1  0.050736  0  0.106402  0.078442  0  0.972901  0
H  H93  1  0.60990685  0.15404287  0.26755684  1  0.047338  0  0.107079  0.076108  0  0.988051  0
H  H94  1  0.51234205  0.26033250  0.31904033  1  0.058699  0  0.10606  0.075658  0  0.981867  0
H  H95  1  0.46717993  0.29202623  0.27969642  1  0.074256  0  0.10662  0.078725  0  0.982889  0
H  H96  1  0.47778134  0.10685915  0.33543960  1  0.080976  0  0.108096  0.12219  0  0.987144  0
H  H97  1  0.41028499  0.28328882  0.35103147  1  0.029112  0  0.10134  0.110489  0  1.023358  0
H  H98  1  0.38992925  0.09207491  0.39737710  1  0.092743  0  0.108392  0.112466  0  0.989554  0
H  H99  1  0.32330909  0.26807101  0.41153704  1  0.134589  0  0.107855  0.11231  0  0.989973  0
H  H100  1  0.90976310  0.76763961  0.31838937  1  0.100107  0  0.107956  0.112479  0  0.990201  0
H  H101  1  0.80864296  0.67798981  0.43414303  1  0.114666  0  0.10886  0.113079  0  0.990014  0
H  H102  1  0.92438813  0.70737668  0.27098150  1  0.067724  0  0.102817  0.112556  0  1.017609  0
H  H103  1  0.82138944  0.61790273  0.38649631  1  0.050574  0  0.107234  0.120487  0  0.986832  0
H  H104  1  0.91483884  0.65602758  0.23405882  1  0.083  0  0.106306  0.077923  0  0.973366  0
H  H105  1  0.96848929  0.60993011  0.26754993  1  0.063785  0  0.10684  0.075278  0  0.987964  0
H  H106  1  0.90820811  0.51239205  0.31901155  1  0.057893  0  0.106076  0.077116  0  0.979342  0
H  H107  1  0.96100829  0.46723339  0.27965809  1  0.054505  0  0.106676  0.078615  0  0.983032  0
H  H108  1  0.07980298  0.47775288  0.33541616  1  0.085826  0  0.10778  0.121734  0  0.988858  0
H  H109  1  0.95528010  0.41023101  0.35107092  1  0.047344  0  0.101829  0.111033  0  1.022675  0
H  H110  1  0.12055174  0.38993868  0.39733409  1  0.081708  0  0.10884  0.113266  0  0.989185  0
H  H111  1  0.99700915  0.32326889  0.41159064  1  0.084417  0  0.108125  0.112891  0  0.990449  0
H  H112  1  0.00421349  0.90976518  0.31839905  1  0.107236  0  0.108024  0.112508  0  0.988416  0
H  H113  1  0.07929364  0.80860005  0.43411997  1  0.087569  0  0.109134  0.114019  0  0.989216  0
H  H114  1  0.09725328  0.92438545  0.27098026  1  0.072266  0  0.102688  0.112551  0  1.017185  0
H  H115  1  0.17426831  0.82134398  0.38645895  1  0.060616  0  0.107715  0.121207  0  0.986958  0
H  H116  1  0.19510087  0.91483697  0.23404095  1  0.069041  0  0.106027  0.077593  0  0.972828  0
H  H117  1  0.15400688  0.96850933  0.26752126  1  0.066781  0  0.107176  0.075486  0  0.987626  0
H  H118  1  0.26031773  0.90824428  0.31900896  1  0.061715  0  0.106025  0.075079  0  0.980292  0
H  H119  1  0.29202259  0.96105904  0.27967865  1  0.070396  0  0.106282  0.075818  0  0.985585  0
H  H120  1  0.10694524  0.07992119  0.33541418  1  0.067408  0  0.10806  0.121746  0  0.987621  0
H  H121  1  0.28331886  0.95527346  0.35105446  1  0.074265  0  0.101573  0.111051  0  1.023264  0
H  H122  1  0.09217457  0.12062715  0.39733253  1  0.119565  0  0.108875  0.113705  0  0.988727  0
H  H123  1  0.26812758  0.99695672  0.41156329  1  0.075756  0  0.107762  0.112171  0  0.989913  0
H  H124  1  0.73236224  0.59023624  0.18160872  1  0.10024  0  0.10795  0.112474  0  0.990219  0
H  H125  1  0.82201077  0.69135886  0.06585647  1  0.114653  0  0.10887  0.113065  0  0.990009  0
H  H126  1  0.79262482  0.57561035  0.22901730  1  0.067759  0  0.102836  0.112612  0  1.017608  0
H  H127  1  0.88209789  0.67861074  0.11350343  1  0.050535  0  0.107226  0.120444  0  0.986854  0
H  H128  1  0.84397215  0.58516022  0.26594098  1  0.083007  0  0.106305  0.077918  0  0.973333  0
H  H129  1  0.89006996  0.53151033  0.23244990  1  0.063789  0  0.106843  0.075279  0  0.987978  0
H  H130  1  0.98760742  0.59179097  0.18098895  1  0.057922  0  0.106071  0.077095  0  0.979396  0
H  H131  1  0.03276608  0.53899145  0.22034252  1  0.054513  0  0.106667  0.078589  0  0.983069  0
H  H132  1  0.02224650  0.42019621  0.16458437  1  0.085796  0  0.107811  0.121769  0  0.98881  0
H  H133  1  0.08976910  0.54471907  0.14892937  1  0.047305  0  0.101804  0.111013  0  1.022691  0
H  H134  1  0.11006028  0.37944836  0.10266569  1  0.081721  0  0.108794  0.11318  0  0.989265  0
H  H135  1  0.17673028  0.50299057  0.08840888  1  0.084459  0  0.108148  0.112956  0  0.990447  0
H  H136  1  0.59023418  0.49578615  0.18160066  1  0.107248  0  0.108024  0.112523  0  0.988413  0
H  H137  1  0.69140036  0.42070448  0.06588053  1  0.087737  0  0.109141  0.113995  0  0.989244  0
H  H138  1  0.57561299  0.40274658  0.22901909  1  0.072262  0  0.102703  0.112587  0  1.017116  0
H  H139  1  0.67865644  0.32573064  0.11354098  1  0.060571  0  0.107729  0.121251  0  0.986947  0
H  H140  1  0.58516244  0.30489955  0.26595911  1  0.069045  0  0.106025  0.07757  0  0.972816  0
H  H141  1  0.53148991  0.34599321  0.23247897  1  0.066762  0  0.107177  0.075473  0  0.987644  0
H  H142  1  0.59175463  0.23968246  0.18099167  1  0.061747  0  0.106035  0.075098  0  0.98033  0
H  H143  1  0.53893988  0.20797773  0.22032193  1  0.070383  0  0.106265  0.075798  0  0.985607  0
H  H144  1  0.42007814  0.39305501  0.16458547  1  0.067415  0  0.10804  0.121719  0  0.987649  0
H  H145  1  0.54472655  0.21668146  0.14894515  1  0.074276  0  0.101577  0.111054  0  1.023268  0
H  H146  1  0.37937255  0.40782550  0.10266734  1  0.119561  0  0.10887  0.113669  0  0.988747  0
H  H147  1  0.50304376  0.23187212  0.08843636  1  0.075747  0  0.107782  0.112176  0  0.989893  0
H  H148  1  0.49577380  0.73242114  0.18159051  1  0.102828  0  0.107772  0.112083  0  0.989156  0
H  H149  1  0.42069136  0.82199083  0.06587744  1  0.07967  0  0.108714  0.113511  0  0.988826  0
H  H150  1  0.40271881  0.79265142  0.22900535  1  0.073302  0  0.102843  0.112724  0  1.01755  0
H  H151  1  0.32571976  0.88211634  0.11351603  1  0.085246  0  0.107559  0.121438  0  0.986518  0
H  H152  1  0.30489351  0.84401300  0.26594302  1  0.050715  0  0.106403  0.078445  0  0.972928  0
H  H153  1  0.34595727  0.89009261  0.23244363  1  0.047345  0  0.107089  0.076127  0  0.988032  0
H  H154  1  0.23966708  0.98765730  0.18096034  1  0.058726  0  0.106044  0.075674  0  0.981753  0
H  H155  1  0.20797394  0.03281950  0.22030414  1  0.074264  0  0.106631  0.078752  0  0.982907  0
H  H156  1  0.39314141  0.02221806  0.16456056  1  0.080981  0  0.108087  0.122174  0  0.987156  0
H  H157  1  0.21671220  0.08971435  0.14896822  1  0.029144  0  0.101355  0.110522  0  1.023334  0
H  H158  1  0.40792590  0.11007023  0.10262325  1  0.092702  0  0.108402  0.112465  0  0.989612  0
H  H159  1  0.23192932  0.17669084  0.08846299  1  0.134608  0  0.107859  0.11233  0  0.98998  0
C  C160  1  0.23982624  0.02132961  0.59192556  1  1.549374  0  0.222313  0.603869  0  4.181873  0
C  C161  1  0.27379108  0.96430004  0.62075586  1  -0.03838  0  -0.032279  -0.073613  0  4.006932  0
C  C162  1  0.26548463  0.95845457  0.66682467  1  -0.086698  0  -0.080294  -0.057102  0  3.994261  0
C  C163  1  0.31574842  0.91595493  0.60172337  1  0.040151  0  -0.07949  -0.062579  0  3.993655  0
C  C164  1  0.29943593  0.90622244  0.69335512  1  0.018473  0  -0.115097  -0.235714  0  4.029375  0
C  C165  1  0.34913343  0.86337584  0.62794291  1  -0.005313  0  -0.104222  -0.207848  0  4.005437  0
C  C166  1  0.34184340  0.85878292  0.67364856  1  0.397348  0  0.087291  0.272809  0  4.05942  0
C  C167  1  0.38404635  0.80586157  0.73789603  1  0.441585  0  -0.060849  -0.025374  0  3.865395  0
C  C168  1  0.49361646  0.74589479  0.70938920  1  0.414203  0  -0.062537  -0.029831  0  3.874614  0
C  C169  1  0.55041180  0.80434955  0.66066674  1  0.425702  0  0.087787  0.27268  0  4.056211  0
C  C170  1  0.55628619  0.85830143  0.64740976  1  -0.031809  0  -0.104926  -0.209502  0  4.004464  0
C  C171  1  0.59359888  0.75871701  0.63923187  1  -0.053522  0  -0.115445  -0.236588  0  4.030715  0
C  C172  1  0.60497008  0.86634064  0.61310135  1  0.010975  0  -0.079039  -0.06112  0  3.992623  0
C  C173  1  0.64250894  0.76725046  0.60506355  1  0.009718  0  -0.081602  -0.057519  0  3.996048  0
C  C174  1  0.64886343  0.82081797  0.59154024  1  -0.034484  0  -0.031595  -0.0725  0  4.004423  0
C  C175  1  0.70201507  0.82861468  0.55561510  1  1.539686  0  0.221928  0.604975  0  4.179717  0
C  C176  1  0.14690613  0.23979142  0.59193788  1  1.540704  0  0.222926  0.606411  0  4.178397  0
C  C177  1  0.14111958  0.27377268  0.62075509  1  0.02142  0  -0.032493  -0.075368  0  4.009758  0
C  C178  1  0.10922832  0.26544560  0.66683809  1  -0.020841  0  -0.08074  -0.057996  0  3.993558  0
C  C179  1  0.16651140  0.31575324  0.60171173  1  -0.045736  0  -0.078602  -0.060323  0  3.996136  0
C  C180  1  0.10098828  0.29939157  0.69336499  1  -0.05349  0  -0.114844  -0.234825  0  4.028479  0
C  C181  1  0.15950857  0.34911878  0.62793746  1  0.030877  0  -0.104633  -0.207014  0  4.005095  0
C  C182  1  0.12571630  0.34181030  0.67364854  1  0.403691  0  0.08717  0.272049  0  4.058889  0
C  C183  1  0.07221272  0.38401511  0.73789641  1  0.389075  0  -0.060753  -0.023847  0  3.864563  0
C  C184  1  0.05116646  0.49358690  0.70940858  1  0.427749  0  -0.062052  -0.030073  0  3.872723  0
C  C185  1  0.98467272  0.55045504  0.66064137  1  0.388191  0  0.087934  0.273267  0  4.056539  0
C  C186  1  0.93810582  0.55631477  0.64740457  1  -0.014643  0  -0.104451  -0.208707  0  4.006062  0
C  C187  1  0.00856808  0.59363158  0.63919712  1  -0.005827  0  -0.115969  -0.238013  0  4.029788  0
C  C188  1  0.91567961  0.60497908  0.61309895  1  0.056064  0  -0.079515  -0.06142  0  3.994859  0
C  C189  1  0.98527735  0.64252648  0.60502183  1  0.02261  0  -0.08169  -0.056726  0  3.993407  0
C  C190  1  0.93886932  0.64886585  0.59151409  1  -0.057547  0  -0.031689  -0.074164  0  4.006807  0
C  C191  1  0.91381692  0.70200651  0.55559029  1  1.513308  0  0.222219  0.604689  0  4.176351  0
C  C192  1  0.02132515  0.14694284  0.59190997  1  1.538961  0  0.222758  0.604479  0  4.181441  0
C  C193  1  0.96431123  0.14115144  0.62075765  1  -0.033988  0  -0.032154  -0.073129  0  4.005255  0
C  C194  1  0.95847148  0.10924825  0.66683369  1  -0.05939  0  -0.081124  -0.057791  0  3.992704  0
C  C195  1  0.91596114  0.16656100  0.60173228  1  -0.023912  0  -0.079961  -0.064262  0  3.996647  0
C  C196  1  0.90624281  0.10099806  0.69337061  1  0.020836  0  -0.114303  -0.235146  0  4.026791  0
C  C197  1  0.86338502  0.15954875  0.62796746  1  0.024875  0  -0.104441  -0.206761  0  4.006994  0
C  C198  1  0.85879621  0.12573387  0.67367199  1  0.402382  0  0.087222  0.272529  0  4.059594  0
C  C199  1  0.80588414  0.07218337  0.73792415  1  0.393942  0  -0.060909  -0.023171  0  3.862445  0
C  C200  1  0.74591001  0.05111790  0.70940247  1  0.416005  0  -0.061477  -0.024779  0  3.871128  0
C  C201  1  0.80430617  0.98462774  0.66065005  1  0.409966  0  0.087866  0.272723  0  4.05456  0
C  C202  1  0.85822901  0.93802672  0.64741929  1  -0.006604  0  -0.104664  -0.207838  0  4.004526  0
C  C203  1  0.75867269  0.00855607  0.63920685  1  -0.049937  0  -0.115905  -0.237952  0  4.030969  0
C  C204  1  0.86625104  0.91561398  0.61311806  1  0.012795  0  -0.079491  -0.063649  0  3.995029  0
C  C205  1  0.76719360  0.98528156  0.60504256  1  0.001422  0  -0.081203  -0.056251  0  3.993485  0
C  C206  1  0.82074370  0.93884516  0.59153750  1  -0.05317  0  -0.032111  -0.072812  0  4.003948  0
C  C207  1  0.82856291  0.91382621  0.55560139  1  1.55646  0  0.222267  0.604262  0  4.180171  0
C  C208  1  0.26020826  0.35309292  0.90806297  1  1.540672  0  0.222997  0.60657  0  4.178288  0
C  C209  1  0.22622630  0.35888094  0.87924610  1  0.021433  0  -0.032576  -0.075615  0  4.009882  0
C  C210  1  0.23455284  0.39077269  0.83316312  1  -0.020799  0  -0.080692  -0.057813  0  3.993618  0
C  C211  1  0.18424588  0.33348820  0.89828881  1  -0.045706  0  -0.07856  -0.060342  0  3.996126  0
C  C212  1  0.20060734  0.39901266  0.80663608  1  -0.053398  0  -0.114864  -0.234976  0  4.028608  0
C  C213  1  0.15088050  0.34049122  0.87206297  1  0.030895  0  -0.104629  -0.206957  0  4.005138  0
C  C214  1  0.15818876  0.37428423  0.82635201  1  0.403431  0  0.08722  0.272145  0  4.05905  0
C  C215  1  0.11598534  0.42778745  0.76210379  1  0.389074  0  -0.060721  -0.023758  0  3.864596  0
C  C216  1  0.00641329  0.44883407  0.79059127  1  0.427738  0  -0.061994  -0.02993  0  3.872629  0
C  C217  1  0.94954490  0.51532760  0.83935861  1  0.388192  0  0.087926  0.273268  0  4.056599  0
C  C218  1  0.94368518  0.56189440  0.85259543  1  -0.014649  0  -0.104479  -0.20877  0  4.006069  0
C  C219  1  0.90636842  0.49143230  0.86080282  1  -0.005827  0  -0.115959  -0.238027  0  4.029867  0
C  C220  1  0.89502038  0.58432105  0.88690075  1  0.056058  0  -0.079528  -0.061406  0  3.994811  0
C  C221  1  0.85747341  0.51472294  0.89497756  1  0.022595  0  -0.081663  -0.056705  0  3.993375  0
C  C222  1  0.85113362  0.56113114  0.90848568  1  -0.05763  0  -0.03167  -0.074201  0  4.006891  0
C  C223  1  0.79799342  0.58618312  0.94440945  1  1.513293  0  0.222178  0.604678  0  4.176166  0
C  C224  1  0.35305691  0.47867564  0.90809027  1  1.538942  0  0.222769  0.604538  0  4.181502  0
C  C225  1  0.35884952  0.53568846  0.87924346  1  -0.033846  0  -0.03213  -0.07309  0  4.005273  0
C  C226  1  0.39075288  0.54152822  0.83316706  1  -0.059483  0  -0.081011  -0.05762  0  3.992358  0
C  C227  1  0.33343978  0.58403942  0.89826799  1  -0.024178  0  -0.080001  -0.064441  0  3.996709  0
C  C228  1  0.39900271  0.59375745  0.80663007  1  0.020879  0  -0.114411  -0.235322  0  4.026724  0
C  C229  1  0.34045151  0.63661585  0.87203317  1  0.024901  0  -0.104503  -0.206785  0  4.006984  0
C  C230  1  0.37426657  0.64120446  0.82632835  1  0.40235  0  0.087303  0.272627  0  4.059487  0
C  C231  1  0.42781659  0.69411589  0.76207595  1  0.393916  0  -0.060903  -0.023191  0  3.862484  0
C  C232  1  0.44888305  0.75408943  0.79059719  1  0.415737  0  -0.061518  -0.02485  0  3.871276  0
C  C233  1  0.51537293  0.69569367  0.83934947  1  0.409962  0  0.087884  0.272744  0  4.054591  0
C  C234  1  0.56197422  0.64176988  0.85258077  1  -0.006614  0  -0.104642  -0.207819  0  4.004427  0
C  C235  1  0.49144536  0.74132670  0.86079238  1  -0.049565  0  -0.115927  -0.237962  0  4.030874  0
C  C236  1  0.58438583  0.63374804  0.88688231  1  0.012796  0  -0.079542  -0.063653  0  3.994917  0
C  C237  1  0.51471939  0.73280595  0.89495726  1  0.001072  0  -0.081178  -0.056269  0  3.993426  0
C  C238  1  0.56115467  0.67925613  0.90846262  1  -0.053178  0  -0.032094  -0.072793  0  4.003946  0
C  C239  1  0.58617322  0.67143675  0.94439891  1  1.556426  0  0.222173  0.604145  0  4.180286  0
C  C240  1  0.47867097  0.26017426  0.90807546  1  1.549301  0  0.222337  0.603895  0  4.181905  0
C  C241  1  0.53570050  0.22620849  0.87924506  1  -0.038262  0  -0.032348  -0.073676  0  4.006959  0
C  C242  1  0.54154544  0.23451495  0.83317703  1  -0.086571  0  -0.080286  -0.057128  0  3.994386  0
C  C243  1  0.58404578  0.18425053  0.89827772  1  0.03989  0  -0.079385  -0.062329  0  3.993465  0
C  C244  1  0.59377764  0.20056383  0.80664591  1  0.018509  0  -0.115057  -0.235686  0  4.029311  0
C  C245  1  0.63662449  0.15086564  0.87205796  1  -0.005291  0  -0.104265  -0.208023  0  4.00548  0
C  C246  1  0.64121678  0.15815641  0.82635198  1  0.397344  0  0.087295  0.272828  0  4.059529  0
C  C247  1  0.69413759  0.11595426  0.76210444  1  0.441492  0  -0.060881  -0.025453  0  3.865514  0
C  C248  1  0.75410504  0.00638380  0.79061057  1  0.414226  0  -0.062551  -0.029894  0  3.874629  0
C  C249  1  0.69564983  0.94958854  0.83933333  1  0.425685  0  0.087712  0.272637  0  4.056307  0
C  C250  1  0.64169839  0.94371452  0.85258973  1  -0.031542  0  -0.104959  -0.20954  0  4.004479  0
C  C251  1  0.74128258  0.90640208  0.86076824  1  -0.053511  0  -0.115441  -0.23666  0  4.030746  0
C  C252  1  0.63365942  0.89503043  0.88689784  1  0.010611  0  -0.078994  -0.061102  0  3.992538  0
C  C253  1  0.73274918  0.85749138  0.89493676  1  0.009747  0  -0.081615  -0.057592  0  3.996005  0
C  C254  1  0.67918160  0.85113642  0.90845994  1  -0.034416  0  -0.03159  -0.072426  0  4.004337  0
C  C255  1  0.67138524  0.79798563  0.94438409  1  1.53946  0  0.221915  0.604887  0  4.179821  0
C  C256  1  0.76017365  0.97867039  0.40807438  1  1.549328  0  0.222314  0.603822  0  4.1819  0
C  C257  1  0.72620881  0.03569995  0.37924408  1  -0.038333  0  -0.032238  -0.073468  0  4.006866  0
C  C258  1  0.73451526  0.04154543  0.33317558  1  -0.086719  0  -0.080336  -0.057175  0  3.994357  0
C  C259  1  0.68425147  0.08404507  0.39827658  1  0.040151  0  -0.079476  -0.062628  0  3.993688  0
C  C260  1  0.70056440  0.09377779  0.30664461  1  0.018508  0  -0.115116  -0.235729  0  4.029331  0
C  C261  1  0.65086690  0.13662397  0.37205694  1  -0.005301  0  -0.104213  -0.207785  0  4.00538  0
C  C262  1  0.65815649  0.14121708  0.32635138  1  0.397319  0  0.087283  0.272768  0  4.059425  0
C  C263  1  0.61595354  0.19413802  0.26210435  1  0.441606  0  -0.06084  -0.02534  0  3.865407  0
C  C264  1  0.50638298  0.25410538  0.29061083  1  0.414215  0  -0.062528  -0.029762  0  3.874608  0
C  C265  1  0.44958809  0.19565004  0.33933334  1  0.42572  0  0.087792  0.272676  0  4.05621  0
C  C266  1  0.44371414  0.14169798  0.35259023  1  -0.031812  0  -0.104943  -0.209496  0  4.004473  0
C  C267  1  0.40640101  0.24128299  0.36076838  1  -0.053515  0  -0.115462  -0.2366  0  4.030744  0
C  C268  1  0.39503026  0.13365959  0.38689837  1  0.010911  0  -0.078993  -0.061071  0  3.992541  0
C  C269  1  0.35749095  0.23274954  0.39493670  1  0.009726  0  -0.081578  -0.057569  0  3.995964  0
C  C270  1  0.35113646  0.17918162  0.40846044  1  -0.034425  0  -0.031633  -0.072514  0  4.004414  0
C  C271  1  0.29798527  0.17138555  0.44438462  1  1.539467  0  0.221835  0.604809  0  4.180005  0
C  C272  1  0.85309376  0.76020898  0.40806193  1  1.540738  0  0.222989  0.60659  0  4.17825  0
C  C273  1  0.85888075  0.72622714  0.37924506  1  0.021395  0  -0.032566  -0.075569  0  4.009831  0
C  C274  1  0.89077157  0.73455440  0.33316185  1  -0.020831  0  -0.080721  -0.057886  0  3.993529  0
C  C275  1  0.83348849  0.68424635  0.39828865  1  -0.045733  0  -0.078572  -0.060391  0  3.996132  0
C  C276  1  0.89901161  0.70060843  0.30663495  1  -0.05349  0  -0.114849  -0.234907  0  4.028466  0
C  C277  1  0.84049132  0.65088122  0.37206279  1  0.030873  0  -0.104634  -0.207034  0  4.005138  0
C  C278  1  0.87428359  0.65818970  0.32635141  1  0.403694  0  0.087248  0.272233  0  4.058882  0
C  C279  1  0.92778672  0.61598506  0.26210362  1  0.389106  0  -0.060789  -0.023944  0  3.864617  0
C  C280  1  0.94883343  0.50641309  0.29059137  1  0.427732  0  -0.062017  -0.030042  0  3.872566  0
C  C281  1  0.01532761  0.44954478  0.33935879  1  0.388196  0  0.087889  0.273185  0  4.056514  0
C  C282  1  0.06189407  0.44368523  0.35259568  1  -0.014651  0  -0.104439  -0.208658  0  4.005906  0
C  C283  1  0.99143181  0.40636842  0.36080313  1  -0.00583  0  -0.115992  -0.238066  0  4.029818  0
C  C284  1  0.08432072  0.39502074  0.38690090  1  0.056049  0  -0.079486  -0.061415  0  3.994685  0
C  C285  1  0.01472253  0.35747352  0.39497782  1  0.022619  0  -0.08166  -0.056653  0  3.993402  0
C  C286  1  0.06113101  0.35113397  0.40848547  1  -0.057549  0  -0.031746  -0.074206  0  4.006823  0
C  C287  1  0.08618297  0.29799349  0.44440965  1  1.513305  0  0.222191  0.604602  0  4.176288  0
C  C288  1  0.97867429  0.85305734  0.40809036  1  1.538847  0  0.222791  0.604586  0  4.181317  0
C  C289  1  0.03568910  0.85884878  0.37924298  1  -0.033977  0  -0.032124  -0.073112  0  4.005324  0
C  C290  1  0.04152886  0.89075198  0.33316664  1  -0.059377  0  -0.081091  -0.057737  0  3.9926  0
C  C291  1  0.08403831  0.83343958  0.39826792  1  -0.023956  0  -0.079986  -0.064372  0  3.996813  0
C  C292  1  0.09375708  0.89900194  0.30662994  1  0.021193  0  -0.114403  -0.235296  0  4.026952  0
C  C293  1  0.13661487  0.84045125  0.37203309  1  0.024809  0  -0.104434  -0.206688  0  4.006942  0
C  C294  1  0.14120368  0.87426613  0.32632856  1  0.402013  0  0.087293  0.272633  0  4.059547  0
C  C295  1  0.19411619  0.92781604  0.26207645  1  0.393909  0  -0.060904  -0.023197  0  3.862506  0
C  C296  1  0.25408944  0.94888268  0.29059743  1  0.415704  0  -0.061511  -0.024811  0  3.871234  0
C  C297  1  0.19569372  0.01537225  0.33934929  1  0.409999  0  0.087839  0.272509  0  4.054798  0
C  C298  1  0.14176999  0.06197364  0.35258113  1  -0.006618  0  -0.104655  -0.207775  0  4.004491  0
C  C299  1  0.24132719  0.99144475  0.36079223  1  -0.049604  0  -0.115957  -0.237961  0  4.030938  0
C  C300  1  0.13374796  0.08438555  0.38688203  1  0.012787  0  -0.079537  -0.063657  0  3.994959  0
C  C301  1  0.23280584  0.01471943  0.39495690  1  0.001085  0  -0.081158  -0.056217  0  3.993402  0
C  C302  1  0.17925619  0.06115443  0.40846258  1  -0.053173  0  -0.032095  -0.072812  0  4.003956  0
C  C303  1  0.17143698  0.08617379  0.44439825  1  1.556445  0  0.222216  0.604261  0  4.180285  0
C  C304  1  0.73979163  0.64690708  0.09193698  1  1.540703  0  0.222981  0.606595  0  4.178201  0
C  C305  1  0.77377403  0.64111928  0.12075392  1  0.021445  0  -0.032583  -0.075629  0  4.009925  0
C  C306  1  0.76544705  0.60922772  0.16683669  1  -0.020797  0  -0.080676  -0.057769  0  3.993607  0
C  C307  1  0.81575489  0.66651185  0.10171082  1  -0.045703  0  -0.078594  -0.060426  0  3.996173  0
C  C308  1  0.79939299  0.60098715  0.19336378  1  -0.053396  0  -0.114889  -0.235047  0  4.028601  0
C  C309  1  0.84912028  0.65950842  0.12793680  1  0.030844  0  -0.104637  -0.206935  0  4.005127  0
C  C310  1  0.84181157  0.62571599  0.17364771  1  0.403436  0  0.087226  0.27216  0  4.059028  0
C  C311  1  0.88401499  0.57221237  0.23789637  1  0.389227  0  -0.060715  -0.023836  0  3.864596  0
C  C312  1  0.99358660  0.55116633  0.20940884  1  0.427722  0  -0.06202  -0.030003  0  3.872626  0
C  C313  1  0.05045499  0.48467240  0.16064164  1  0.388204  0  0.087896  0.273191  0  4.056552  0
C  C314  1  0.05631426  0.43810577  0.14740460  1  -0.014643  0  -0.104454  -0.208739  0  4.005953  0
C  C315  1  0.09363103  0.50856788  0.13919691  1  -0.005785  0  -0.115944  -0.237956  0  4.029823  0
C  C316  1  0.10497862  0.41567971  0.11309863  1  0.05602  0  -0.079476  -0.061322  0  3.994901  0
C  C317  1  0.14252559  0.48527741  0.10502195  1  0.022732  0  -0.081711  -0.056833  0  3.993392  0
C  C318  1  0.14886538  0.43886921  0.09151414  1  -0.057671  0  -0.031706  -0.074149  0  4.00684  0
C  C319  1  0.20200513  0.41381700  0.05558999  1  1.51343  0  0.222182  0.604668  0  4.176115  0
C  C320  1  0.64694298  0.52132476  0.09190954  1  1.538956  0  0.222771  0.604536  0  4.181377  0
C  C321  1  0.64115126  0.46431077  0.12075644  1  -0.033849  0  -0.032169  -0.073183  0  4.005218  0
C  C322  1  0.60924790  0.45847101  0.16683314  1  -0.059429  0  -0.081103  -0.057768  0  3.992567  0
C  C323  1  0.66656100  0.41595982  0.10173191  1  -0.024123  0  -0.079953  -0.064246  0  3.996618  0
C  C324  1  0.60099762  0.40624196  0.19336992  1  0.020861  0  -0.114368  -0.235284  0  4.026876  0
C  C325  1  0.65954882  0.36338396  0.12796669  1  0.024799  0  -0.104491  -0.20684  0  4.006958  0
C  C326  1  0.62573377  0.35879536  0.17367181  1  0.402342  0  0.087316  0.272668  0  4.059499  0
C  C327  1  0.57218330  0.30588410  0.23792369  1  0.393907  0  -0.060902  -0.023177  0  3.862534  0
C  C328  1  0.55111684  0.24591057  0.20940275  1  0.415942  0  -0.061501  -0.024804  0  3.871254  0
C  C329  1  0.48462696  0.30430673  0.16065034  1  0.409962  0  0.087817  0.272622  0  4.054644  0
C  C330  1  0.43802611  0.35822994  0.14741909  1  -0.006632  0  -0.104599  -0.207716  0  4.004489  0
C  C331  1  0.50855542  0.25867295  0.13920768  1  -0.049595  0  -0.115946  -0.237988  0  4.030882  0
C  C332  1  0.41561450  0.36625178  0.11311785  1  0.01281  0  -0.079569  -0.063695  0  3.994995  0
C  C333  1  0.48528095  0.26719428  0.10504276  1  0.001097  0  -0.081167  -0.056237  0  3.993362  0
C  C334  1  0.43884567  0.32074410  0.09153711  1  -0.053186  0  -0.032076  -0.072738  0  4.003913  0
C  C335  1  0.41382667  0.32856324  0.05560104  1  1.556431  0  0.222155  0.604074  0  4.180374  0
C  C336  1  0.52132847  0.73982673  0.09192431  1  1.549628  0  0.222362  0.60387  0  4.181826  0
C  C337  1  0.46429939  0.77379191  0.12075475  1  -0.038249  0  -0.03231  -0.07357  0  4.006937  0
C  C338  1  0.45845445  0.76548505  0.16682321  1  -0.086564  0  -0.08032  -0.057198  0  3.99439  0
C  C339  1  0.41595322  0.81575023  0.10172257  1  0.039865  0  -0.079415  -0.062408  0  3.993498  0
C  C340  1  0.40622270  0.79943599  0.19335425  1  0.018633  0  -0.115042  -0.235591  0  4.029327  0
C  C341  1  0.36337540  0.84913436  0.12794228  1  -0.005277  0  -0.104216  -0.207923  0  4.005392  0
C  C342  1  0.35878355  0.84184341  0.17364818  1  0.397205  0  0.087275  0.272736  0  4.059369  0
C  C343  1  0.30586186  0.88404592  0.23789590  1  0.441608  0  -0.060896  -0.025461  0  3.865478  0
C  C344  1  0.24589485  0.99361660  0.20938955  1  0.414219  0  -0.062514  -0.029839  0  3.874604  0
C  C345  1  0.30435051  0.05041210  0.16066655  1  0.425694  0  0.087742  0.272566  0  4.056408  0
C  C346  1  0.35830195  0.05628571  0.14741029  1  -0.031537  0  -0.104943  -0.209474  0  4.004543  0
C  C347  1  0.25871820  0.09359838  0.13923126  1  -0.053517  0  -0.115425  -0.236539  0  4.030797  0
C  C348  1  0.36634091  0.10496979  0.11310219  1  0.010614  0  -0.078969  -0.061045  0  3.992516  0
C  C349  1  0.26725115  0.14250844  0.10506340  1  0.009737  0  -0.081627  -0.057683  0  3.996058  0
C  C350  1  0.32081873  0.14886381  0.09153978  1  -0.034412  0  -0.031626  -0.072458  0  4.004301  0
C  C351  1  0.32861465  0.20201478  0.05561572  1  1.539459  0  0.22187  0.604848  0  4.179902  0
C  C352  1  0.43854201  0.74998726  0.74998821  1  0.053777  0  -0.020519  0.046805  0  3.824797  0
C  C353  1  0.06150662  0.43849399  0.74999954  1  0.057221  0  -0.020376  0.047965  0  3.82312  0
C  C354  1  0.75001297  0.06145866  0.75001128  1  0.05384  0  -0.020555  0.046754  0  3.824772  0
C  C355  1  0.56145788  0.25001314  0.25001190  1  0.053597  0  -0.020526  0.046718  0  3.824903  0
C  C356  1  0.93849327  0.56150641  0.24999997  1  0.057047  0  -0.020398  0.04799  0  3.823131  0
C  C357  1  0.24998692  0.93854133  0.24998866  1  0.053829  0  -0.020552  0.046734  0  3.824967  0
O  O358  1  0.19740925  0.06108544  0.61229413  1  -1.186005  0  -0.320398  -0.553953  0  2.333308  0
O  O359  1  0.25620985  0.02616913  0.54886741  1  -1.167343  0  -0.319536  -0.552395  0  2.341455  0
O  O360  1  0.29595815  0.12051230  0.45681782  1  -1.173933  0  -0.320794  -0.556445  0  2.332121  0
O  O361  1  0.21642431  0.06530779  0.45997025  1  -1.175475  0  -0.321802  -0.555502  0  2.345142  0
O  O362  1  0.37834798  0.80642237  0.69647770  1  -1.087751  0  -0.180598  -0.203133  0  2.554076  0
O  O363  1  0.50127756  0.80014428  0.69495300  1  -1.079359  0  -0.177118  -0.196271  0  2.555479  0
O  O364  1  0.12917940  0.19739142  0.61230918  1  -1.174701  0  -0.32062  -0.554794  0  2.330548  0
O  O365  1  0.16879992  0.25612815  0.54888206  1  -1.175679  0  -0.319865  -0.5537  0  2.340806  0
O  O366  1  0.12666420  0.29597478  0.45681957  1  -1.168522  0  -0.321204  -0.555947  0  2.329899  0
O  O367  1  0.25824703  0.21640770  0.45990273  1  -1.178848  0  -0.321129  -0.554916  0  2.344978  0
O  O368  1  0.11876249  0.37830469  0.69647461  1  -1.080755  0  -0.18052  -0.203598  0  2.554072  0
O  O369  1  0.00368539  0.50132146  0.69494996  1  -1.077692  0  -0.17774  -0.197531  0  2.556904  0
O  O370  1  0.06108431  0.12925111  0.61226576  1  -1.172739  0  -0.320683  -0.554177  0  2.333814  0
O  O371  1  0.02614266  0.16880709  0.54885303  1  -1.173171  0  -0.319842  -0.552899  0  2.340634  0
O  O372  1  0.12057695  0.12668805  0.45679189  1  -1.17806  0  -0.320299  -0.554875  0  2.331318  0
O  O373  1  0.06538167  0.25825635  0.45995129  1  -1.180676  0  -0.321215  -0.554907  0  2.342188  0
O  O374  1  0.80644714  0.11873577  0.69649966  1  -1.074106  0  -0.180644  -0.203735  0  2.556472  0
O  O375  1  0.80013412  0.00364950  0.69494278  1  -1.085266  0  -0.177709  -0.197308  0  2.554756  0
O  O376  1  0.30260880  0.37082007  0.88769136  1  -1.174656  0  -0.320623  -0.554815  0  2.330378  0
O  O377  1  0.24387144  0.33119962  0.95111896  1  -1.175713  0  -0.319871  -0.553707  0  2.340829  0
O  O378  1  0.20402352  0.37333566  0.04318022  1  -1.168597  0  -0.321175  -0.55596  0  2.329889  0
O  O379  1  0.28359300  0.24175218  0.04009772  1  -1.178832  0  -0.321175  -0.554995  0  2.34489  0
O  O380  1  0.12169537  0.38123802  0.80352561  1  -1.080748  0  -0.180544  -0.203635  0  2.554227  0
O  O381  1  0.99867848  0.49631548  0.80505015  1  -1.077682  0  -0.177766  -0.197588  0  2.556898  0
O  O382  1  0.37074793  0.43891625  0.88773481  1  -1.172707  0  -0.320672  -0.55421  0  2.333793  0
O  O383  1  0.33119258  0.47385827  0.95114719  1  -1.173198  0  -0.319859  -0.552912  0  2.340568  0
O  O384  1  0.37331327  0.37942372  0.04320695  1  -1.178039  0  -0.3203  -0.554851  0  2.331339  0
O  O385  1  0.24174265  0.43461740  0.04004913  1  -1.180737  0  -0.321245  -0.554969  0  2.342036  0
O  O386  1  0.38126480  0.69355364  0.80350029  1  -1.074064  0  -0.180693  -0.203769  0  2.556425  0
O  O387  1  0.49635176  0.69986468  0.80505701  1  -1.085005  0  -0.177707  -0.197336  0  2.554783  0
O  O388  1  0.43891549  0.30259117  0.88770679  1  -1.185861  0  -0.320386  -0.55394  0  2.333257  0
O  O389  1  0.47383150  0.24379048  0.95113335  1  -1.167466  0  -0.319577  -0.552469  0  2.341547  0
O  O390  1  0.37948755  0.20404209  0.04318258  1  -1.173954  0  -0.320781  -0.556394  0  2.332186  0
O  O391  1  0.43469237  0.28357511  0.04003001  1  -1.17547  0  -0.321778  -0.555379  0  2.345116  0
O  O392  1  0.69357742  0.12165166  0.80352258  1  -1.087758  0  -0.180622  -0.203133  0  2.554171  0
O  O393  1  0.69985586  0.99872210  0.80504735  1  -1.079357  0  -0.177083  -0.196218  0  2.555516  0
O  O394  1  0.80259064  0.93891456  0.38770581  1  -1.186007  0  -0.320387  -0.553905  0  2.333313  0
O  O395  1  0.74379004  0.97383086  0.45113254  1  -1.167349  0  -0.319536  -0.552399  0  2.341487  0
O  O396  1  0.70404218  0.87948752  0.54318204  1  -1.174135  0  -0.320773  -0.556442  0  2.33211  0
O  O397  1  0.78357558  0.93469261  0.54002896  1  -1.175525  0  -0.321785  -0.555447  0  2.345042  0
O  O398  1  0.62165147  0.19357780  0.30352264  1  -1.087765  0  -0.180592  -0.203119  0  2.554135  0
O  O399  1  0.49872233  0.19985572  0.30504695  1  -1.079351  0  -0.177103  -0.196254  0  2.555513  0
O  O400  1  0.87082049  0.80260899  0.38769093  1  -1.174716  0  -0.320632  -0.554816  0  2.330464  0
O  O401  1  0.83119997  0.74387185  0.45111819  1  -1.175675  0  -0.319866  -0.553742  0  2.34076  0
O  O402  1  0.87333569  0.70402481  0.54318051  1  -1.168532  0  -0.321217  -0.555996  0  2.32996  0
O  O403  1  0.74175331  0.78359253  0.54009700  1  -1.178851  0  -0.321236  -0.555059  0  2.344831  0
O  O404  1  0.88123740  0.62169571  0.30352550  1  -1.080762  0  -0.180558  -0.203663  0  2.554162  0
O  O405  1  0.99631495  0.49867836  0.30505020  1  -1.077651  0  -0.177773  -0.197581  0  2.556873  0
O  O406  1  0.93891558  0.87074889  0.38773449  1  -1.172604  0  -0.320648  -0.554143  0  2.333801  0
O  O407  1  0.97385723  0.83119291  0.45114721  1  -1.173174  0  -0.319884  -0.553007  0  2.340577  0
O  O408  1  0.87942339  0.87331136  0.54320840  1  -1.178066  0  -0.320338  -0.554906  0  2.331326  0
O  O409  1  0.93461822  0.74174365  0.54004896  1  -1.180671  0  -0.321209  -0.55493  0  2.342174  0
O  O410  1  0.19355275  0.88126423  0.30350058  1  -1.07407  0  -0.180647  -0.203757  0  2.556472  0
O  O411  1  0.19986533  0.99635068  0.30505725  1  -1.085017  0  -0.177669  -0.197201  0  2.554805  0
O  O412  1  0.69739109  0.62918074  0.11230862  1  -1.17465  0  -0.32063  -0.554823  0  2.330376  0
O  O413  1  0.75612800  0.66880096  0.04888124  1  -1.175735  0  -0.31985  -0.553728  0  2.340758  0
O  O414  1  0.79597459  0.62666424  0.95681974  1  -1.168532  0  -0.321211  -0.555979  0  2.329819  0
O  O415  1  0.71640689  0.75824741  0.95990236  1  -1.178818  0  -0.321191  -0.555015  0  2.344873  0
O  O416  1  0.87830497  0.61876180  0.19647424  1  -1.080752  0  -0.180535  -0.203616  0  2.554238  0
O  O417  1  0.00132141  0.50368452  0.19495009  1  -1.077682  0  -0.177753  -0.197546  0  2.556903  0
O  O418  1  0.62925196  0.56108375  0.11226514  1  -1.17271  0  -0.320628  -0.554128  0  2.333807  0
O  O419  1  0.66880776  0.52614155  0.04885266  1  -1.173213  0  -0.319877  -0.552923  0  2.340564  0
O  O420  1  0.62668662  0.62057587  0.95679343  1  -1.178039  0  -0.320328  -0.554925  0  2.331362  0
O  O421  1  0.75825591  0.56538231  0.95995044  1  -1.180671  0  -0.321216  -0.554925  0  2.342101  0
O  O422  1  0.61873509  0.30644676  0.19649952  1  -1.074069  0  -0.1807  -0.20378  0  2.556505  0
O  O423  1  0.50364857  0.30013514  0.19494285  1  -1.085004  0  -0.177692  -0.197289  0  2.55472  0
O  O424  1  0.56108440  0.69740924  0.11229272  1  -1.186158  0  -0.320431  -0.553986  0  2.333198  0
O  O425  1  0.52616839  0.75621033  0.04886603  1  -1.167489  0  -0.31956  -0.552403  0  2.341471  0
O  O426  1  0.62051189  0.79595849  0.95681732  1  -1.173956  0  -0.320818  -0.556441  0  2.332139  0
O  O427  1  0.56530797  0.71642471  0.95997015  1  -1.175488  0  -0.321768  -0.55537  0  2.345071  0
O  O428  1  0.30642247  0.87834834  0.19647737  1  -1.087737  0  -0.180626  -0.203124  0  2.554054  0
O  O429  1  0.30014447  0.00127732  0.19495295  1  -1.079348  0  -0.177099  -0.196213  0  2.555583  0
O  O430  1  0.15986032  0.15984366  0.52042468  1  -1.22373  0  -0.572414  -1.026362  0  2.536021  0
O  O431  1  0.34015611  0.34013905  0.97957605  1  -1.223822  0  -0.572411  -1.026341  0  2.535992  0
O  O432  1  0.84013957  0.84015634  0.47957557  1  -1.223733  0  -0.572437  -1.026344  0  2.535964  0
O  O433  1  0.65984378  0.65986054  0.02042434  1  -1.223828  0  -0.572396  -1.026265  0  2.535941  0
