# generated using pymatgen
data_CdH18C26S(NO3)2
_symmetry_space_group_name_H-M   'P 1'
_cell_length_a   16.43383479
_cell_length_b   16.81492064
_cell_length_c   21.83106058
_cell_angle_alpha   89.99997028
_cell_angle_beta   90.00003556
_cell_angle_gamma   116.43414959
_symmetry_Int_Tables_number   1
_chemical_formula_structural   CdH18C26S(NO3)2
_chemical_formula_sum   'Cd8 H144 C208 S8 N16 O48'
_cell_volume   5401.92138343
_cell_formula_units_Z   8
loop_
 _symmetry_equiv_pos_site_id
 _symmetry_equiv_pos_as_xyz
  1  'x, y, z'
loop_
 _atom_site_type_symbol
 _atom_site_label
 _atom_site_symmetry_multiplicity
 _atom_site_fract_x
 _atom_site_fract_y
 _atom_site_fract_z
 _atom_site_occupancy
 _atom_site_pbe_bader_charge
 _atom_site_pbe_bader_spin_density
 _atom_site_pbe_cm5_charge
 _atom_site_pbe_ddec_charge
 _atom_site_pbe_ddec_spin_density
 _atom_site_pbe_ddec_sum_bond_order
 _atom_site_pbe_magmom
Cd  Cd0  1  0.42511506  0.22869576  0.22824595  1  1.285453  0  0.784203  0.894399  0  2.220654  0
Cd  Cd1  1  0.07488475  0.27130404  0.72824631  1  1.285429  0  0.784204  0.894404  0  2.220644  0
Cd  Cd2  1  0.57488518  0.77130469  0.77175406  1  1.285429  0  0.78421  0.894404  0  2.220656  0
Cd  Cd3  1  0.92511489  0.72869508  0.27175416  1  1.285434  0  0.784195  0.89439  0  2.220656  0
Cd  Cd4  1  0.69504102  0.30273037  0.29304587  1  1.283179  0  0.773294  0.886028  0  2.1781  0
Cd  Cd5  1  0.80495810  0.19726888  0.79304591  1  1.283166  0  0.773292  0.886012  0  2.178133  0
Cd  Cd6  1  0.30495892  0.69726941  0.70695413  1  1.283178  0  0.773296  0.886035  0  2.178077  0
Cd  Cd7  1  0.19504123  0.80273090  0.20695410  1  1.283162  0  0.773284  0.886012  0  2.178115  0
H  H8  1  0.42572671  0.41637246  0.24916885  1  0.11939  0  0.118604  0.095272  0  0.994733  0
H  H9  1  0.07427311  0.08362733  0.74916883  1  0.119388  0  0.118595  0.095264  0  0.994724  0
H  H10  1  0.57427323  0.58362732  0.75083161  1  0.119376  0  0.11862  0.095302  0  0.994639  0
H  H11  1  0.92572743  0.91637246  0.25083164  1  0.119376  0  0.118632  0.095305  0  0.99465  0
H  H12  1  0.44451511  0.52498736  0.33351655  1  0.076549  0  0.106284  0.113302  0  1.005904  0
H  H13  1  0.05548696  0.97501291  0.83351681  1  0.076536  0  0.106282  0.113292  0  1.005906  0
H  H14  1  0.55548605  0.47501243  0.66648392  1  0.076543  0  0.10628  0.113308  0  1.005877  0
H  H15  1  0.94451572  0.02498755  0.16648365  1  0.076556  0  0.106286  0.113295  0  1.005895  0
H  H16  1  0.42981712  0.32302059  0.46178383  1  0.08719  0  0.107929  0.112643  0  1.014068  0
H  H17  1  0.07018497  0.17697979  0.96178376  1  0.086807  0  0.107916  0.112617  0  1.014086  0
H  H18  1  0.57018556  0.67697987  0.53821663  1  0.08682  0  0.107931  0.112602  0  1.014118  0
H  H19  1  0.92981680  0.82302001  0.03821670  1  0.087205  0  0.107922  0.112622  0  1.014106  0
H  H20  1  0.41955669  0.22789381  0.37352061  1  0.13944  0  0.121865  0.098074  0  0.995234  0
H  H21  1  0.08044322  0.27210594  0.87352097  1  0.139314  0  0.121868  0.098083  0  0.995228  0
H  H22  1  0.58044325  0.77210598  0.62647939  1  0.139314  0  0.121867  0.098081  0  0.995231  0
H  H23  1  0.91955672  0.72789385  0.12647995  1  0.139165  0  0.121865  0.098074  0  0.995205  0
H  H24  1  0.45885531  0.55923131  0.44024155  1  0.044883  0  0.100778  0.080894  0  0.999557  0
H  H25  1  0.04114651  0.94076959  0.94024228  1  0.044847  0  0.100762  0.080914  0  0.999523  0
H  H26  1  0.54114615  0.44076915  0.55975846  1  0.04485  0  0.100759  0.080892  0  0.999512  0
H  H27  1  0.95885556  0.05923087  0.05975865  1  0.044881  0  0.100781  0.080892  0  0.999602  0
H  H28  1  0.39243698  0.39587063  0.52291643  1  0.045115  0  0.106412  0.093584  0  0.982626  0
H  H29  1  0.10756422  0.10412992  0.02291598  1  0.045088  0  0.106436  0.09358  0  0.982634  0
H  H30  1  0.60756478  0.60413049  0.47708403  1  0.045095  0  0.106439  0.093599  0  0.982592  0
H  H31  1  0.89243724  0.89587053  0.97708403  1  0.045115  0  0.106412  0.093569  0  0.982638  0
H  H32  1  0.33682717  0.68944103  0.56307520  1  0.123033  0  0.118627  0.095062  0  0.988252  0
H  H33  1  0.16317259  0.81055867  0.06307560  1  0.12303  0  0.118638  0.095051  0  0.988264  0
H  H34  1  0.66317368  0.31055942  0.43692481  1  0.123031  0  0.118685  0.095173  0  0.988301  0
H  H35  1  0.83682644  0.18944044  0.93692532  1  0.123039  0  0.118608  0.095042  0  0.988366  0
H  H36  1  0.39166963  0.61328772  0.48982729  1  0.115631  0  0.09952  0.108169  0  1.05902  0
H  H37  1  0.10833132  0.88671249  0.98982716  1  0.11566  0  0.099535  0.108178  0  1.059015  0
H  H38  1  0.60833183  0.38671274  0.51017317  1  0.115637  0  0.099526  0.108199  0  1.059029  0
H  H39  1  0.89166923  0.11328730  0.01017331  1  0.115623  0  0.099513  0.108172  0  1.059039  0
H  H40  1  0.34355242  0.41402623  0.62940048  1  0.110201  0  0.10315  0.112002  0  1.040056  0
H  H41  1  0.15644794  0.08597361  0.12940097  1  0.110211  0  0.103139  0.111967  0  1.040075  0
H  H42  1  0.65644752  0.58597355  0.37059953  1  0.110211  0  0.103153  0.112003  0  1.040041  0
H  H43  1  0.84355291  0.91402684  0.87059950  1  0.110212  0  0.103153  0.112004  0  1.040057  0
H  H44  1  0.28457048  0.49566498  0.69529234  1  0.139199  0  0.118032  0.098379  0  1.011232  0
H  H45  1  0.21542932  0.00433483  0.19529290  1  0.139192  0  0.118029  0.098379  0  1.01122  0
H  H46  1  0.71542885  0.50433480  0.30470720  1  0.139196  0  0.118032  0.09838  0  1.011215  0
H  H47  1  0.78457062  0.99566495  0.80470757  1  0.139207  0  0.11804  0.09839  0  1.011238  0
H  H48  1  0.43806505  0.04737233  0.19570886  1  0.133149  0  0.118784  0.095217  0  1.00884  0
H  H49  1  0.06193444  0.45262682  0.69570868  1  0.133198  0  0.118789  0.095245  0  1.008801  0
H  H50  1  0.56193367  0.95262744  0.80429160  1  0.133168  0  0.118768  0.095236  0  1.008852  0
H  H51  1  0.93806642  0.54737231  0.30429178  1  0.133174  0  0.118778  0.095227  0  1.008806  0
H  H52  1  0.41554356  0.94475400  0.10848937  1  0.0978  0  0.106985  0.116795  0  1.014475  0
H  H53  1  0.08445533  0.55524501  0.60848936  1  0.097818  0  0.10698  0.116803  0  1.014466  0
H  H54  1  0.58445516  0.05524577  0.89151110  1  0.097796  0  0.106966  0.116773  0  1.014476  0
H  H55  1  0.91554492  0.44475411  0.39151111  1  0.097801  0  0.106986  0.116792  0  1.014442  0
H  H56  1  0.37392210  0.13314259  0.99302190  1  0.096458  0  0.102192  0.108093  0  1.037843  0
H  H57  1  0.12607758  0.36685645  0.49302181  1  0.096456  0  0.102172  0.108075  0  1.037852  0
H  H58  1  0.62607783  0.86685720  0.00697765  1  0.096462  0  0.10219  0.108093  0  1.037846  0
H  H59  1  0.87392206  0.63314267  0.50697774  1  0.096458  0  0.102186  0.108087  0  1.037849  0
H  H60  1  0.40168875  0.22872757  0.08434180  1  0.132067  0  0.114216  0.092265  0  1.033132  0
H  H61  1  0.09831158  0.27127229  0.58434171  1  0.132044  0  0.114211  0.092233  0  1.033132  0
H  H62  1  0.59831058  0.77127221  0.91565820  1  0.132068  0  0.114214  0.092258  0  1.033144  0
H  H63  1  0.90168958  0.72872750  0.41565829  1  0.132073  0  0.114215  0.092246  0  1.03315  0
H  H64  1  0.37800359  0.90575435  0.00419164  1  0.077931  0  0.106124  0.1024  0  1.000488  0
H  H65  1  0.12199462  0.59424470  0.50419163  1  0.077935  0  0.106138  0.102375  0  1.000541  0
H  H66  1  0.62199695  0.09424676  0.99580791  1  0.077926  0  0.106136  0.102407  0  1.000462  0
H  H67  1  0.87800259  0.40575308  0.49580838  1  0.077923  0  0.106141  0.102408  0  1.000471  0
H  H68  1  0.36710132  0.04697347  0.91888489  1  0.046071  0  0.103707  0.103049  0  1.011654  0
H  H69  1  0.13289862  0.45302626  0.41888477  1  0.046071  0  0.103719  0.103065  0  1.01165  0
H  H70  1  0.63289953  0.95302698  0.08111466  1  0.046075  0  0.103724  0.103097  0  1.011617  0
H  H71  1  0.86710102  0.54697286  0.58111524  1  0.046075  0  0.103716  0.103084  0  1.01163  0
H  H72  1  0.29682734  0.70406986  0.85120960  1  0.104397  0  0.118891  0.091028  0  1.005908  0
H  H73  1  0.20317261  0.79592973  0.35120912  1  0.104403  0  0.118891  0.091023  0  1.005919  0
H  H74  1  0.70317260  0.29592992  0.14879086  1  0.104395  0  0.118895  0.091046  0  1.005899  0
H  H75  1  0.79682764  0.20406939  0.64879135  1  0.104397  0  0.118913  0.091071  0  1.005886  0
H  H76  1  0.31596387  0.80276147  0.93973804  1  0.088263  0  0.111974  0.118286  0  0.99147  0
H  H77  1  0.18403643  0.69723875  0.43973759  1  0.088289  0  0.111964  0.118272  0  0.991451  0
H  H78  1  0.68403666  0.19723964  0.06026197  1  0.088265  0  0.111975  0.11831  0  0.991482  0
H  H79  1  0.81596321  0.30276037  0.56026196  1  0.088265  0  0.111975  0.118303  0  0.991486  0
H  H80  1  0.37046763  0.01548551  0.81041651  1  0.058186  0  0.108497  0.115508  0  1.001429  0
H  H81  1  0.12953223  0.48451426  0.31041591  1  0.058182  0  0.108504  0.115544  0  1.001415  0
H  H82  1  0.62953322  0.98451494  0.18958350  1  0.05819  0  0.108489  0.115542  0  1.001403  0
H  H83  1  0.87046709  0.51548552  0.68958364  1  0.058187  0  0.1085  0.115555  0  1.001435  0
H  H84  1  0.34637748  0.90583664  0.72658668  1  0.083794  0  0.119063  0.091207  0  0.991819  0
H  H85  1  0.15362268  0.59416367  0.22658579  1  0.083783  0  0.119047  0.091196  0  0.991852  0
H  H86  1  0.65362397  0.09416382  0.27341379  1  0.083792  0  0.119038  0.091169  0  0.991819  0
H  H87  1  0.84637542  0.40583610  0.77341376  1  0.083786  0  0.119042  0.091171  0  0.991837  0
H  H88  1  0.10281107  0.18374462  0.21918632  1  0.105397  0  0.106997  0.113213  0  0.996459  0
H  H89  1  0.39718755  0.31625252  0.71918589  1  0.105462  0  0.107006  0.113223  0  0.996446  0
H  H90  1  0.89718978  0.81625583  0.78081278  1  0.10538  0  0.107007  0.113231  0  0.996416  0
H  H91  1  0.60281029  0.68374393  0.28081458  1  0.105404  0  0.106993  0.113211  0  0.996443  0
H  H92  1  0.97633849  0.20604471  0.16844322  1  0.109948  0  0.109143  0.115885  0  0.99289  0
H  H93  1  0.52366117  0.29395327  0.66844354  1  0.109947  0  0.109136  0.115863  0  0.992883  0
H  H94  1  0.02366145  0.79395508  0.83155679  1  0.109954  0  0.109138  0.115857  0  0.992918  0
H  H95  1  0.47633667  0.70604318  0.33155693  1  0.109908  0  0.109111  0.115853  0  0.992933  0
H  H96  1  0.16109372  0.35615202  0.02479446  1  0.095807  0  0.110822  0.118373  0  0.990839  0
H  H97  1  0.33890626  0.14384852  0.52479407  1  0.095796  0  0.110824  0.118366  0  0.990837  0
H  H98  1  0.83890529  0.64384842  0.97520509  1  0.095832  0  0.11083  0.118388  0  0.990828  0
H  H99  1  0.66109246  0.85615125  0.47520502  1  0.095861  0  0.110843  0.118395  0  0.990804  0
H  H100  1  0.28785703  0.33849163  0.07831685  1  0.134166  0  0.105948  0.120112  0  1.027269  0
H  H101  1  0.21214148  0.16150690  0.57831548  1  0.134137  0  0.105986  0.120165  0  1.027295  0
H  H102  1  0.71214290  0.66150948  0.92168269  1  0.134164  0  0.105947  0.120108  0  1.027295  0
H  H103  1  0.78785664  0.83849155  0.42168315  1  0.134181  0  0.105949  0.120148  0  1.027272  0
H  H104  1  0.87828373  0.45776651  0.20623700  1  0.143457  0  0.108893  0.127567  0  1.024277  0
H  H105  1  0.62171563  0.04223344  0.70623701  1  0.143472  0  0.108904  0.127585  0  1.024252  0
H  H106  1  0.12171590  0.54223393  0.79376255  1  0.143455  0  0.108913  0.127638  0  1.024226  0
H  H107  1  0.37828340  0.95776568  0.29376300  1  0.143457  0  0.108894  0.127628  0  1.024254  0
H  H108  1  0.87529714  0.32157665  0.15873636  1  0.116801  0  0.105502  0.112471  0  1.020357  0
H  H109  1  0.62470218  0.17842331  0.65873632  1  0.116804  0  0.105507  0.112479  0  1.02036  0
H  H110  1  0.12470280  0.67842313  0.84126365  1  0.116789  0  0.105512  0.112485  0  1.020387  0
H  H111  1  0.37529776  0.82157647  0.34126369  1  0.116798  0  0.105531  0.112506  0  1.02034  0
H  H112  1  0.08676222  0.48498143  0.03306337  1  0.110605  0  0.108548  0.114796  0  0.99153  0
H  H113  1  0.41323747  0.01501844  0.53306306  1  0.110586  0  0.108547  0.114791  0  0.991576  0
H  H114  1  0.91323833  0.51501835  0.96693710  1  0.110601  0  0.108519  0.114754  0  0.991557  0
H  H115  1  0.58676186  0.98498134  0.46693694  1  0.110604  0  0.108529  0.114763  0  0.991534  0
H  H116  1  0.09565111  0.62165257  0.08582990  1  0.123031  0  0.109222  0.12382  0  1.003235  0
H  H117  1  0.40434989  0.87834713  0.58582899  1  0.123026  0  0.10921  0.123783  0  1.003244  0
H  H118  1  0.90435035  0.37834788  0.91417102  1  0.123031  0  0.10922  0.123802  0  1.003246  0
H  H119  1  0.59565066  0.12165266  0.41417056  1  0.123042  0  0.10922  0.123827  0  1.003214  0
H  H120  1  0.82000046  0.17467965  0.44016704  1  0.109029  0  0.108696  0.116701  0  0.992326  0
H  H121  1  0.67999995  0.32532088  0.94016697  1  0.109028  0  0.108711  0.116719  0  0.992311  0
H  H122  1  0.18000009  0.82532014  0.55983296  1  0.109118  0  0.108701  0.116701  0  0.992323  0
H  H123  1  0.32000028  0.67467957  0.05983350  1  0.109127  0  0.108706  0.116734  0  0.992313  0
H  H124  1  0.93978795  0.13914095  0.48840706  1  0.113759  0  0.110543  0.118633  0  0.999716  0
H  H125  1  0.56021219  0.36085889  0.98840738  1  0.113744  0  0.110538  0.118622  0  0.999725  0
H  H126  1  0.06021259  0.86085883  0.51159249  1  0.113735  0  0.11053  0.118622  0  0.999689  0
H  H127  1  0.43978743  0.63914156  0.01159263  1  0.113755  0  0.110523  0.118626  0  0.999717  0
H  H128  1  0.12774195  0.28833278  0.34597400  1  0.106498  0  0.110245  0.116564  0  0.988046  0
H  H129  1  0.37225794  0.21166697  0.84597406  1  0.10649  0  0.110241  0.116547  0  0.988054  0
H  H130  1  0.87225768  0.71166766  0.65402555  1  0.106502  0  0.110254  0.116583  0  0.988015  0
H  H131  1  0.62774230  0.78833347  0.15402549  1  0.106507  0  0.110246  0.116544  0  0.988052  0
H  H132  1  0.00732082  0.32419867  0.29936973  1  0.100858  0  0.106052  0.110401  0  1.008295  0
H  H133  1  0.49267934  0.17580177  0.79936986  1  0.10084  0  0.106039  0.110412  0  1.008323  0
H  H134  1  0.99267881  0.67580177  0.70063028  1  0.100844  0  0.106018  0.110356  0  1.008323  0
H  H135  1  0.50732090  0.82419868  0.20063015  1  0.100861  0  0.106046  0.110417  0  1.008304  0
H  H136  1  0.00528553  0.88404887  0.37645016  1  0.140773  0  0.107374  0.123  0  1.026983  0
H  H137  1  0.49471444  0.61595071  0.87645077  1  0.140787  0  0.107368  0.122972  0  1.026997  0
H  H138  1  0.99471471  0.11595158  0.62354985  1  0.140763  0  0.107379  0.122984  0  1.026949  0
H  H139  1  0.50528489  0.38404907  0.12354924  1  0.140773  0  0.107384  0.122982  0  1.026966  0
H  H140  1  0.99874369  0.00165816  0.44115928  1  0.112588  0  0.107026  0.115714  0  1.014907  0
H  H141  1  0.50125552  0.49834103  0.94115951  1  0.112583  0  0.107021  0.115729  0  1.014891  0
H  H142  1  0.00125655  0.99834229  0.55884072  1  0.112565  0  0.107017  0.115722  0  1.014883  0
H  H143  1  0.49874381  0.50165875  0.05884049  1  0.112565  0  0.107023  0.115732  0  1.014884  0
H  H144  1  0.25660277  0.19127258  0.36762806  1  0.120302  0  0.102869  0.105028  0  1.048106  0
H  H145  1  0.24339622  0.30872649  0.86762802  1  0.120338  0  0.102855  0.105007  0  1.048118  0
H  H146  1  0.74339778  0.80872720  0.63237195  1  0.120307  0  0.102853  0.105017  0  1.04816  0
H  H147  1  0.75660311  0.69127329  0.13237244  1  0.120296  0  0.102867  0.105022  0  1.048108  0
H  H148  1  0.26764075  0.06914592  0.30755405  1  0.147713  0  0.10816  0.122247  0  1.030645  0
H  H149  1  0.23235881  0.43085319  0.80755395  1  0.147703  0  0.108141  0.12222  0  1.030684  0
H  H150  1  0.73235950  0.93085321  0.69244642  1  0.14771  0  0.108137  0.122211  0  1.03072  0
H  H151  1  0.76764083  0.56914593  0.19244605  1  0.147711  0  0.108157  0.122238  0  1.030652  0
C  C152  1  0.42780855  0.39955383  0.29723295  1  0.463465  0  0.045961  0.096141  0  3.958891  0
C  C153  1  0.07219192  0.10044595  0.79723291  1  0.463439  0  0.045976  0.096162  0  3.958822  0
C  C154  1  0.57219230  0.60044662  0.70276752  1  0.463448  0  0.045946  0.096109  0  3.958758  0
C  C155  1  0.92780924  0.89955384  0.20276756  1  0.463477  0  0.04595  0.09612  0  3.958781  0
C  C156  1  0.43702972  0.45873389  0.34426821  1  -0.02487  0  -0.087038  -0.186076  0  3.964948  0
C  C157  1  0.06297168  0.04126654  0.84426820  1  -0.024842  0  -0.087052  -0.186069  0  3.964909  0
C  C158  1  0.56297112  0.54126656  0.65573179  1  -0.02484  0  -0.087051  -0.186094  0  3.964953  0
C  C159  1  0.93703039  0.95873392  0.15573227  1  -0.024872  0  -0.087018  -0.186002  0  3.964931  0
C  C160  1  0.44037197  0.43409438  0.40514799  1  -0.008424  0  0.010859  0.136713  0  3.953398  0
C  C161  1  0.05962977  0.06590668  0.90514796  1  -0.008433  0  0.01088  0.136719  0  3.953395  0
C  C162  1  0.55962979  0.56590674  0.59485247  1  -0.008441  0  0.010855  0.13666  0  3.953418  0
C  C163  1  0.94037259  0.93409444  0.09485250  1  -0.008436  0  0.010843  0.13666  0  3.953461  0
C  C164  1  0.42951429  0.34780603  0.41576957  1  -0.025611  0  -0.078207  -0.155942  0  3.93176  0
C  C165  1  0.07048717  0.15219437  0.91576997  1  -0.025299  0  -0.078235  -0.155975  0  3.931817  0
C  C166  1  0.57048717  0.65219442  0.58423044  1  -0.025299  0  -0.078236  -0.155934  0  3.931841  0
C  C167  1  0.92951429  0.84780609  0.08423095  1  -0.025602  0  -0.078189  -0.155921  0  3.931813  0
C  C168  1  0.42275501  0.29331462  0.36647239  1  0.470786  0  0.051045  0.102888  0  3.951097  0
C  C169  1  0.07724550  0.20668513  0.86647231  1  0.470982  0  0.051038  0.102867  0  3.951152  0
C  C170  1  0.57724554  0.70668517  0.63352762  1  0.470975  0  0.051036  0.102861  0  3.951134  0
C  C171  1  0.92275505  0.79331465  0.13352816  1  0.471024  0  0.051046  0.102945  0  3.951021  0
C  C172  1  0.46759845  0.50127843  0.45529717  1  -0.00762  0  -0.07101  -0.071148  0  3.758036  0
C  C173  1  0.03240309  0.99872179  0.95529742  1  -0.007506  0  -0.070975  -0.071153  0  3.757957  0
C  C174  1  0.53240362  0.49872203  0.54470329  1  -0.007506  0  -0.070909  -0.071018  0  3.757816  0
C  C175  1  0.96759837  0.00127866  0.04470305  1  -0.007458  0  -0.070999  -0.071168  0  3.758086  0
C  C176  1  0.43064020  0.46847280  0.52037555  1  0.041491  0  -0.066561  -0.066675  0  3.737074  0
C  C177  1  0.06936190  0.03152843  0.02037557  1  0.041442  0  -0.066556  -0.066564  0  3.737029  0
C  C178  1  0.56936126  0.53152766  0.47962492  1  0.041477  0  -0.066536  -0.066557  0  3.737003  0
C  C179  1  0.93064046  0.96847270  0.97962490  1  0.0414  0  -0.066524  -0.066573  0  3.737082  0
C  C180  1  0.33799283  0.62727644  0.57576493  1  0.465384  0  0.0493  0.112036  0  3.938422  0
C  C181  1  0.16200846  0.87272393  0.07576531  1  0.465927  0  0.049288  0.112076  0  3.938379  0
C  C182  1  0.66200801  0.37272401  0.42423554  1  0.465373  0  0.049238  0.111939  0  3.938453  0
C  C183  1  0.83799270  0.12727586  0.92423562  1  0.465384  0  0.049311  0.112045  0  3.938535  0
C  C184  1  0.37037297  0.58418488  0.53502574  1  -0.034547  0  -0.090713  -0.188191  0  3.953982  0
C  C185  1  0.12962890  0.91581551  0.03502563  1  -0.03469  0  -0.090711  -0.188199  0  3.953985  0
C  C186  1  0.62962849  0.41581557  0.46497473  1  -0.03417  0  -0.090742  -0.18823  0  3.954005  0
C  C187  1  0.87037226  0.08418428  0.96497483  1  -0.034179  0  -0.090711  -0.188172  0  3.954034  0
C  C188  1  0.37827106  0.50854995  0.55410408  1  -0.071461  0  0.008297  0.13036  0  3.951317  0
C  C189  1  0.12173113  0.99145110  0.05410439  1  -0.071842  0  0.008288  0.130327  0  3.951311  0
C  C190  1  0.62173040  0.49145051  0.44589639  1  -0.071887  0  0.008273  0.130255  0  3.95133  0
C  C191  1  0.87827063  0.00855002  0.94589653  1  -0.071909  0  0.008267  0.130309  0  3.951365  0
C  C192  1  0.34306806  0.47452535  0.61206507  1  -0.024772  0  -0.087436  -0.176944  0  3.9457  0
C  C193  1  0.15693259  0.02547517  0.11206513  1  -0.025261  0  -0.087424  -0.176896  0  3.945694  0
C  C194  1  0.65693218  0.52547510  0.38793539  1  -0.024776  0  -0.087433  -0.176908  0  3.945669  0
C  C195  1  0.84306887  0.97452529  0.88793533  1  -0.024778  0  -0.087432  -0.176933  0  3.945703  0
C  C196  1  0.31043331  0.52031683  0.64971279  1  0.477567  0  0.043303  0.099143  0  3.942074  0
C  C197  1  0.18956712  0.97968284  0.14971269  1  0.478081  0  0.043306  0.09916  0  3.942069  0
C  C198  1  0.68956663  0.47968295  0.35028722  1  0.477624  0  0.043312  0.099168  0  3.942043  0
C  C199  1  0.81043343  0.02031694  0.85028778  1  0.477624  0  0.043315  0.099159  0  3.94209  0
C  C200  1  0.42605376  0.06458953  0.14960665  1  0.472815  0  0.047198  0.099482  0  3.94771  0
C  C201  1  0.07394600  0.43541030  0.64960603  1  0.472801  0  0.047192  0.099468  0  3.947783  0
C  C202  1  0.57394586  0.93541091  0.85039336  1  0.472837  0  0.047235  0.099459  0  3.94779  0
C  C203  1  0.92605455  0.56458948  0.35039352  1  0.472848  0  0.047188  0.099479  0  3.947751  0
C  C204  1  0.41300920  0.00757641  0.10059026  1  -0.02981  0  -0.079693  -0.169155  0  3.932445  0
C  C205  1  0.08699024  0.49242278  0.60059007  1  -0.029833  0  -0.079696  -0.169148  0  3.932397  0
C  C206  1  0.58699165  0.99242404  0.89940975  1  -0.029838  0  -0.07968  -0.169111  0  3.932443  0
C  C207  1  0.91300879  0.50757634  0.39940993  1  -0.02979  0  -0.07963  -0.169036  0  3.932411  0
C  C208  1  0.39412930  0.03020878  0.04214188  1  -0.040783  0  0.005228  0.138811  0  4.030503  0
C  C209  1  0.10587009  0.46979043  0.54214125  1  -0.04066  0  0.005217  0.138764  0  4.030526  0
C  C210  1  0.60587186  0.96979101  0.95785813  1  -0.040765  0  0.005237  0.13881  0  4.030611  0
C  C211  1  0.89412862  0.53020935  0.45785830  1  -0.041052  0  0.005226  0.138749  0  4.030595  0
C  C212  1  0.39035626  0.11185095  0.03643073  1  0.001089  0  -0.083555  -0.167099  0  3.921147  0
C  C213  1  0.10964343  0.38814892  0.53643060  1  0.001083  0  -0.083496  -0.167089  0  3.921176  0
C  C214  1  0.60964489  0.88815017  0.96356928  1  0.001031  0  -0.083562  -0.167134  0  3.921182  0
C  C215  1  0.89035499  0.61185019  0.46356941  1  0.001265  0  -0.083575  -0.167141  0  3.921197  0
C  C216  1  0.40514042  0.16556226  0.08746993  1  0.45054  0  0.040308  0.085773  0  3.957678  0
C  C217  1  0.09485961  0.33443694  0.58746981  1  0.450536  0  0.040362  0.085945  0  3.95756  0
C  C218  1  0.59485952  0.83443752  0.91253008  1  0.45051  0  0.040316  0.085807  0  3.95765  0
C  C219  1  0.90514003  0.66556218  0.41253020  1  0.45054  0  0.040312  0.08583  0  3.957678  0
C  C220  1  0.37778318  0.96859672  0.99156006  1  -0.071122  0  -0.074994  -0.107806  0  3.955906  0
C  C221  1  0.12221625  0.53140281  0.49155964  1  -0.071204  0  -0.074978  -0.107696  0  3.955956  0
C  C222  1  0.62221798  0.03140307  0.00843949  1  -0.071098  0  -0.074998  -0.107747  0  3.955851  0
C  C223  1  0.87778156  0.46859629  0.50843945  1  -0.071091  0  -0.074981  -0.107709  0  3.955827  0
C  C224  1  0.36397470  0.98304521  0.93240214  1  -0.01214  0  -0.076514  -0.112086  0  3.935646  0
C  C225  1  0.13602499  0.51695501  0.43240173  1  -0.012126  0  -0.076541  -0.112159  0  3.93564  0
C  C226  1  0.63602614  0.01695524  0.06759787  1  -0.01212  0  -0.076548  -0.112207  0  3.93561  0
C  C227  1  0.86397373  0.48304476  0.56759827  1  -0.01212  0  -0.076527  -0.112188  0  3.935612  0
C  C228  1  0.31419983  0.77391582  0.84427406  1  0.482466  0  0.04663  0.097489  0  3.964827  0
C  C229  1  0.18580133  0.72608511  0.34427360  1  0.482424  0  0.046675  0.097556  0  3.964881  0
C  C230  1  0.68580102  0.22608463  0.15572594  1  0.482453  0  0.046648  0.097475  0  3.964884  0
C  C231  1  0.81419891  0.27391534  0.65572595  1  0.482453  0  0.046622  0.097411  0  3.964905  0
C  C232  1  0.32581216  0.82977881  0.89352224  1  -0.021805  0  -0.074798  -0.153882  0  3.914818  0
C  C233  1  0.17418903  0.67022210  0.39352133  1  -0.021792  0  -0.074832  -0.153917  0  3.914866  0
C  C234  1  0.67418869  0.17022164  0.10647777  1  -0.02181  0  -0.074821  -0.153933  0  3.914927  0
C  C235  1  0.82581121  0.32977835  0.60647776  1  -0.021818  0  -0.074823  -0.153908  0  3.914905  0
C  C236  1  0.34776083  0.91957084  0.88301334  1  0.00045  0  0.010632  0.151134  0  4.022687  0
C  C237  1  0.15224005  0.58042941  0.38301246  1  0.000454  0  0.010645  0.15115  0  4.022658  0
C  C238  1  0.65223941  0.08042961  0.11698712  1  0.000459  0  0.010653  0.151168  0  4.022701  0
C  C239  1  0.84775959  0.41956971  0.61698709  1  0.00045  0  0.010629  0.151165  0  4.022706  0
C  C240  1  0.35413110  0.94680128  0.82151747  1  -0.004244  0  -0.080748  -0.177739  0  3.928018  0
C  C241  1  0.14586973  0.55319899  0.32151706  1  -0.004254  0  -0.080732  -0.177733  0  3.928101  0
C  C242  1  0.64587035  0.05319918  0.17848299  1  -0.004255  0  -0.080744  -0.17777  0  3.928066  0
C  C243  1  0.85412959  0.44680079  0.67848295  1  -0.004238  0  -0.080774  -0.177835  0  3.928107  0
C  C244  1  0.34121253  0.88628097  0.77464344  1  0.520911  0  0.048092  0.095523  0  3.965389  0
C  C245  1  0.15878828  0.61371932  0.27464347  1  0.520925  0  0.048059  0.095467  0  3.965514  0
C  C246  1  0.65878954  0.11371949  0.22535611  1  0.520911  0  0.048127  0.095557  0  3.965305  0
C  C247  1  0.84121044  0.38628046  0.72535654  1  0.52091  0  0.048065  0.095501  0  3.965492  0
C  C248  1  0.27771806  0.24773635  0.18150425  1  1.588146  0  0.18685  0.541747  0  4.261887  0
C  C249  1  0.22228174  0.25226214  0.68150468  1  1.588356  0  0.186826  0.541717  0  4.261808  0
C  C250  1  0.72228248  0.75226476  0.81849484  1  1.588144  0  0.186868  0.541784  0  4.261887  0
C  C251  1  0.77771638  0.74773630  0.31849532  1  1.58812  0  0.186772  0.541651  0  4.261867  0
C  C252  1  0.20217278  0.26104628  0.15183733  1  -0.083693  0  -0.009184  -0.009368  0  3.944572  0
C  C253  1  0.29782670  0.23895156  0.65183734  1  -0.083741  0  -0.009174  -0.009334  0  3.944523  0
C  C254  1  0.79782714  0.73895483  0.84816222  1  -0.083334  0  -0.00917  -0.009356  0  3.944465  0
C  C255  1  0.70217174  0.76104622  0.34816175  1  -0.083642  0  -0.009172  -0.009348  0  3.944541  0
C  C256  1  0.11462051  0.22264528  0.17727355  1  -0.018117  0  -0.082809  -0.098911  0  3.971244  0
C  C257  1  0.38537869  0.27735189  0.67727313  1  -0.017593  0  -0.082871  -0.09904  0  3.97122  0
C  C258  1  0.88537973  0.77735517  0.82272646  1  -0.018387  0  -0.082841  -0.098969  0  3.971277  0
C  C259  1  0.61461884  0.72264523  0.32272642  1  -0.018121  0  -0.082786  -0.098881  0  3.971255  0
C  C260  1  0.04464857  0.23433753  0.14907563  1  -0.039728  0  -0.088039  -0.105701  0  4.009703  0
C  C261  1  0.45535121  0.26566098  0.64907525  1  -0.040239  0  -0.088025  -0.105584  0  4.009615  0
C  C262  1  0.95535106  0.76566291  0.85092483  1  -0.039714  0  -0.088032  -0.10566  0  4.009769  0
C  C263  1  0.54464662  0.73433680  0.35092430  1  -0.039764  0  -0.088059  -0.105742  0  4.009752  0
C  C264  1  0.06291338  0.28272229  0.09436780  1  -0.27723  0  -0.025968  -0.087835  0  4.010824  0
C  C265  1  0.43708666  0.21727690  0.59436743  1  -0.277203  0  -0.025949  -0.087846  0  4.010768  0
C  C266  1  0.93708656  0.71727749  0.90563221  1  -0.277241  0  -0.025996  -0.087845  0  4.010859  0
C  C267  1  0.56291237  0.78272222  0.40563167  1  -0.277198  0  -0.025949  -0.087805  0  4.010741  0
C  C268  1  0.14951018  0.32015793  0.06796964  1  0.033382  0  -0.082885  -0.095766  0  3.990232  0
C  C269  1  0.35048954  0.17984061  0.56796925  1  0.033299  0  -0.082837  -0.095604  0  3.990104  0
C  C270  1  0.85048944  0.67984251  0.93202991  1  0.033377  0  -0.082867  -0.095754  0  3.990233  0
C  C271  1  0.64950888  0.82015850  0.43202985  1  0.033276  0  -0.082886  -0.095661  0  3.990088  0
C  C272  1  0.21947357  0.31004257  0.09739791  1  -0.02281  0  -0.077562  -0.078798  0  3.926189  0
C  C273  1  0.28052588  0.18995530  0.59739748  1  -0.022699  0  -0.07763  -0.078997  0  3.926321  0
C  C274  1  0.78052606  0.68995788  0.90260163  1  -0.022884  0  -0.0776  -0.078835  0  3.926214  0
C  C275  1  0.71947315  0.81004382  0.40260161  1  -0.022803  0  -0.077585  -0.078958  0  3.926207  0
C  C276  1  0.98990650  0.62940275  0.17836753  1  1.561194  0  0.20869  0.573394  0  4.221398  0
C  C277  1  0.51009351  0.87059705  0.67836781  1  1.5612  0  0.208696  0.573388  0  4.221397  0
C  C278  1  0.01009253  0.37059636  0.82163248  1  1.561211  0  0.208705  0.573428  0  4.221361  0
C  C279  1  0.48990643  0.12940273  0.32163265  1  1.56119  0  0.208696  0.573398  0  4.221421  0
C  C280  1  0.98745753  0.54747102  0.14873774  1  -0.003528  0  -0.010547  -0.023182  0  3.936838  0
C  C281  1  0.51254246  0.95252879  0.64873754  1  -0.003513  0  -0.010561  -0.023245  0  3.936813  0
C  C282  1  0.01254210  0.45252942  0.85126181  1  -0.003247  0  -0.01057  -0.023252  0  3.936821  0
C  C283  1  0.48745687  0.04747099  0.35126247  1  -0.003253  0  -0.010549  -0.023144  0  3.936597  0
C  C284  1  0.92517490  0.46334831  0.16946143  1  -0.038466  0  -0.077886  -0.080963  0  3.923415  0
C  C285  1  0.57482473  0.03665231  0.66946142  1  -0.038488  0  -0.077883  -0.080936  0  3.923414  0
C  C286  1  0.07482472  0.53665213  0.83053812  1  -0.038749  0  -0.077895  -0.081027  0  3.923426  0
C  C287  1  0.42517399  0.96334746  0.33053859  1  -0.038727  0  -0.07781  -0.080981  0  3.923278  0
C  C288  1  0.92241589  0.38722566  0.14238763  1  -0.036095  0  -0.084832  -0.091897  0  3.979346  0
C  C289  1  0.57758404  0.11277432  0.64238759  1  -0.036093  0  -0.084853  -0.091955  0  3.979408  0
C  C290  1  0.07758435  0.61277479  0.85761192  1  -0.036097  0  -0.084873  -0.091944  0  3.97942  0
C  C291  1  0.42241590  0.88722546  0.35761241  1  -0.036115  0  -0.084888  -0.091947  0  3.979386  0
C  C292  1  0.98039990  0.39636941  0.09321138  1  -0.220221  0  -0.025721  -0.086047  0  4.005926  0
C  C293  1  0.51959999  0.10363059  0.59321177  1  -0.220014  0  -0.025706  -0.085969  0  4.005853  0
C  C294  1  0.01959973  0.60363104  0.90678817  1  -0.220004  0  -0.025706  -0.086007  0  4.00582  0
C  C295  1  0.48039965  0.89636853  0.40678823  1  -0.220034  0  -0.025716  -0.086019  0  4.005846  0
C  C296  1  0.04310488  0.47991039  0.07193641  1  -0.115394  0  -0.084878  -0.098771  0  3.991361  0
C  C297  1  0.45689513  0.02009013  0.57193567  1  -0.115593  0  -0.084911  -0.098869  0  3.991344  0
C  C298  1  0.95689597  0.52009006  0.92806405  1  -0.115589  0  -0.084864  -0.098767  0  3.991296  0
C  C299  1  0.54310420  0.97990964  0.42806388  1  -0.115564  0  -0.084863  -0.098744  0  3.991294  0
C  C300  1  0.04721749  0.55559640  0.10057816  1  0.05975  0  -0.075768  -0.075015  0  3.935139  0
C  C301  1  0.45278230  0.94440329  0.60057816  1  0.05976  0  -0.075708  -0.074856  0  3.934958  0
C  C302  1  0.95278245  0.44440338  0.89942185  1  0.059751  0  -0.075723  -0.074906  0  3.935003  0
C  C303  1  0.54721673  0.05559583  0.39942185  1  0.059748  0  -0.075788  -0.075066  0  3.935012  0
C  C304  1  0.83638409  0.27423102  0.34012516  1  1.575305  0  0.180367  0.535111  0  4.28007  0
C  C305  1  0.66361657  0.22576889  0.84012512  1  1.575316  0  0.18032  0.535006  0  4.280237  0
C  C306  1  0.16361584  0.72576876  0.65987576  1  1.575315  0  0.180365  0.535066  0  4.280111  0
C  C307  1  0.33638337  0.77423090  0.15987535  1  1.57527  0  0.180322  0.535032  0  4.280182  0
C  C308  1  0.90766947  0.25178748  0.36760530  1  -0.01559  0  -0.009645  -0.006869  0  3.943506  0
C  C309  1  0.59233030  0.24821174  0.86760567  1  -0.015613  0  -0.009636  -0.006802  0  3.943442  0
C  C310  1  0.09233047  0.74821230  0.63239425  1  -0.015606  0  -0.009643  -0.006854  0  3.943454  0
C  C311  1  0.40766903  0.75178803  0.13239480  1  -0.015623  0  -0.009642  -0.006799  0  3.943449  0
C  C312  1  0.88780653  0.19917631  0.42045111  1  -0.037669  0  -0.079201  -0.086412  0  3.949511  0
C  C313  1  0.61219297  0.30082356  0.92045147  1  -0.037622  0  -0.079204  -0.086444  0  3.949499  0
C  C314  1  0.11219280  0.80082347  0.57954844  1  -0.037722  0  -0.079177  -0.086388  0  3.949521  0
C  C315  1  0.38780727  0.69917689  0.07954900  1  -0.037712  0  -0.079217  -0.086496  0  3.949491  0
C  C316  1  0.95351915  0.17886882  0.44678196  1  -0.03045  0  -0.081524  -0.092115  0  3.984006  0
C  C317  1  0.54648007  0.32113037  0.94678228  1  -0.030451  0  -0.08154  -0.092129  0  3.984018  0
C  C318  1  0.04648079  0.82113097  0.55321759  1  -0.030477  0  -0.081523  -0.09211  0  3.98398  0
C  C319  1  0.45351926  0.67886941  0.05321727  1  -0.030465  0  -0.081524  -0.092113  0  3.983923  0
C  C320  1  0.03917057  0.21156349  0.41936484  1  -0.183888  0  -0.021601  -0.081416  0  3.998444  0
C  C321  1  0.46082877  0.28843491  0.91936491  1  -0.183886  0  -0.021607  -0.081365  0  3.998419  0
C  C322  1  0.96082998  0.78843630  0.58063471  1  -0.183887  0  -0.02162  -0.081399  0  3.998362  0
C  C323  1  0.53917056  0.71156487  0.08063464  1  -0.183877  0  -0.02164  -0.081452  0  3.998443  0
C  C324  1  0.06018493  0.26362669  0.36622541  1  -0.072707  0  -0.085095  -0.103066  0  4.002685  0
C  C325  1  0.43981406  0.23637238  0.86622595  1  -0.072733  0  -0.085078  -0.103013  0  4.002727  0
C  C326  1  0.93981439  0.73637309  0.63377368  1  -0.072722  0  -0.085054  -0.10302  0  4.002621  0
C  C327  1  0.56018557  0.76362806  0.13377360  1  -0.072718  0  -0.085055  -0.102938  0  4.002704  0
C  C328  1  0.99394741  0.28369626  0.34060021  1  -0.056943  0  -0.08251  -0.096783  0  3.969431  0
C  C329  1  0.50605173  0.21630297  0.84060010  1  -0.056904  0  -0.082508  -0.096862  0  3.969452  0
C  C330  1  0.00605191  0.71630352  0.65939934  1  -0.056899  0  -0.08251  -0.096803  0  3.969431  0
C  C331  1  0.49394760  0.78369681  0.15939991  1  -0.056958  0  -0.08252  -0.096896  0  3.969432  0
C  C332  1  0.14390123  0.89838651  0.30004529  1  1.559376  0  0.204153  0.568352  0  4.227115  0
C  C333  1  0.35609837  0.60161377  0.80004538  1  1.559372  0  0.204133  0.568269  0  4.227213  0
C  C334  1  0.85609901  0.10161394  0.69995472  1  1.559361  0  0.204157  0.568318  0  4.227103  0
C  C335  1  0.64390156  0.39838602  0.19995463  1  1.559384  0  0.20416  0.568362  0  4.227092  0
C  C336  1  0.13761364  0.96950786  0.33841949  1  -0.006157  0  -0.012044  -0.027644  0  3.948574  0
C  C337  1  0.36238599  0.53049239  0.83841962  1  -0.006157  0  -0.012066  -0.027687  0  3.948574  0
C  C338  1  0.86238660  0.03049258  0.66158097  1  -0.006156  0  -0.012067  -0.027654  0  3.948513  0
C  C339  1  0.63761364  0.46950805  0.16158039  1  -0.006162  0  -0.012067  -0.027709  0  3.948586  0
C  C340  1  0.06140200  0.95055255  0.37554869  1  -0.073035  0  -0.079497  -0.082282  0  3.929852  0
C  C341  1  0.43859766  0.54944636  0.87554930  1  -0.072988  0  -0.07943  -0.082149  0  3.929839  0
C  C342  1  0.93859823  0.04944789  0.62445132  1  -0.073032  0  -0.079485  -0.082244  0  3.929744  0
C  C343  1  0.56140166  0.45055341  0.12445116  1  -0.072997  0  -0.07946  -0.082169  0  3.929838  0
C  C344  1  0.05685480  0.01707602  0.41120495  1  -0.006015  0  -0.08516  -0.095141  0  3.977076  0
C  C345  1  0.44314483  0.48292304  0.91120539  1  -0.006114  0  -0.085243  -0.095291  0  3.977187  0
C  C346  1  0.94314543  0.98292443  0.58879506  1  -0.006035  0  -0.085164  -0.095176  0  3.977065  0
C  C347  1  0.55685541  0.51707740  0.08879507  1  -0.006107  0  -0.085237  -0.095276  0  3.977178  0
C  C348  1  0.12818921  0.10305081  0.40782994  1  -0.239894  0  -0.025209  -0.087487  0  4.011058  0
C  C349  1  0.37181042  0.39694826  0.90782993  1  -0.239978  0  -0.025166  -0.087409  0  4.011144  0
C  C350  1  0.87181163  0.89694965  0.59217006  1  -0.239879  0  -0.025182  -0.087456  0  4.011107  0
C  C351  1  0.62818891  0.60305152  0.09217008  1  -0.240005  0  -0.025164  -0.087412  0  4.011147  0
C  C352  1  0.20325618  0.12342999  0.36993120  1  -0.028678  0  -0.084532  -0.089655  0  3.976478  0
C  C353  1  0.29674312  0.37656975  0.86993116  1  -0.028648  0  -0.084497  -0.089605  0  3.976515  0
C  C354  1  0.79674406  0.87657046  0.63006880  1  -0.028657  0  -0.084511  -0.089632  0  3.97648  0
C  C355  1  0.70325560  0.62343002  0.13006885  1  -0.028663  0  -0.084517  -0.089649  0  3.976495  0
C  C356  1  0.20863277  0.05577651  0.33606617  1  -0.016773  0  -0.073799  -0.065546  0  3.911073  0
C  C357  1  0.29136650  0.44422325  0.83606609  1  -0.016858  0  -0.073795  -0.065542  0  3.911104  0
C  C358  1  0.79136747  0.94422394  0.66393430  1  -0.016775  0  -0.073782  -0.065519  0  3.911095  0
C  C359  1  0.70863282  0.55577653  0.16393391  1  -0.01677  0  -0.073799  -0.065532  0  3.911081  0
S  S360  1  0.12439433  0.18831674  0.45381212  1  2.450626  0  0.470257  0.953289  0  5.757257  0
S  S361  1  0.37560472  0.31168230  0.95381214  1  2.450809  0  0.470266  0.953241  0  5.757345  0
S  S362  1  0.87560591  0.81168371  0.54618743  1  2.450636  0  0.470253  0.953221  0  5.757189  0
S  S363  1  0.62439552  0.68831814  0.04618833  1  2.450806  0  0.470273  0.953262  0  5.757415  0
S  S364  1  0.97494885  0.29913294  0.05774954  1  2.468148  0  0.467495  0.951443  0  5.774462  0
S  S365  1  0.52505162  0.20086707  0.55774898  1  2.468102  0  0.467485  0.951354  0  5.77459  0
S  S366  1  0.02505168  0.70086817  0.94225047  1  2.46841  0  0.467479  0.951384  0  5.774544  0
S  S367  1  0.47494770  0.79913271  0.44225057  1  2.468113  0  0.467489  0.951376  0  5.774535  0
N  N368  1  0.42292091  0.31883954  0.30814585  1  -1.234044  0  -0.332066  -0.243264  0  3.521787  0
N  N369  1  0.07707986  0.18116089  0.80814624  1  -1.234039  0  -0.332045  -0.243233  0  3.521793  0
N  N370  1  0.57707994  0.68116091  0.69185416  1  -1.234049  0  -0.332057  -0.24323  0  3.521773  0
N  N371  1  0.92292098  0.81883956  0.19185468  1  -1.234045  0  -0.332111  -0.243361  0  3.521791  0
N  N372  1  0.31110365  0.59781831  0.63296233  1  -1.248688  0  -0.330063  -0.253945  0  3.496975  0
N  N373  1  0.18889768  0.90218204  0.13296225  1  -1.248769  0  -0.330092  -0.254015  0  3.496979  0
N  N374  1  0.68889720  0.40218214  0.36703768  1  -1.248728  0  -0.330071  -0.253998  0  3.497006  0
N  N375  1  0.81110317  0.09781841  0.86703775  1  -1.248711  0  -0.330063  -0.253966  0  3.496993  0
N  N376  1  0.42228707  0.14248004  0.14343057  1  -1.216577  0  -0.328409  -0.2429  0  3.497598  0
N  N377  1  0.07771268  0.35751979  0.64343044  1  -1.216566  0  -0.328457  -0.243037  0  3.497716  0
N  N378  1  0.57771194  0.85752040  0.85656943  1  -1.216512  0  -0.328408  -0.242903  0  3.497605  0
N  N379  1  0.92228757  0.64247933  0.35657003  1  -1.216554  0  -0.328403  -0.242952  0  3.49767  0
N  N380  1  0.32217809  0.80109142  0.78556276  1  -1.220684  0  -0.323661  -0.239571  0  3.488763  0
N  N381  1  0.17782241  0.69890953  0.28556230  1  -1.220702  0  -0.323663  -0.239567  0  3.488774  0
N  N382  1  0.67782366  0.19890970  0.21443771  1  -1.220697  0  -0.3237  -0.239568  0  3.488687  0
N  N383  1  0.82217692  0.30109025  0.71443771  1  -1.220687  0  -0.323613  -0.239451  0  3.488839  0
O  O384  1  0.25731215  0.18254418  0.21768849  1  -1.178008  0  -0.332137  -0.564198  0  2.16767  0
O  O385  1  0.24268828  0.31745430  0.71768890  1  -1.178213  0  -0.332111  -0.564166  0  2.167654  0
O  O386  1  0.74268839  0.81745693  0.78231106  1  -1.178069  0  -0.332143  -0.56422  0  2.167719  0
O  O387  1  0.75731076  0.68254349  0.28231157  1  -1.17802  0  -0.332112  -0.564143  0  2.167625  0
O  O388  1  0.35908641  0.30261054  0.16738447  1  -1.171037  0  -0.332308  -0.56443  0  2.220753  0
O  O389  1  0.14091277  0.19738795  0.66738489  1  -1.171051  0  -0.332368  -0.564475  0  2.220712  0
O  O390  1  0.64091352  0.69739056  0.83261508  1  -1.170996  0  -0.332314  -0.564441  0  2.22078  0
O  O391  1  0.85908535  0.80261049  0.33261512  1  -1.170989  0  -0.332307  -0.564434  0  2.220741  0
O  O392  1  0.92298676  0.61670369  0.21373135  1  -1.164175  0  -0.322854  -0.549892  0  2.301042  0
O  O393  1  0.57701357  0.88329676  0.71373120  1  -1.164189  0  -0.322863  -0.549881  0  2.301041  0
O  O394  1  0.07701318  0.38329609  0.78626820  1  -1.164176  0  -0.322875  -0.549891  0  2.300984  0
O  O395  1  0.42298606  0.11670368  0.28626881  1  -1.164159  0  -0.322874  -0.54992  0  2.30097  0
O  O396  1  0.05496323  0.70414481  0.16628543  1  -1.189039  0  -0.332314  -0.57415  0  2.331532  0
O  O397  1  0.44503721  0.79585485  0.66628549  1  -1.189041  0  -0.332318  -0.57417  0  2.331557  0
O  O398  1  0.94503671  0.29585497  0.83371458  1  -1.189059  0  -0.332319  -0.574175  0  2.331571  0
O  O399  1  0.55496243  0.20414426  0.33371452  1  -1.18903  0  -0.332312  -0.574141  0  2.331534  0
O  O400  1  0.85918169  0.33081190  0.29703151  1  -1.163753  0  -0.336902  -0.563015  0  2.143961  0
O  O401  1  0.64081864  0.16918868  0.79703148  1  -1.163748  0  -0.33686  -0.562973  0  2.14407  0
O  O402  1  0.14081764  0.66918787  0.70296850  1  -1.16378  0  -0.336917  -0.563019  0  2.143979  0
O  O403  1  0.35918099  0.83081177  0.20296853  1  -1.163744  0  -0.336873  -0.562991  0  2.144021  0
O  O404  1  0.75615767  0.23502180  0.36235999  1  -1.168617  0  -0.339554  -0.565844  0  2.192344  0
O  O405  1  0.74384239  0.26497809  0.86236042  1  -1.168636  0  -0.339563  -0.565817  0  2.192411  0
O  O406  1  0.24384225  0.76497931  0.63764094  1  -1.168609  0  -0.339557  -0.565821  0  2.192383  0
O  O407  1  0.25615784  0.73502236  0.13764004  1  -1.168585  0  -0.33954  -0.565798  0  2.192407  0
O  O408  1  0.07425723  0.82483929  0.29211347  1  -1.205901  0  -0.339856  -0.594819  0  2.372107  0
O  O409  1  0.42574268  0.67516032  0.79211448  1  -1.205897  0  -0.339827  -0.594784  0  2.37216  0
O  O410  1  0.92574271  0.17516049  0.70788562  1  -1.205914  0  -0.339837  -0.594797  0  2.37213  0
O  O411  1  0.57425696  0.32483880  0.20788553  1  -1.205937  0  -0.339849  -0.594843  0  2.372156  0
O  O412  1  0.22121806  0.91529271  0.27674959  1  -1.150534  0  -0.315848  -0.537482  0  2.256279  0
O  O413  1  0.27878244  0.58470824  0.77674966  1  -1.150536  0  -0.31585  -0.537428  0  2.256309  0
O  O414  1  0.77878308  0.08470841  0.72325041  1  -1.15052  0  -0.315848  -0.537452  0  2.256274  0
O  O415  1  0.72121719  0.41529220  0.22325035  1  -1.150529  0  -0.315851  -0.537459  0  2.256267  0
O  O416  1  0.88876870  0.22506772  0.07446333  1  -1.315461  0  -0.32048  -0.532383  0  2.177194  0
O  O417  1  0.61123087  0.27493294  0.57446416  1  -1.315416  0  -0.320456  -0.532339  0  2.177187  0
O  O418  1  0.11123093  0.77493272  0.92553622  1  -1.315484  0  -0.320445  -0.532319  0  2.177162  0
O  O419  1  0.38876785  0.72506683  0.42553676  1  -1.315443  0  -0.320487  -0.53238  0  2.177163  0
O  O420  1  0.99979268  0.31815879  0.99367017  1  -1.292906  0  -0.312001  -0.517284  0  2.169635  0
O  O421  1  0.50020777  0.18184171  0.49367010  1  -1.292928  0  -0.311984  -0.517237  0  2.169723  0
O  O422  1  0.00020755  0.68184166  0.00632984  1  -1.293154  0  -0.311996  -0.517284  0  2.169703  0
O  O423  1  0.49979247  0.81815874  0.50632991  1  -1.292894  0  -0.311967  -0.517218  0  2.169663  0
O  O424  1  0.09128915  0.15133777  0.51415687  1  -1.305064  0  -0.302516  -0.515859  0  2.217868  0
O  O425  1  0.40870961  0.34866144  0.01415692  1  -1.305025  0  -0.302516  -0.515841  0  2.217869  0
O  O426  1  0.90871078  0.84866333  0.48584268  1  -1.305086  0  -0.30254  -0.515836  0  2.21785  0
O  O427  1  0.59128971  0.65133834  0.98584263  1  -1.305031  0  -0.302532  -0.515853  0  2.217865  0
O  O428  1  0.21058210  0.26741407  0.44806893  1  -1.296209  0  -0.321708  -0.526592  0  2.151755  0
O  O429  1  0.28941756  0.23258498  0.94806848  1  -1.296255  0  -0.321724  -0.52661  0  2.151852  0
O  O430  1  0.78941875  0.73258638  0.55193062  1  -1.296188  0  -0.321714  -0.526612  0  2.151733  0
O  O431  1  0.71058177  0.76741480  0.05193153  1  -1.296256  0  -0.321689  -0.526567  0  2.151898  0
