# generated using pymatgen
data_Cd2B2H48C55N6(O2F)4
_symmetry_space_group_name_H-M   'P 1'
_cell_length_a   13.86644641
_cell_length_b   19.72747419
_cell_length_c   21.26693838
_cell_angle_alpha   90.00017728
_cell_angle_beta   90.00027747
_cell_angle_gamma   97.43776157
_symmetry_Int_Tables_number   1
_chemical_formula_structural   Cd2B2H48C55N6(O2F)4
_chemical_formula_sum   'Cd8 B8 H192 C220 N24 O32 F16'
_cell_volume   5768.62154811
_cell_formula_units_Z   4
loop_
 _symmetry_equiv_pos_site_id
 _symmetry_equiv_pos_as_xyz
  1  'x, y, z'
loop_
 _atom_site_type_symbol
 _atom_site_label
 _atom_site_symmetry_multiplicity
 _atom_site_fract_x
 _atom_site_fract_y
 _atom_site_fract_z
 _atom_site_occupancy
 _atom_site_pbe_bader_charge
 _atom_site_pbe_bader_spin_density
 _atom_site_pbe_cm5_charge
 _atom_site_pbe_ddec_charge
 _atom_site_pbe_ddec_spin_density
 _atom_site_pbe_ddec_sum_bond_order
 _atom_site_pbe_magmom
Cd  Cd0  1  0.49877094  0.40013454  0.09451522  1  1.284749  0  0.775306  0.930414  0  2.088668  0
Cd  Cd1  1  0.30140509  0.51253586  0.97809499  1  1.316782  0  0.784096  0.955041  0  2.103409  0
Cd  Cd2  1  0.00125630  0.09987644  0.59452531  1  1.284507  0  0.775334  0.930457  0  2.088614  0
Cd  Cd3  1  0.19858674  0.98746474  0.47808184  1  1.316851  0  0.784113  0.955075  0  2.103579  0
Cd  Cd4  1  0.50124396  0.59986647  0.90548649  1  1.284828  0  0.775294  0.930418  0  2.088759  0
Cd  Cd5  1  0.69860066  0.48747070  0.02191565  1  1.316979  0  0.784154  0.95516  0  2.103469  0
Cd  Cd6  1  0.99876861  0.90014098  0.40548486  1  1.284843  0  0.775303  0.930389  0  2.088663  0
Cd  Cd7  1  0.80140276  0.01252689  0.52192974  1  1.316726  0  0.784133  0.95521  0  2.103409  0
B  B8  1  0.16371116  0.15773430  0.14369019  1  2.315996  0  0.072301  0.793395  0  3.32746  0
B  B9  1  0.63285235  0.14713884  0.84795121  1  2.312572  0  0.070426  0.799624  0  3.32124  0
B  B10  1  0.33628279  0.34226540  0.64368419  1  2.316005  0  0.072292  0.793296  0  3.327265  0
B  B11  1  0.86715622  0.35286214  0.34795372  1  2.311878  0  0.070442  0.799665  0  3.320998  0
B  B12  1  0.83628653  0.84226301  0.85631011  1  2.31604  0  0.072292  0.793361  0  3.32748  0
B  B13  1  0.36715074  0.85286055  0.15205144  1  2.312121  0  0.070427  0.799642  0  3.321424  0
B  B14  1  0.66371117  0.65773545  0.35631188  1  2.316089  0  0.072394  0.793337  0  3.327455  0
B  B15  1  0.13284829  0.64714134  0.65204752  1  2.31225  0  0.070415  0.799705  0  3.321043  0
H  H16  1  0.54766497  0.32572413  0.68459260  1  0.097801  0  0.101632  0.107035  0  1.014798  0
H  H17  1  0.58469329  0.42918020  0.61937515  1  0.108901  0  0.102547  0.105712  0  1.006874  0
H  H18  1  0.74566104  0.50162708  0.62889733  1  0.07461  0  0.093975  0.087136  0  1.063434  0
H  H19  1  0.86874410  0.46975509  0.70460655  1  0.072477  0  0.103175  0.101327  0  0.993222  0
H  H20  1  0.82978540  0.36482460  0.77040001  1  0.036613  0  0.093727  0.085088  0  1.068343  0
H  H21  1  0.59664823  0.97246831  0.45319265  1  0.096392  0  0.115381  0.090376  0  1.010044  0
H  H22  1  0.45538967  0.02487969  0.41089865  1  0.155894  0  0.111006  0.133748  0  1.01243  0
H  H23  1  0.62404753  0.22264254  0.44053253  1  0.036774  0  0.110179  0.120738  0  0.98778  0
H  H24  1  0.75640028  0.16156541  0.48324402  1  0.100807  0  0.114771  0.082679  0  1.02094  0
H  H25  1  0.38644586  0.15833204  0.43229485  1  0.09446  0  0.103857  0.122371  0  1.002475  0
H  H26  1  0.46859441  0.21816711  0.39056410  1  0.025273  0  0.089153  0.082498  0  1.006507  0
H  H27  1  0.34289526  0.15720975  0.31903965  1  0.040906  0  0.087485  0.082015  0  1.034653  0
H  H28  1  0.37040289  0.07771402  0.34516322  1  0.103754  0  0.096525  0.107085  0  1.025107  0
H  H29  1  0.46057731  0.08410615  0.25334245  1  0.043701  0  0.096057  0.094331  0  1.014743  0
H  H30  1  0.54943288  0.12417335  0.30484278  1  0.040859  0  0.090708  0.086772  0  1.039512  0
H  H31  1  0.58176731  0.26034453  0.30121768  1  0.079939  0  0.10887  0.11843  0  0.99226  0
H  H32  1  0.57545448  0.36093030  0.23042295  1  0.124633  0  0.116802  0.088741  0  1.010643  0
H  H33  1  0.40610222  0.24439757  0.10029188  1  0.116793  0  0.119701  0.096658  0  1.010503  0
H  H34  1  0.39640086  0.14038112  0.16745842  1  0.096558  0  0.110915  0.131916  0  0.994915  0
H  H35  1  0.13641531  0.20407973  0.02043317  1  0.091359  0  0.10173  0.151801  0  1.002883  0
H  H36  1  0.26418528  0.21323573  0.01184400  1  0.040265  0  0.102616  0.152014  0  0.990116  0
H  H37  1  0.20010403  0.28099461  0.98785613  1  0.058256  0  0.097177  0.144832  0  1.040178  0
H  H38  1  0.36021222  0.40948795  0.22408843  1  0.076931  0  0.095841  0.14268  0  1.003728  0
H  H39  1  0.23828520  0.41624845  0.24393454  1  0.064211  0  0.091566  0.132574  0  1.02378  0
H  H40  1  0.29020980  0.45427580  0.17347649  1  0.066592  0  0.093838  0.141544  0  1.016932  0
H  H41  1  0.08317929  0.32075139  0.32228676  1  0.095882  0  0.104247  0.108783  0  1.012978  0
H  H42  1  0.12294774  0.39414256  0.41493026  1  0.058596  0  0.106884  0.107554  0  0.999936  0
H  H43  1  0.29362535  0.41437886  0.45548647  1  0.096912  0  0.110795  0.108611  0  0.977458  0
H  H44  1  0.42509298  0.36541610  0.39782246  1  0.075202  0  0.10552  0.102375  0  0.984244  0
H  H45  1  0.38483244  0.29283374  0.30358305  1  0.061001  0  0.094769  0.090034  0  1.058937  0
H  H46  1  0.24062584  0.20749766  0.39015699  1  0.048677  0  0.089642  0.123172  0  1.048711  0
H  H47  1  0.16840064  0.13273501  0.42020575  1  0.096292  0  0.094377  0.149349  0  1.03051  0
H  H48  1  0.11523304  0.20701160  0.40137749  1  0.068708  0  0.092401  0.135437  0  1.029234  0
H  H49  1  0.09947823  0.02812600  0.14768436  1  0.093864  0  0.101658  0.146799  0  1.009847  0
H  H50  1  0.00277776  0.00328517  0.20209351  1  0.084455  0  0.102  0.151516  0  0.996137  0
H  H51  1  0.11494014  0.97308236  0.21307175  1  0.071134  0  0.099974  0.150003  0  1.003068  0
H  H52  1  0.47164905  0.17866034  0.98249928  1  0.035262  0  0.101618  0.148193  0  0.998913  0
H  H53  1  0.58179022  0.20683572  0.02023969  1  0.080272  0  0.102936  0.155823  0  0.983798  0
H  H54  1  0.57624424  0.13741329  0.96528675  1  0.081991  0  0.103683  0.151768  0  1.003071  0
H  H55  1  0.70113418  0.42848411  0.84666522  1  0.049082  0  0.0904  0.128699  0  1.013614  0
H  H56  1  0.59057949  0.43960688  0.88472930  1  0.097846  0  0.095079  0.151395  0  1.035814  0
H  H57  1  0.59246613  0.41797308  0.80301371  1  0.056125  0  0.091204  0.133956  0  1.023539  0
H  H58  1  0.71176434  0.02501410  0.81194221  1  0.082345  0  0.105559  0.157332  0  0.988805  0
H  H59  1  0.70615970  0.99462314  0.73207127  1  0.05206  0  0.098289  0.149546  0  1.020221  0
H  H60  1  0.59898508  0.00983951  0.77333655  1  0.057481  0  0.101625  0.14723  0  0.999342  0
H  H61  1  0.70499722  0.27855249  0.61891008  1  0.061568  0  0.091759  0.133925  0  1.018183  0
H  H62  1  0.77718247  0.21563288  0.59063006  1  0.078159  0  0.091095  0.140787  0  1.031783  0
H  H63  1  0.82450074  0.27788435  0.64652544  1  0.040641  0  0.091497  0.131456  0  1.011735  0
H  H64  1  0.95233041  0.17426997  0.18459111  1  0.097908  0  0.101675  0.107109  0  1.014855  0
H  H65  1  0.91529214  0.07080489  0.11938406  1  0.108476  0  0.10255  0.105679  0  1.00712  0
H  H66  1  0.75432306  0.99836067  0.12891636  1  0.075273  0  0.093978  0.087172  0  1.063561  0
H  H67  1  0.63124690  0.03024213  0.20462854  1  0.072479  0  0.103181  0.101349  0  0.99318  0
H  H68  1  0.67022326  0.13517606  0.27041396  1  0.036552  0  0.093762  0.085102  0  1.068285  0
H  H69  1  0.90334357  0.52752948  0.95318878  1  0.096362  0  0.115351  0.090337  0  1.010105  0
H  H70  1  0.04460438  0.47511751  0.91089492  1  0.155738  0  0.110993  0.133669  0  1.012341  0
H  H71  1  0.87595522  0.27735417  0.94053305  1  0.036699  0  0.110159  0.120777  0  0.987797  0
H  H72  1  0.74360021  0.33842891  0.98324664  1  0.100739  0  0.114743  0.082651  0  1.021061  0
H  H73  1  0.11354865  0.34166270  0.93229378  1  0.094567  0  0.103891  0.122423  0  1.002374  0
H  H74  1  0.03139956  0.28183052  0.89056306  1  0.025177  0  0.089085  0.082371  0  1.00657  0
H  H75  1  0.15710319  0.34278763  0.81903824  1  0.040839  0  0.087491  0.082021  0  1.034629  0
H  H76  1  0.12959092  0.42228037  0.84516384  1  0.10395  0  0.096526  0.107049  0  1.025245  0
H  H77  1  0.03942015  0.41589249  0.75334135  1  0.043708  0  0.096063  0.094317  0  1.014757  0
H  H78  1  0.95056551  0.37582483  0.80484147  1  0.040657  0  0.090711  0.086719  0  1.039575  0
H  H79  1  0.91823992  0.23965064  0.80121823  1  0.079854  0  0.108856  0.118432  0  0.992283  0
H  H80  1  0.92455515  0.13906511  0.73042276  1  0.12463  0  0.116818  0.088806  0  1.01061  0
H  H81  1  0.09389066  0.25560196  0.60028721  1  0.116775  0  0.11974  0.096759  0  1.010451  0
H  H82  1  0.10359166  0.35961765  0.66745501  1  0.096017  0  0.110975  0.131989  0  0.994902  0
H  H83  1  0.36357929  0.29591642  0.52042994  1  0.091531  0  0.10172  0.151747  0  1.002955  0
H  H84  1  0.23580835  0.28675936  0.51184456  1  0.04005  0  0.102614  0.152059  0  0.990049  0
H  H85  1  0.29988839  0.21900237  0.48785428  1  0.058747  0  0.097153  0.144791  0  1.040276  0
H  H86  1  0.13978836  0.09050906  0.72408907  1  0.07693  0  0.095853  0.142695  0  1.003689  0
H  H87  1  0.26171282  0.08374965  0.74393508  1  0.064196  0  0.091561  0.132534  0  1.023816  0
H  H88  1  0.20978982  0.04572202  0.67347675  1  0.06656  0  0.093819  0.141513  0  1.016919  0
H  H89  1  0.41682583  0.17925115  0.82228807  1  0.096206  0  0.104259  0.108807  0  1.013079  0
H  H90  1  0.37705679  0.10585677  0.91492935  1  0.058534  0  0.106887  0.107586  0  1.0  0
H  H91  1  0.20637610  0.08561755  0.95548025  1  0.09701  0  0.110758  0.10854  0  0.977504  0
H  H92  1  0.07490966  0.13457702  0.89781220  1  0.075669  0  0.105443  0.102353  0  0.984313  0
H  H93  1  0.11517311  0.20716362  0.80357689  1  0.061179  0  0.094796  0.090016  0  1.058898  0
H  H94  1  0.25938015  0.29251129  0.89015576  1  0.048937  0  0.089715  0.123318  0  1.048658  0
H  H95  1  0.33161281  0.36727411  0.92019698  1  0.096217  0  0.094409  0.14939  0  1.030537  0
H  H96  1  0.38477703  0.29299538  0.90137150  1  0.068824  0  0.092367  0.135473  0  1.029153  0
H  H97  1  0.40051821  0.47187119  0.64767518  1  0.093795  0  0.101631  0.146789  0  1.009761  0
H  H98  1  0.49721810  0.49671478  0.70208329  1  0.084388  0  0.101994  0.151533  0  0.996026  0
H  H99  1  0.38505660  0.52691619  0.71306076  1  0.071041  0  0.099971  0.149994  0  1.003083  0
H  H100  1  0.02836331  0.32134391  0.48250249  1  0.035298  0  0.101644  0.148259  0  0.998777  0
H  H101  1  0.91821928  0.29316804  0.52024415  1  0.080209  0  0.102927  0.155796  0  0.983747  0
H  H102  1  0.92376311  0.36258815  0.46528995  1  0.082391  0  0.103714  0.15181  0  1.003122  0
H  H103  1  0.79886842  0.07151580  0.34666953  1  0.049065  0  0.090386  0.12866  0  1.013657  0
H  H104  1  0.90942449  0.06039524  0.38473440  1  0.097721  0  0.095108  0.151449  0  1.035827  0
H  H105  1  0.90753863  0.08202871  0.30301839  1  0.056289  0  0.091218  0.133962  0  1.02347  0
H  H106  1  0.78823746  0.47498260  0.31194436  1  0.082421  0  0.105564  0.157389  0  0.988726  0
H  H107  1  0.79384586  0.50537182  0.23207443  1  0.052223  0  0.09832  0.149618  0  1.020176  0
H  H108  1  0.90101973  0.49015961  0.27333910  1  0.057785  0  0.101663  0.147287  0  0.999225  0
H  H109  1  0.79501655  0.22144659  0.11890681  1  0.061525  0  0.091816  0.133992  0  1.01811  0
H  H110  1  0.72281411  0.28436392  0.09063286  1  0.078263  0  0.091096  0.140756  0  1.031802  0
H  H111  1  0.67551347  0.22210769  0.14652743  1  0.040687  0  0.091477  0.131408  0  1.01183  0
H  H112  1  0.45233353  0.67427369  0.31540535  1  0.097878  0  0.101642  0.107057  0  1.014853  0
H  H113  1  0.41530486  0.57081558  0.38062045  1  0.108977  0  0.102514  0.10571  0  1.006889  0
H  H114  1  0.25433583  0.49836971  0.37109685  1  0.074513  0  0.093976  0.087166  0  1.063462  0
H  H115  1  0.13124977  0.53024526  0.29538905  1  0.072329  0  0.103164  0.101328  0  0.993097  0
H  H116  1  0.17021206  0.63517985  0.22960029  1  0.036563  0  0.093717  0.08505  0  1.068407  0
H  H117  1  0.40335298  0.02752852  0.54680624  1  0.0963  0  0.115428  0.090426  0  1.010085  0
H  H118  1  0.54461101  0.97511407  0.58909695  1  0.156025  0  0.111012  0.13373  0  1.012369  0
H  H119  1  0.37594981  0.77735272  0.55946777  1  0.036591  0  0.110175  0.120774  0  0.987872  0
H  H120  1  0.24359841  0.83842936  0.51675722  1  0.100714  0  0.114732  0.082638  0  1.020983  0
H  H121  1  0.61355303  0.84165966  0.56770685  1  0.094514  0  0.103907  0.122419  0  1.002362  0
H  H122  1  0.53140247  0.78182968  0.60943902  1  0.025135  0  0.089165  0.082495  0  1.006594  0
H  H123  1  0.65710225  0.84278654  0.68096065  1  0.040875  0  0.087477  0.081976  0  1.034673  0
H  H124  1  0.62959445  0.92228125  0.65483425  1  0.103896  0  0.09652  0.107027  0  1.025219  0
H  H125  1  0.53942107  0.91589525  0.74665456  1  0.043717  0  0.096062  0.094299  0  1.014778  0
H  H126  1  0.45056599  0.87582244  0.69515423  1  0.040844  0  0.090722  0.086751  0  1.039475  0
H  H127  1  0.41824192  0.73965286  0.69878121  1  0.079877  0  0.108862  0.118481  0  0.992254  0
H  H128  1  0.42456085  0.63907327  0.76957923  1  0.124994  0  0.11684  0.088763  0  1.01069  0
H  H129  1  0.59388952  0.75561144  0.89971641  1  0.116703  0  0.119717  0.09676  0  1.010479  0
H  H130  1  0.60358712  0.85962276  0.83254611  1  0.095839  0  0.110926  0.131838  0  0.995011  0
H  H131  1  0.86357914  0.79591551  0.97956713  1  0.091563  0  0.101752  0.151796  0  1.002826  0
H  H132  1  0.73580755  0.78675848  0.98815489  1  0.040091  0  0.102612  0.152072  0  0.990052  0
H  H133  1  0.79988600  0.71900009  0.01214088  1  0.058798  0  0.097191  0.144872  0  1.040164  0
H  H134  1  0.63978882  0.59050785  0.77590858  1  0.07702  0  0.095864  0.142693  0  1.003723  0
H  H135  1  0.76171725  0.58375145  0.75606341  1  0.064101  0  0.091557  0.132541  0  1.023724  0
H  H136  1  0.70979357  0.54572104  0.82652099  1  0.066326  0  0.093832  0.141538  0  1.016852  0
H  H137  1  0.91682368  0.67925158  0.67771307  1  0.096251  0  0.104262  0.108792  0  1.013081  0
H  H138  1  0.87705771  0.60585378  0.58507145  1  0.058571  0  0.106913  0.107615  0  0.999928  0
H  H139  1  0.70637767  0.58561594  0.54451571  1  0.096827  0  0.110834  0.108584  0  0.977436  0
H  H140  1  0.57491094  0.63457972  0.60217878  1  0.075298  0  0.105463  0.102346  0  0.984231  0
H  H141  1  0.61516839  0.70716512  0.69641489  1  0.061078  0  0.094784  0.090026  0  1.058901  0
H  H142  1  0.75937728  0.79251041  0.60984190  1  0.048865  0  0.089677  0.123246  0  1.048678  0
H  H143  1  0.83160852  0.86727463  0.57980066  1  0.096293  0  0.094399  0.149399  0  1.030558  0
H  H144  1  0.88477135  0.79299546  0.59862563  1  0.068803  0  0.092409  0.13549  0  1.029144  0
H  H145  1  0.90052815  0.97186729  0.85232628  1  0.093798  0  0.101653  0.146777  0  1.009735  0
H  H146  1  0.99722480  0.99671115  0.79791478  1  0.084411  0  0.101967  0.151524  0  0.995973  0
H  H147  1  0.88506433  0.02691244  0.78694125  1  0.070951  0  0.099965  0.150025  0  1.003087  0
H  H148  1  0.52835085  0.82134158  0.01750102  1  0.035293  0  0.101597  0.148182  0  0.998922  0
H  H149  1  0.41820960  0.79316569  0.97976108  1  0.0803  0  0.102933  0.155846  0  0.983802  0
H  H150  1  0.42375495  0.86258862  0.03471261  1  0.081935  0  0.103721  0.151788  0  1.003001  0
H  H151  1  0.29886590  0.57151883  0.15333508  1  0.049092  0  0.090387  0.128697  0  1.013641  0
H  H152  1  0.40942060  0.56039607  0.11527005  1  0.097762  0  0.095111  0.15145  0  1.035748  0
H  H153  1  0.40753514  0.58202834  0.19698612  1  0.056125  0  0.091212  0.133988  0  1.023514  0
H  H154  1  0.28823981  0.97498734  0.18806091  1  0.082505  0  0.105533  0.157292  0  0.988695  0
H  H155  1  0.29384293  0.00537778  0.26793420  1  0.05197  0  0.098245  0.149535  0  1.020144  0
H  H156  1  0.40101650  0.99015527  0.22666986  1  0.057602  0  0.101677  0.147262  0  0.999252  0
H  H157  1  0.29500442  0.72144689  0.38108928  1  0.061637  0  0.09177  0.133946  0  1.018238  0
H  H158  1  0.22281603  0.78436495  0.40937165  1  0.07814  0  0.09115  0.140823  0  1.031669  0
H  H159  1  0.17549966  0.72211196  0.35347392  1  0.04059  0  0.091481  0.13141  0  1.011816  0
H  H160  1  0.04767014  0.82573144  0.81540542  1  0.097941  0  0.101675  0.107109  0  1.014903  0
H  H161  1  0.08470607  0.92919549  0.88061436  1  0.108452  0  0.102541  0.105679  0  1.007165  0
H  H162  1  0.24567107  0.00164121  0.87108253  1  0.075198  0  0.093967  0.087126  0  1.063541  0
H  H163  1  0.36875402  0.96975725  0.79537505  1  0.072492  0  0.103185  0.101329  0  0.993187  0
H  H164  1  0.32977948  0.86482128  0.72958916  1  0.036512  0  0.093754  0.085108  0  1.068304  0
H  H165  1  0.09664634  0.47246880  0.04680353  1  0.096382  0  0.1154  0.090371  0  1.010081  0
H  H166  1  0.95538808  0.52487874  0.08909880  1  0.155894  0  0.111008  0.133747  0  1.012407  0
H  H167  1  0.12404492  0.72264061  0.05946819  1  0.036801  0  0.11016  0.120776  0  0.987809  0
H  H168  1  0.25639739  0.66156789  0.01675413  1  0.100835  0  0.114773  0.082665  0  1.020952  0
H  H169  1  0.88644340  0.65832691  0.06770464  1  0.094833  0  0.103822  0.122332  0  1.002532  0
H  H170  1  0.96859119  0.71816419  0.10943348  1  0.025357  0  0.089062  0.082386  0  1.006451  0
H  H171  1  0.84289432  0.65720866  0.18095829  1  0.040976  0  0.08752  0.082056  0  1.034625  0
H  H172  1  0.87040751  0.57771286  0.15483693  1  0.103769  0  0.096522  0.107049  0  1.025144  0
H  H173  1  0.96057898  0.58410483  0.24665613  1  0.04371  0  0.096068  0.094297  0  1.014832  0
H  H174  1  0.04943532  0.62417403  0.19515507  1  0.040714  0  0.090727  0.086776  0  1.039455  0
H  H175  1  0.08175956  0.76034873  0.19878066  1  0.079894  0  0.10887  0.118474  0  0.992232  0
H  H176  1  0.07543770  0.86092501  0.26957942  1  0.124879  0  0.11678  0.088654  0  1.010872  0
H  H177  1  0.90610696  0.74439076  0.39971403  1  0.11669  0  0.119726  0.096784  0  1.010475  0
H  H178  1  0.89640729  0.64037865  0.33254388  1  0.09644  0  0.110914  0.131866  0  0.994999  0
H  H179  1  0.63641657  0.70408292  0.47956660  1  0.091593  0  0.101701  0.151747  0  1.002978  0
H  H180  1  0.76418563  0.71323741  0.48815714  1  0.040263  0  0.102608  0.152028  0  0.990086  0
H  H181  1  0.70010684  0.78099747  0.51214414  1  0.058689  0  0.097161  0.144806  0  1.040274  0
H  H182  1  0.86021019  0.90949336  0.27591311  1  0.077018  0  0.09584  0.142701  0  1.003658  0
H  H183  1  0.73828446  0.91625379  0.25606710  1  0.0637  0  0.091542  0.132509  0  1.023805  0
H  H184  1  0.79020559  0.95427885  0.32652496  1  0.066649  0  0.093803  0.14148  0  1.016951  0
H  H185  1  0.58317307  0.82075331  0.17771223  1  0.096194  0  0.104253  0.108819  0  1.013134  0
H  H186  1  0.62294427  0.89414771  0.08506813  1  0.058535  0  0.106979  0.107681  0  0.999834  0
H  H187  1  0.79362750  0.91438490  0.04451816  1  0.096914  0  0.110819  0.108565  0  0.977448  0
H  H188  1  0.92508964  0.86542132  0.10218340  1  0.075336  0  0.105465  0.102381  0  0.984312  0
H  H189  1  0.88482626  0.79283932  0.19642058  1  0.061261  0  0.094778  0.090039  0  1.058836  0
H  H190  1  0.74062476  0.70749884  0.10984218  1  0.048845  0  0.089673  0.123228  0  1.048643  0
H  H191  1  0.66839816  0.63273351  0.07979767  1  0.09636  0  0.094381  0.149367  0  1.030559  0
H  H192  1  0.61523016  0.70701119  0.09862598  1  0.068848  0  0.092403  0.135468  0  1.029199  0
H  H193  1  0.59947809  0.52813071  0.35231901  1  0.094  0  0.101678  0.14686  0  1.009761  0
H  H194  1  0.50278207  0.50328867  0.29790948  1  0.084531  0  0.101981  0.1515  0  0.996109  0
H  H195  1  0.61494195  0.47308623  0.28693201  1  0.071152  0  0.099968  0.150014  0  1.003136  0
H  H196  1  0.97163992  0.67866059  0.51749969  1  0.035352  0  0.101616  0.148226  0  0.998778  0
H  H197  1  0.08178311  0.70684002  0.47976085  1  0.080284  0  0.102939  0.155813  0  0.983776  0
H  H198  1  0.07623932  0.63741584  0.53471176  1  0.08229  0  0.103729  0.151794  0  1.003091  0
H  H199  1  0.20113611  0.92848361  0.65333406  1  0.049067  0  0.090384  0.128679  0  1.013603  0
H  H200  1  0.09057903  0.93960671  0.61526731  1  0.097831  0  0.095086  0.151409  0  1.035726  0
H  H201  1  0.09246497  0.91797375  0.69698614  1  0.056138  0  0.091227  0.133991  0  1.023479  0
H  H202  1  0.21175283  0.52501363  0.68805641  1  0.082401  0  0.105519  0.157291  0  0.988636  0
H  H203  1  0.20615027  0.49462905  0.76792775  1  0.052252  0  0.098274  0.149516  0  1.020096  0
H  H204  1  0.09897683  0.50984382  0.72666590  1  0.057743  0  0.101634  0.147203  0  0.999338  0
H  H205  1  0.20499743  0.77855748  0.88108737  1  0.061595  0  0.091783  0.133961  0  1.018274  0
H  H206  1  0.27718473  0.71563595  0.90936744  1  0.078269  0  0.091082  0.140763  0  1.031834  0
H  H207  1  0.32450226  0.77788975  0.85347193  1  0.040496  0  0.091474  0.131409  0  1.011727  0
C  C208  1  0.68740558  0.33865037  0.73148347  1  0.001697  0  -0.004  0.078482  0  4.00053  0
C  C209  1  0.61794312  0.35709325  0.68922812  1  -0.052689  0  -0.085914  -0.12876  0  3.959027  0
C  C210  1  0.63921711  0.41565946  0.65234564  1  -0.049652  0  -0.088783  -0.078573  0  4.009213  0
C  C211  1  0.72942200  0.45592249  0.65753982  1  -0.095619  0  -0.092849  -0.084423  0  4.010567  0
C  C212  1  0.79847920  0.43808636  0.70015441  1  0.022108  0  -0.089422  -0.076183  0  4.01292  0
C  C213  1  0.77710900  0.37959911  0.73693062  1  -0.115947  0  -0.091065  -0.133465  0  3.989669  0
C  C214  1  0.59922822  0.02779671  0.44927018  1  0.39583  0  0.042951  0.088754  0  3.974816  0
C  C215  1  0.52103421  0.05750465  0.42591977  1  0.030689  0  -0.082587  -0.180619  0  3.905713  0
C  C216  1  0.52736570  0.12903653  0.42218780  1  -0.063248  0  0.016316  0.175893  0  3.936177  0
C  C217  1  0.61412611  0.16688572  0.44274102  1  0.006724  0  -0.087373  -0.197176  0  3.945991  0
C  C218  1  0.68870469  0.13333056  0.46629079  1  0.466198  0  0.045635  0.107248  0  3.964499  0
C  C219  1  0.44458441  0.16314877  0.39663679  1  -0.040249  0  -0.160062  -0.212895  0  3.933738  0
C  C220  1  0.40273012  0.13039318  0.33540172  1  -0.065317  0  -0.164163  -0.135933  0  3.870573  0
C  C221  1  0.47925485  0.12952180  0.28278637  1  -0.021763  0  -0.160532  -0.206096  0  3.936201  0
C  C222  1  0.48748968  0.19124890  0.24107478  1  -0.005439  0  0.013302  0.166719  0  3.953193  0
C  C223  1  0.53965326  0.25443170  0.25778775  1  -0.092253  0  -0.087568  -0.197425  0  3.948725  0
C  C224  1  0.53762545  0.31067915  0.21844225  1  0.459293  0  0.048024  0.101233  0  3.959589  0
C  C225  1  0.44160748  0.24583745  0.14600515  1  0.436997  0  0.048347  0.100493  0  3.966891  0
C  C226  1  0.43826120  0.18787826  0.18337575  1  0.028071  0  -0.084261  -0.189348  0  3.926942  0
C  C227  1  0.27481958  0.39688905  0.05664668  1  1.5295  0  0.20518  0.603242  0  4.189393  0
C  C228  1  0.25081547  0.34058114  0.10222858  1  -0.025454  0  -0.039434  -0.253274  0  3.966996  0
C  C229  1  0.21486280  0.27197208  0.08648709  1  0.461352  0  0.144357  0.321799  0  3.882208  0
C  C230  1  0.20248241  0.24099694  0.02310085  1  -0.009514  0  -0.233308  -0.458673  0  3.943004  0
C  C231  1  0.25526226  0.34588491  0.16819343  1  0.051978  0  0.003162  0.111791  0  3.929345  0
C  C232  1  0.22108910  0.27905816  0.19165411  1  0.31864  0  0.08376  0.060446  0  4.009547  0
C  C233  1  0.28686783  0.40967715  0.20437461  1  -0.089744  0  -0.243251  -0.415612  0  3.969589  0
C  C234  1  0.20725802  0.25410534  0.25320781  1  0.019181  0  0.037295  0.015358  0  3.93892  0
C  C235  1  0.23135300  0.30087211  0.30747101  1  -0.025563  0  -0.001238  0.079436  0  3.989602  0
C  C236  1  0.15808799  0.33013108  0.33882712  1  -0.003172  0  -0.082522  -0.12309  0  3.943854  0
C  C237  1  0.18077424  0.37131911  0.39150476  1  -0.001727  0  -0.084366  -0.078813  0  3.998929  0
C  C238  1  0.27644287  0.38333347  0.41352126  1  -0.127846  0  -0.083869  -0.084846  0  4.017447  0
C  C239  1  0.35001872  0.35555479  0.38144808  1  -0.064033  0  -0.087909  -0.078594  0  4.014297  0
C  C240  1  0.32764202  0.31476209  0.32851183  1  -0.056627  0  -0.089419  -0.13167  0  3.968218  0
C  C241  1  0.17120555  0.18526076  0.26444763  1  0.347019  0  0.083084  0.048877  0  4.001252  0
C  C242  1  0.15264542  0.14830825  0.32202424  1  0.040701  0  0.01355  0.137112  0  3.899838  0
C  C243  1  0.17051300  0.17500544  0.38693351  1  -0.08802  0  -0.249111  -0.420355  0  3.9569  0
C  C244  1  0.11618102  0.08080808  0.30496239  1  0.016842  0  -0.034038  -0.241024  0  3.915094  0
C  C245  1  0.11410489  0.07739642  0.23781309  1  0.443076  0  0.150483  0.323817  0  3.859261  0
C  C246  1  0.08174644  0.01756186  0.19711174  1  -0.070016  0  -0.231955  -0.456687  0  3.953186  0
C  C247  1  0.08221791  0.02270231  0.34659354  1  1.52904  0  0.201745  0.603801  0  4.197771  0
C  C248  1  0.53740760  0.34547170  0.97923070  1  1.533241  0  0.2012  0.609207  0  4.184246  0
C  C249  1  0.57293836  0.30881460  0.92519236  1  0.018149  0  -0.038157  -0.253907  0  3.954561  0
C  C250  1  0.57660637  0.23681648  0.92428805  1  0.469706  0  0.145711  0.313781  0  3.874164  0
C  C251  1  0.55082844  0.18646964  0.97550781  1  -0.029924  0  -0.230038  -0.449988  0  3.944401  0
C  C252  1  0.60929231  0.33586112  0.86735292  1  -0.02234  0  0.008716  0.129382  0  3.913524  0
C  C253  1  0.62310726  0.40939690  0.84938995  1  -0.062372  0  -0.249451  -0.425374  0  3.970357  0
C  C254  1  0.63241299  0.27896147  0.83132230  1  0.311172  0  0.081602  0.049739  0  4.012075  0
C  C255  1  0.68619467  0.21293875  0.74372717  1  0.289983  0  0.082957  0.053864  0  4.015565  0
C  C256  1  0.68757839  0.09948787  0.74243721  1  0.466639  0  0.143494  0.316283  0  3.876133  0
C  C257  1  0.67646253  0.02807477  0.76598773  1  -0.025734  0  -0.231804  -0.455854  0  3.933224  0
C  C258  1  0.72226054  0.12518537  0.68292898  1  -0.028133  0  -0.037061  -0.237725  0  3.941856  0
C  C259  1  0.74903907  0.08316450  0.62951459  1  1.545864  0  0.194239  0.599881  0  4.219594  0
C  C260  1  0.72333624  0.19664272  0.68349804  1  0.044265  0  0.006137  0.118965  0  3.913619  0
C  C261  1  0.75849691  0.24461812  0.63172296  1  -0.057535  0  -0.244958  -0.411376  0  3.970291  0
C  C262  1  0.66805478  0.27535770  0.76978646  1  0.054783  0  0.035793  0.014527  0  3.953303  0
C  C263  1  0.81259427  0.16135110  0.23148620  1  0.001369  0  -0.004054  0.078465  0  4.000553  0
C  C264  1  0.88204964  0.14290647  0.18923055  1  -0.052437  0  -0.085913  -0.128713  0  3.959122  0
C  C265  1  0.86077124  0.08433293  0.15235347  1  -0.049614  0  -0.088855  -0.078648  0  4.009565  0
C  C266  1  0.77056431  0.04407042  0.15755383  1  -0.095394  0  -0.092776  -0.084487  0  4.010984  0
C  C267  1  0.70151284  0.06191289  0.20017107  1  0.022396  0  -0.089352  -0.076015  0  4.013175  0
C  C268  1  0.72289035  0.12040340  0.23694047  1  -0.116856  0  -0.091132  -0.133572  0  3.98997  0
C  C269  1  0.90076865  0.47219897  0.94926805  1  0.396137  0  0.042998  0.08887  0  3.974974  0
C  C270  1  0.97896138  0.44249297  0.92591593  1  0.030484  0  -0.082445  -0.180435  0  3.905464  0
C  C271  1  0.97263095  0.37095904  0.92218561  1  -0.062565  0  0.01615  0.175731  0  3.936314  0
C  C272  1  0.88587097  0.33311147  0.94273844  1  0.00691  0  -0.087357  -0.197307  0  3.946146  0
C  C273  1  0.81129313  0.36666571  0.96629183  1  0.46599  0  0.045774  0.107465  0  3.964378  0
C  C274  1  0.05540944  0.33684786  0.89663410  1  -0.040888  0  -0.159949  -0.212644  0  3.933659  0
C  C275  1  0.09726739  0.36960222  0.83540067  1  -0.06511  0  -0.164221  -0.136049  0  3.870883  0
C  C276  1  0.02074519  0.37047799  0.78278508  1  -0.021549  0  -0.160524  -0.205949  0  3.935978  0
C  C277  1  0.01250560  0.30875019  0.74107234  1  -0.005113  0  0.013214  0.166627  0  3.953102  0
C  C278  1  0.96034954  0.24556479  0.75778798  1  -0.092163  0  -0.087515  -0.197391  0  3.948622  0
C  C279  1  0.96237722  0.18931821  0.71843997  1  0.459315  0  0.048033  0.101193  0  3.959714  0
C  C280  1  0.05838793  0.25416228  0.64600130  1  0.43692  0  0.048332  0.100408  0  3.966857  0
C  C281  1  0.06173307  0.31212160  0.68337207  1  0.028449  0  -0.084315  -0.189522  0  3.926958  0
C  C282  1  0.22517785  0.10310523  0.55664575  1  1.5296  0  0.205079  0.603287  0  4.189244  0
C  C283  1  0.24918124  0.15941535  0.60222836  1  -0.025574  0  -0.039352  -0.253279  0  3.966966  0
C  C284  1  0.28513080  0.22802382  0.58648530  1  0.461367  0  0.144332  0.321735  0  3.882069  0
C  C285  1  0.29751230  0.25899974  0.52309918  1  -0.009921  0  -0.233275  -0.458659  0  3.943095  0
C  C286  1  0.24473741  0.15411340  0.66819317  1  0.051935  0  0.003159  0.111758  0  3.929318  0
C  C287  1  0.27891058  0.22093922  0.69165321  1  0.318651  0  0.083706  0.060425  0  4.009495  0
C  C288  1  0.21313212  0.09032131  0.70437501  1  -0.089759  0  -0.243235  -0.415553  0  3.969502  0
C  C289  1  0.29274619  0.24589488  0.75320703  1  0.018924  0  0.037323  0.015267  0  3.939024  0
C  C290  1  0.26865434  0.19913141  0.80747238  1  -0.02523  0  -0.001232  0.079504  0  3.989458  0
C  C291  1  0.34191862  0.16987102  0.83882910  1  -0.002524  0  -0.082471  -0.123086  0  3.943851  0
C  C292  1  0.31923100  0.12868115  0.89150420  1  -0.00266  0  -0.084416  -0.078956  0  3.999068  0
C  C293  1  0.22355995  0.11666431  0.91351566  1  -0.128099  0  -0.083795  -0.084579  0  4.017375  0
C  C294  1  0.14998618  0.14444390  0.88144326  1  -0.064174  0  -0.087973  -0.078883  0  4.014597  0
C  C295  1  0.17236442  0.18523947  0.82850908  1  -0.057005  0  -0.089345  -0.131436  0  3.96821  0
C  C296  1  0.32879668  0.31474000  0.76444388  1  0.347048  0  0.08301  0.04879  0  4.001565  0
C  C297  1  0.34735987  0.35169532  0.82202018  1  0.040694  0  0.013537  0.137108  0  3.899901  0
C  C298  1  0.32949380  0.32499992  0.88692979  1  -0.08837  0  -0.24921  -0.420596  0  3.956835  0
C  C299  1  0.38382295  0.41919694  0.80495959  1  0.017109  0  -0.034011  -0.240929  0  3.914976  0
C  C300  1  0.38589424  0.42260421  0.73780794  1  0.442617  0  0.150495  0.323695  0  3.859143  0
C  C301  1  0.41824904  0.48243603  0.69710359  1  -0.069524  0  -0.23192  -0.45667  0  3.953028  0
C  C302  1  0.41778701  0.47730645  0.84659101  1  1.5289  0  0.201794  0.603818  0  4.197512  0
C  C303  1  0.96260424  0.15453443  0.47923624  1  1.546278  0  0.201182  0.60922  0  4.184457  0
C  C304  1  0.92707334  0.19118875  0.42519461  1  0.00472  0  -0.038143  -0.253828  0  3.954619  0
C  C305  1  0.92340451  0.26318635  0.42428907  1  0.469928  0  0.145714  0.313721  0  3.874192  0
C  C306  1  0.94918205  0.31353288  0.47551047  1  -0.030851  0  -0.230053  -0.450047  0  3.944238  0
C  C307  1  0.89071514  0.16414094  0.36735591  1  -0.022464  0  0.008759  0.129371  0  3.913591  0
C  C308  1  0.87689571  0.09060507  0.34939456  1  -0.062313  0  -0.249503  -0.425389  0  3.970217  0
C  C309  1  0.86759643  0.22104098  0.33132444  1  0.312347  0  0.081552  0.049856  0  4.012018  0
C  C310  1  0.81380693  0.28705972  0.24373027  1  0.291059  0  0.082913  0.053676  0  4.015684  0
C  C311  1  0.81242762  0.40051114  0.24243875  1  0.466501  0  0.143316  0.31612  0  3.876285  0
C  C312  1  0.82354196  0.47192278  0.26598998  1  -0.026426  0  -0.231837  -0.456066  0  3.933209  0
C  C313  1  0.77774444  0.37481442  0.18292986  1  -0.028263  0  -0.037076  -0.237788  0  3.941956  0
C  C314  1  0.75096204  0.41683606  0.12951598  1  1.545799  0  0.194183  0.599832  0  4.219652  0
C  C315  1  0.77666713  0.30335603  0.18349871  1  0.044498  0  0.00617  0.119079  0  3.913497  0
C  C316  1  0.74150794  0.25537890  0.13172433  1  -0.058628  0  -0.24501  -0.4114  0  3.970337  0
C  C317  1  0.83194793  0.22464190  0.26979037  1  0.054096  0  0.035724  0.014363  0  3.953307  0
C  C318  1  0.31259126  0.66135050  0.26851683  1  0.001518  0  -0.003997  0.078532  0  4.000539  0
C  C319  1  0.38205292  0.64290711  0.31077265  1  -0.052771  0  -0.085923  -0.128791  0  3.95916  0
C  C320  1  0.36077867  0.58433936  0.34765278  1  -0.04972  0  -0.088751  -0.078476  0  4.009217  0
C  C321  1  0.27057297  0.54407582  0.34245672  1  -0.095342  0  -0.092885  -0.084612  0  4.010964  0
C  C322  1  0.20151603  0.56191349  0.29984354  1  0.022186  0  -0.089283  -0.075914  0  4.012823  0
C  C323  1  0.22288666  0.62040329  0.26306968  1  -0.116037  0  -0.091158  -0.133645  0  3.989746  0
C  C324  1  0.40077345  0.97219858  0.55072729  1  0.395936  0  0.042928  0.088715  0  3.974938  0
C  C325  1  0.47896656  0.94248961  0.57407865  1  0.030246  0  -0.082516  -0.180445  0  3.905562  0
C  C326  1  0.47263372  0.87095824  0.57781109  1  -0.062571  0  0.016141  0.175642  0  3.936393  0
C  C327  1  0.38587241  0.83310802  0.55725928  1  0.006891  0  -0.087347  -0.197189  0  3.946067  0
C  C328  1  0.31129490  0.86666523  0.53370762  1  0.465971  0  0.045715  0.107389  0  3.964428  0
C  C329  1  0.55541203  0.83684546  0.60336398  1  -0.040919  0  -0.160123  -0.212876  0  3.933889  0
C  C330  1  0.59726947  0.86960262  0.66459670  1  -0.065115  0  -0.164182  -0.135908  0  3.870722  0
C  C331  1  0.52074514  0.87048063  0.71721111  1  -0.021788  0  -0.160453  -0.205919  0  3.936093  0
C  C332  1  0.51250488  0.80875554  0.75892646  1  -0.005509  0  0.013264  0.166748  0  3.953194  0
C  C333  1  0.46034835  0.74557176  0.74221302  1  -0.09209  0  -0.087616  -0.197682  0  3.948737  0
C  C334  1  0.46238067  0.68932537  0.78156369  1  0.459191  0  0.047996  0.101354  0  3.959629  0
C  C335  1  0.55839041  0.75416956  0.85400032  1  0.437261  0  0.048228  0.100176  0  3.967004  0
C  C336  1  0.56173571  0.81212721  0.81662643  1  0.028877  0  -0.084246  -0.189176  0  3.926937  0
C  C337  1  0.72517478  0.60310568  0.94334985  1  1.529096  0  0.204979  0.603041  0  4.189753  0
C  C338  1  0.74917898  0.65941410  0.89776983  1  -0.025625  0  -0.039337  -0.253189  0  3.966887  0
C  C339  1  0.78512893  0.72802417  0.91351321  1  0.461487  0  0.144311  0.321815  0  3.882085  0
C  C340  1  0.79750987  0.75899829  0.97689851  1  -0.010103  0  -0.233298  -0.458748  0  3.943038  0
C  C341  1  0.74473759  0.65411242  0.83180405  1  0.051933  0  0.003222  0.111828  0  3.9291  0
C  C342  1  0.77891266  0.72093765  0.80834478  1  0.318601  0  0.083686  0.060452  0  4.009414  0
C  C343  1  0.71313418  0.59032019  0.79562192  1  -0.08955  0  -0.243225  -0.415526  0  3.969361  0
C  C344  1  0.79274327  0.74589200  0.74679155  1  0.01875  0  0.037352  0.015355  0  3.93904  0
C  C345  1  0.76865098  0.69912831  0.69252599  1  -0.025333  0  -0.001231  0.07952  0  3.989552  0
C  C346  1  0.84191653  0.66986832  0.66117083  1  -0.003183  0  -0.082516  -0.123106  0  3.943957  0
C  C347  1  0.81923011  0.62867927  0.60849319  1  -0.002034  0  -0.084414  -0.078979  0  3.999099  0
C  C348  1  0.72355949  0.61666591  0.58647951  1  -0.127928  0  -0.08387  -0.084624  0  4.017534  0
C  C349  1  0.64998679  0.64444615  0.61854987  1  -0.064043  0  -0.087926  -0.078759  0  4.01455  0
C  C350  1  0.67236214  0.68523935  0.67148659  1  -0.056585  0  -0.089435  -0.131645  0  3.968208  0
C  C351  1  0.82879213  0.81473655  0.73555220  1  0.347173  0  0.083133  0.048935  0  4.001399  0
C  C352  1  0.84735711  0.85169216  0.67797841  1  0.040298  0  0.013521  0.13715  0  3.899882  0
C  C353  1  0.82948977  0.82500058  0.61306820  1  -0.088369  0  -0.24916  -0.420532  0  3.95683  0
C  C354  1  0.88382360  0.91919184  0.69504073  1  0.017376  0  -0.034059  -0.240948  0  3.914963  0
C  C355  1  0.88589776  0.92260041  0.76219050  1  0.442753  0  0.150502  0.323605  0  3.859115  0
C  C356  1  0.91825650  0.98243242  0.80289655  1  -0.069429  0  -0.231892  -0.456624  0  3.952832  0
C  C357  1  0.91778607  0.97729811  0.65340770  1  1.528967  0  0.201838  0.603828  0  4.197567  0
C  C358  1  0.46258546  0.65452813  0.02076960  1  1.533265  0  0.201146  0.609166  0  4.184363  0
C  C359  1  0.42705759  0.69118525  0.07480840  1  0.017998  0  -0.038067  -0.253783  0  3.954409  0
C  C360  1  0.42339481  0.76318443  0.07571225  1  0.469706  0  0.14569  0.313733  0  3.874211  0
C  C361  1  0.44917210  0.81353177  0.02449249  1  -0.029963  0  -0.230037  -0.449976  0  3.944278  0
C  C362  1  0.39070373  0.66413924  0.13264785  1  -0.022386  0  0.008719  0.12938  0  3.913403  0
C  C363  1  0.37689256  0.59060451  0.15061035  1  -0.062287  0  -0.249464  -0.425467  0  3.970396  0
C  C364  1  0.36758892  0.72103945  0.16867847  1  0.311142  0  0.081601  0.049893  0  4.012111  0
C  C365  1  0.31380616  0.78706011  0.25627313  1  0.290557  0  0.082988  0.053978  0  4.015593  0
C  C366  1  0.31241776  0.90050892  0.25756308  1  0.4669  0  0.14332  0.316012  0  3.876196  0
C  C367  1  0.32353723  0.97192204  0.23401727  1  -0.026228  0  -0.231743  -0.455793  0  3.933022  0
C  C368  1  0.27772992  0.87481189  0.31707085  1  -0.028166  0  -0.036997  -0.237569  0  3.941689  0
C  C369  1  0.25095436  0.91683329  0.37048429  1  1.545644  0  0.194061  0.599663  0  4.219562  0
C  C370  1  0.27666153  0.80335510  0.31650226  1  0.0442  0  0.006122  0.118899  0  3.913616  0
C  C371  1  0.24150311  0.75538023  0.36827780  1  -0.057604  0  -0.245041  -0.411425  0  3.970335  0
C  C372  1  0.33194478  0.72464218  0.23021243  1  0.05502  0  0.035773  0.014355  0  3.953331  0
C  C373  1  0.18740988  0.83865034  0.76851504  1  0.001584  0  -0.004068  0.078354  0  4.000628  0
C  C374  1  0.11795226  0.85709445  0.81077069  1  -0.052564  0  -0.085871  -0.128632  0  3.959169  0
C  C375  1  0.13922968  0.91566645  0.84764824  1  -0.049455  0  -0.088897  -0.078763  0  4.009663  0
C  C376  1  0.22943733  0.95592896  0.84244835  1  -0.095428  0  -0.092727  -0.084322  0  4.010765  0
C  C377  1  0.29848952  0.93808650  0.79983393  1  0.022341  0  -0.08936  -0.076041  0  4.012918  0
C  C378  1  0.27711355  0.87959651  0.76306312  1  -0.116762  0  -0.091214  -0.133605  0  3.989771  0
C  C379  1  0.09922444  0.52779677  0.05072613  1  0.396161  0  0.042935  0.088715  0  3.974746  0
C  C380  1  0.02102935  0.55750582  0.07407732  1  0.030716  0  -0.082579  -0.180517  0  3.905602  0
C  C381  1  0.02736260  0.62903517  0.07780952  1  -0.062988  0  0.016303  0.175858  0  3.936276  0
C  C382  1  0.11412382  0.66688582  0.05725903  1  0.006373  0  -0.087344  -0.197228  0  3.946024  0
C  C383  1  0.18870328  0.63333261  0.03370799  1  0.466156  0  0.045714  0.107396  0  3.964234  0
C  C384  1  0.94458195  0.66314634  0.10336196  1  -0.040656  0  -0.159928  -0.212762  0  3.933737  0
C  C385  1  0.90272986  0.63039254  0.16459680  1  -0.064913  0  -0.164218  -0.13598  0  3.870613  0
C  C386  1  0.97925521  0.62951831  0.21721146  1  -0.022101  0  -0.160459  -0.205901  0  3.936161  0
C  C387  1  0.98748885  0.69124506  0.25892419  1  -0.005572  0  0.013231  0.166585  0  3.953641  0
C  C388  1  0.03963959  0.75442889  0.24220809  1  -0.0922  0  -0.087628  -0.197578  0  3.948968  0
C  C389  1  0.03761301  0.81067344  0.28156033  1  0.459426  0  0.04806  0.101378  0  3.960024  0
C  C390  1  0.94160842  0.74583145  0.35399947  1  0.436811  0  0.048196  0.100154  0  3.967039  0
C  C391  1  0.93826282  0.68787365  0.31662588  1  0.028279  0  -0.08419  -0.189132  0  3.927023  0
C  C392  1  0.77481648  0.89689359  0.44335643  1  1.5296  0  0.205227  0.603496  0  4.188681  0
C  C393  1  0.75080992  0.84058599  0.39777241  1  -0.025389  0  -0.039432  -0.253488  0  3.967028  0
C  C394  1  0.71486570  0.77197501  0.41351406  1  0.461273  0  0.144361  0.3219  0  3.882105  0
C  C395  1  0.70248501  0.74099961  0.47690018  1  -0.010135  0  -0.233271  -0.458647  0  3.943104  0
C  C396  1  0.75525690  0.84588950  0.33180712  1  0.051996  0  0.003305  0.111967  0  3.928972  0
C  C397  1  0.72108636  0.77906217  0.30834661  1  0.318619  0  0.083628  0.06039  0  4.009298  0
C  C398  1  0.78686427  0.90968109  0.29562622  1  -0.089485  0  -0.24319  -0.415487  0  3.96947  0
C  C399  1  0.70725351  0.75411010  0.24679327  1  0.01892  0  0.037351  0.015334  0  3.939065  0
C  C400  1  0.73134653  0.80087613  0.19253074  1  -0.025073  0  -0.001173  0.079586  0  3.989473  0
C  C401  1  0.65808190  0.83013448  0.16117214  1  -0.003242  0  -0.082557  -0.123168  0  3.944086  0
C  C402  1  0.68076845  0.87132230  0.10849610  1  -0.002109  0  -0.084457  -0.079058  0  3.999178  0
C  C403  1  0.77643915  0.88333709  0.08648182  1  -0.127949  0  -0.083864  -0.084571  0  4.017492  0
C  C404  1  0.85001382  0.85555853  0.11855516  1  -0.063978  0  -0.087958  -0.078864  0  4.014703  0
C  C405  1  0.82763528  0.81476552  0.17149122  1  -0.057111  0  -0.089429  -0.1316  0  3.968147  0
C  C406  1  0.67120783  0.68526348  0.23555266  1  0.347224  0  0.083037  0.048777  0  4.001449  0
C  C407  1  0.65264489  0.64830970  0.17797729  1  0.040262  0  0.013562  0.137176  0  3.899774  0
C  C408  1  0.67051394  0.67500563  0.11306816  1  -0.088528  0  -0.249148  -0.42048  0  3.956968  0
C  C409  1  0.61618109  0.58080807  0.19503836  1  0.017631  0  -0.034027  -0.240976  0  3.914969  0
C  C410  1  0.61410458  0.57739975  0.26218812  1  0.443213  0  0.150495  0.323696  0  3.85918  0
C  C411  1  0.58174862  0.51756537  0.30289060  1  -0.070549  0  -0.231977  -0.456755  0  3.953098  0
C  C412  1  0.58221799  0.52270419  0.15340459  1  1.528951  0  0.201715  0.603777  0  4.197457  0
C  C413  1  0.03740763  0.84547422  0.52076970  1  1.546583  0  0.201192  0.609285  0  4.1844  0
C  C414  1  0.07293423  0.80881578  0.57480757  1  0.004787  0  -0.038105  -0.25386  0  3.954513  0
C  C415  1  0.07660089  0.73681816  0.57571170  1  0.470028  0  0.145701  0.313685  0  3.874255  0
C  C416  1  0.05082046  0.68647161  0.52449217  1  -0.030666  0  -0.230071  -0.450015  0  3.9443  0
C  C417  1  0.10929054  0.83586102  0.63264674  1  -0.022034  0  0.008742  0.129387  0  3.913384  0
C  C418  1  0.12310645  0.90939738  0.65060856  1  -0.062361  0  -0.249461  -0.425406  0  3.970175  0
C  C419  1  0.13240854  0.77896097  0.66867680  1  0.311531  0  0.08162  0.049934  0  4.012083  0
C  C420  1  0.18619235  0.71294271  0.75627144  1  0.290661  0  0.083013  0.05386  0  4.015522  0
C  C421  1  0.18757247  0.59949181  0.75756061  1  0.466586  0  0.143306  0.315942  0  3.876507  0
C  C422  1  0.17645434  0.52807911  0.73401126  1  -0.026528  0  -0.231709  -0.455688  0  3.932879  0
C  C423  1  0.22225844  0.62518804  0.81706997  1  -0.028088  0  -0.037039  -0.237622  0  3.941906  0
C  C424  1  0.24904625  0.58316847  0.87048526  1  1.545751  0  0.194081  0.599613  0  4.219546  0
C  C425  1  0.22333720  0.69664643  0.81649971  1  0.044006  0  0.006175  0.119  0  3.913573  0
C  C426  1  0.25849847  0.74462306  0.86827503  1  -0.057635  0  -0.24501  -0.41143  0  3.970425  0
C  C427  1  0.16805415  0.77536003  0.73021040  1  0.054269  0  0.035764  0.014424  0  3.953366  0
N  N428  1  0.48919134  0.30670811  0.16351230  1  -1.223325  0  -0.330498  -0.25601  0  3.516056  0
N  N429  1  0.68203753  0.06480405  0.46935083  1  -1.215481  0  -0.333337  -0.260746  0  3.518961  0
N  N430  1  0.14767932  0.13962893  0.21435005  1  -1.432816  0  -0.229354  -0.327674  0  3.627017  0
N  N431  1  0.19841115  0.23560736  0.14008288  1  -1.443788  0  -0.231427  -0.332723  0  3.643909  0
N  N432  1  0.61250034  0.21977436  0.86822970  1  -1.428741  0  -0.229761  -0.326447  0  3.632225  0
N  N433  1  0.66729645  0.15226542  0.77844526  1  -1.405357  0  -0.231871  -0.327351  0  3.632983  0
N  N434  1  0.01080791  0.19329222  0.66351094  1  -1.223482  0  -0.330453  -0.255847  0  3.516411  0
N  N435  1  0.81796256  0.43519276  0.96934833  1  -1.215583  0  -0.33341  -0.260868  0  3.518908  0
N  N436  1  0.35232280  0.36036907  0.71434556  1  -1.432991  0  -0.229308  -0.32752  0  3.626962  0
N  N437  1  0.30158459  0.26439030  0.64008124  1  -1.443678  0  -0.231435  -0.332567  0  3.643731  0
N  N438  1  0.88751353  0.28022725  0.36822972  1  -1.42828  0  -0.229785  -0.326522  0  3.63227  0
N  N439  1  0.83270831  0.34773321  0.27844671  1  -1.405358  0  -0.231692  -0.326953  0  3.632575  0
N  N440  1  0.51081605  0.69329540  0.83649082  1  -1.2238  0  -0.330397  -0.255925  0  3.516179  0
N  N441  1  0.31796414  0.93519125  0.53064664  1  -1.215113  0  -0.333313  -0.260771  0  3.519034  0
N  N442  1  0.85232001  0.86036533  0.78565072  1  -1.432874  0  -0.229462  -0.327685  0  3.626901  0
N  N443  1  0.80158997  0.76438895  0.85991648  1  -1.443603  0  -0.23148  -0.332818  0  3.643702  0
N  N444  1  0.38750373  0.78022657  0.13177106  1  -1.428478  0  -0.229814  -0.326628  0  3.632504  0
N  N445  1  0.33270493  0.84773242  0.22155645  1  -1.405707  0  -0.231802  -0.32721  0  3.63298  0
N  N446  1  0.98918200  0.80670605  0.33648748  1  -1.223385  0  -0.330373  -0.25589  0  3.51631  0
N  N447  1  0.18203223  0.56480453  0.03064962  1  -1.21584  0  -0.333363  -0.260758  0  3.518813  0
N  N448  1  0.64767657  0.63963387  0.28565050  1  -1.432936  0  -0.229433  -0.327609  0  3.626911  0
N  N449  1  0.69840729  0.73561105  0.35991764  1  -1.443652  0  -0.231451  -0.332739  0  3.643669  0
N  N450  1  0.11249233  0.71977573  0.63177057  1  -1.428476  0  -0.229812  -0.326531  0  3.632388  0
N  N451  1  0.16728735  0.65226919  0.72155500  1  -1.405584  0  -0.231779  -0.327042  0  3.632859  0
O  O452  1  0.09149644  0.02778810  0.40634923  1  -1.161092  0  -0.330545  -0.567063  0  2.292943  0
O  O453  1  0.04005953  0.96811083  0.32049705  1  -1.152756  0  -0.322426  -0.548413  0  2.233061  0
O  O454  1  0.35307804  0.43918523  0.06458924  1  -1.154809  0  -0.319326  -0.551236  0  2.275282  0
O  O455  1  0.21695384  0.40446861  0.01158887  1  -1.151728  0  -0.30918  -0.533356  0  2.175358  0
O  O456  1  0.56426204  0.40977854  0.98698841  1  -1.162486  0  -0.331418  -0.563772  0  2.314928  0
O  O457  1  0.48038439  0.31140438  0.01818578  1  -1.150129  0  -0.32307  -0.549905  0  2.181503  0
O  O458  1  0.81728193  0.10924087  0.59235471  1  -1.177285  0  -0.337569  -0.599502  0  2.310461  0
O  O459  1  0.70330180  0.02379269  0.62071674  1  -1.170089  0  -0.321997  -0.562238  0  2.169831  0
O  O460  1  0.40850757  0.47222549  0.90634618  1  -1.160837  0  -0.330475  -0.567049  0  2.292627  0
O  O461  1  0.45994597  0.53189638  0.82049149  1  -1.152722  0  -0.322557  -0.548497  0  2.232759  0
O  O462  1  0.14692226  0.06080859  0.56459076  1  -1.15495  0  -0.319318  -0.551264  0  2.275231  0
O  O463  1  0.28304314  0.09552498  0.51158904  1  -1.151799  0  -0.309112  -0.533324  0  2.175273  0
O  O464  1  0.93574742  0.09023014  0.48699745  1  -1.162696  0  -0.331474  -0.56399  0  2.315123  0
O  O465  1  0.01963187  0.18860468  0.51818867  1  -1.149456  0  -0.323002  -0.549789  0  2.181243  0
O  O466  1  0.68271571  0.39076207  0.09235393  1  -1.177832  0  -0.337537  -0.599524  0  2.31047  0
O  O467  1  0.79669545  0.47620678  0.12071468  1  -1.169634  0  -0.321976  -0.562165  0  2.169833  0
O  O468  1  0.90850231  0.97221126  0.59365295  1  -1.161121  0  -0.330588  -0.567125  0  2.292852  0
O  O469  1  0.95994589  0.03188960  0.67950372  1  -1.152621  0  -0.322483  -0.548479  0  2.233004  0
O  O470  1  0.64691742  0.56080747  0.93540823  1  -1.154527  0  -0.319215  -0.551162  0  2.275298  0
O  O471  1  0.78304531  0.59552463  0.98840532  1  -1.151627  0  -0.309162  -0.533307  0  2.175617  0
O  O472  1  0.43573463  0.59022131  0.01300859  1  -1.162584  0  -0.331477  -0.563813  0  2.315029  0
O  O473  1  0.51961607  0.68859652  0.98181828  1  -1.149944  0  -0.322985  -0.549856  0  2.18158  0
O  O474  1  0.18270475  0.89075534  0.40764182  1  -1.177513  0  -0.337546  -0.599402  0  2.310238  0
O  O475  1  0.29669048  0.97620254  0.37928544  1  -1.169728  0  -0.321856  -0.562087  0  2.169733  0
O  O476  1  0.59150208  0.52779131  0.09364941  1  -1.160841  0  -0.330548  -0.567146  0  2.292803  0
O  O477  1  0.54005741  0.46811322  0.17949940  1  -1.152948  0  -0.322413  -0.548345  0  2.232821  0
O  O478  1  0.85307225  0.93919125  0.43541189  1  -1.155  0  -0.31942  -0.551362  0  2.275029  0
O  O479  1  0.71694995  0.90447077  0.48841549  1  -1.151773  0  -0.309188  -0.533458  0  2.174964  0
O  O480  1  0.06426281  0.90978155  0.51301320  1  -1.162521  0  -0.331475  -0.563866  0  2.314987  0
O  O481  1  0.98038177  0.81141010  0.48181398  1  -1.150209  0  -0.323059  -0.549931  0  2.181698  0
O  O482  1  0.31729654  0.60924453  0.90764308  1  -1.177646  0  -0.337583  -0.599484  0  2.310361  0
O  O483  1  0.20331436  0.52379827  0.87928702  1  -1.169654  0  -0.321862  -0.562004  0  2.16954  0
F  F484  1  0.07587488  0.14214532  0.10984689  1  -0.832109  0  -0.137823  -0.391349  0  1.231701  0
F  F485  1  0.23504634  0.12069287  0.11776127  1  -0.829268  0  -0.152113  -0.398562  0  1.180721  0
F  F486  1  0.70650685  0.12567860  0.88619046  1  -0.828146  0  -0.16523  -0.410664  0  1.159611  0
F  F487  1  0.54688577  0.10029608  0.85291881  1  -0.827722  0  -0.148028  -0.397839  0  1.196975  0
F  F488  1  0.42411293  0.35785370  0.60983510  1  -0.83203  0  -0.137854  -0.391288  0  1.231765  0
F  F489  1  0.26494667  0.37930672  0.61775750  1  -0.829281  0  -0.152112  -0.398543  0  1.180735  0
F  F490  1  0.79350427  0.37432306  0.38618998  1  -0.828043  0  -0.165189  -0.410609  0  1.159764  0
F  F491  1  0.95312448  0.39970187  0.35292408  1  -0.827512  0  -0.148067  -0.397906  0  1.19702  0
F  F492  1  0.92412578  0.85785253  0.89015200  1  -0.832042  0  -0.137815  -0.391322  0  1.231651  0
F  F493  1  0.76495368  0.87930548  0.88224138  1  -0.82934  0  -0.152092  -0.398543  0  1.180769  0
F  F494  1  0.29349684  0.87432437  0.11381642  1  -0.828072  0  -0.165156  -0.410599  0  1.159784  0
F  F495  1  0.45311939  0.89970282  0.14708431  1  -0.827535  0  -0.14804  -0.397842  0  1.196976  0
F  F496  1  0.57587782  0.64214101  0.39015580  1  -0.832083  0  -0.137811  -0.391311  0  1.231751  0
F  F497  1  0.73504954  0.62069466  0.38223528  1  -0.829283  0  -0.152122  -0.398518  0  1.180778  0
F  F498  1  0.20650563  0.62568251  0.61381361  1  -0.828089  0  -0.165186  -0.410667  0  1.159731  0
F  F499  1  0.04688393  0.60029909  0.64707480  1  -0.827724  0  -0.148009  -0.397868  0  1.197022  0
