# generated using pymatgen
data_Ag2H59C42(N7O2)2
_symmetry_space_group_name_H-M   'P 1'
_cell_length_a   10.28803843
_cell_length_b   16.01170629
_cell_length_c   34.46441628
_cell_angle_alpha   97.32798318
_cell_angle_beta   89.99481095
_cell_angle_gamma   108.76150744
_symmetry_Int_Tables_number   1
_chemical_formula_structural   Ag2H59C42(N7O2)2
_chemical_formula_sum   'Ag8 H236 C168 N56 O16'
_cell_volume   5326.65727250
_cell_formula_units_Z   4
loop_
 _symmetry_equiv_pos_site_id
 _symmetry_equiv_pos_as_xyz
  1  'x, y, z'
loop_
 _atom_site_type_symbol
 _atom_site_label
 _atom_site_symmetry_multiplicity
 _atom_site_fract_x
 _atom_site_fract_y
 _atom_site_fract_z
 _atom_site_occupancy
 _atom_site_pbe_bader_charge
 _atom_site_pbe_bader_spin_density
 _atom_site_pbe_cm5_charge
 _atom_site_pbe_ddec_charge
 _atom_site_pbe_ddec_spin_density
 _atom_site_pbe_ddec_sum_bond_order
 _atom_site_pbe_magmom
Ag  Ag0  1  0.66235029  0.26396035  0.17627062  1  0.561823  0  0.489653  0.262142  0  2.14046  0
Ag  Ag1  1  0.39837933  0.73614971  0.32377572  1  0.563527  0  0.489722  0.262561  0  2.139891  0
Ag  Ag2  1  0.33764654  0.73603660  0.82372758  1  0.561778  0  0.489641  0.262116  0  2.14049  0
Ag  Ag3  1  0.60161885  0.26384797  0.67621962  1  0.563523  0  0.489712  0.262542  0  2.139959  0
Ag  Ag4  1  0.99635637  0.37503391  0.35314248  1  0.569245  0  0.477329  0.279729  0  2.085879  0
Ag  Ag5  1  0.62136518  0.62529265  0.14690791  1  0.570171  0  0.47705  0.279743  0  2.086225  0
Ag  Ag6  1  0.00362814  0.62496173  0.64685477  1  0.569193  0  0.477311  0.279698  0  2.08595  0
Ag  Ag7  1  0.37864362  0.37470101  0.85308833  1  0.570132  0  0.477043  0.279746  0  2.086062  0
H  H8  1  0.85735184  0.51821755  0.15296644  1  0.044372  0  0.093008  0.135129  0  1.028977  0
H  H9  1  0.33944425  0.48225133  0.34694614  1  0.065117  0  0.092879  0.135034  0  1.028753  0
H  H10  1  0.14265433  0.48177670  0.84703332  1  0.044407  0  0.092973  0.135024  0  1.02895  0
H  H11  1  0.66056113  0.51775493  0.65305322  1  0.065001  0  0.092871  0.135038  0  1.028728  0
H  H12  1  0.97161863  0.52489239  0.19260957  1  0.007047  0  0.090829  0.129749  0  1.035152  0
H  H13  1  0.44675995  0.47526157  0.30727997  1  0.053543  0  0.090775  0.129273  0  1.035012  0
H  H14  1  0.02839114  0.47510322  0.80738883  1  0.007148  0  0.090819  0.129758  0  1.035107  0
H  H15  1  0.55324439  0.52473873  0.69271757  1  0.053596  0  0.090769  0.129295  0  1.035077  0
H  H16  1  0.79865900  0.45160537  0.19090619  1  0.045726  0  0.087228  0.118079  0  1.029888  0
H  H17  1  0.34741124  0.54869457  0.30896039  1  0.040723  0  0.087139  0.118132  0  1.0297  0
H  H18  1  0.20134984  0.54839420  0.80909420  1  0.045759  0  0.087234  0.118076  0  1.029953  0
H  H19  1  0.65258664  0.45130642  0.69103603  1  0.040871  0  0.087091  0.118071  0  1.029609  0
H  H20  1  0.17533560  0.24144271  0.11413300  1  0.046486  0  0.09771  0.136925  0  0.991483  0
H  H21  1  0.93418268  0.75867117  0.38594018  1  0.046086  0  0.097584  0.137003  0  0.992312  0
H  H22  1  0.82466606  0.75855222  0.88586623  1  0.046548  0  0.097724  0.136892  0  0.991586  0
H  H23  1  0.06581183  0.24132309  0.61405930  1  0.045978  0  0.097593  0.137061  0  0.992247  0
H  H24  1  0.21989837  0.33265946  0.08678031  1  0.066054  0  0.099573  0.14015  0  1.003674  0
H  H25  1  0.88712601  0.66738885  0.41322955  1  0.028421  0  0.099727  0.140912  0  1.003223  0
H  H26  1  0.78010394  0.66733484  0.91321743  1  0.066012  0  0.099564  0.140079  0  1.003729  0
H  H27  1  0.11286750  0.33260339  0.58677067  1  0.028574  0  0.099767  0.140924  0  1.00326  0
H  H28  1  0.07982098  0.23491485  0.07032604  1  0.072679  0  0.103656  0.145439  0  0.980679  0
H  H29  1  0.84517493  0.76520425  0.42973928  1  0.064478  0  0.103707  0.145751  0  0.979666  0
H  H30  1  0.92018067  0.76508008  0.92967319  1  0.072815  0  0.10363  0.145424  0  0.980747  0
H  H31  1  0.15481403  0.23478863  0.57026214  1  0.064422  0  0.103721  0.145759  0  0.97972  0
H  H32  1  0.46465965  0.45980675  0.18427601  1  0.026456  0  0.09335  0.124522  0  1.024306  0
H  H33  1  0.00529534  0.54042724  0.31563398  1  0.028858  0  0.093344  0.12475  0  1.023025  0
H  H34  1  0.53534986  0.54019612  0.81572576  1  0.026574  0  0.093376  0.124598  0  1.024344  0
H  H35  1  0.99469527  0.45956699  0.68436665  1  0.029054  0  0.093347  0.124715  0  1.023011  0
H  H36  1  0.34067460  0.36724018  0.15663760  1  0.05523  0  0.096354  0.138119  0  1.009392  0
H  H37  1  0.97412047  0.63311173  0.34323866  1  0.067238  0  0.09639  0.138512  0  1.008823  0
H  H38  1  0.65933201  0.63276272  0.84336272  1  0.055199  0  0.09636  0.138144  0  1.009407  0
H  H39  1  0.02587341  0.36688320  0.65676056  1  0.068097  0  0.096378  0.138425  0  1.00884  0
H  H40  1  0.29599013  0.41569225  0.20141633  1  0.060502  0  0.095952  0.138842  0  1.000973  0
H  H41  1  0.88081901  0.58454415  0.29846203  1  0.056329  0  0.09569  0.138571  0  1.001046  0
H  H42  1  0.70401257  0.58430865  0.79858443  1  0.06051  0  0.095956  0.138867  0  1.000971  0
H  H43  1  0.11917455  0.41545209  0.70153786  1  0.056389  0  0.095671  0.138487  0  1.001059  0
H  H44  1  0.04323510  0.63353260  0.12452190  1  0.036361  0  0.094862  0.135232  0  1.01069  0
H  H45  1  0.41009187  0.36681608  0.37543710  1  0.06393  0  0.095165  0.135879  0  1.009888  0
H  H46  1  0.95677144  0.36646433  0.87547746  1  0.036475  0  0.094867  0.135283  0  1.010768  0
H  H47  1  0.58990230  0.63317944  0.62456536  1  0.063943  0  0.095155  0.135789  0  1.010032  0
H  H48  1  0.00996024  0.53722368  0.08978474  1  0.079516  0  0.099826  0.144429  0  1.008161  0
H  H49  1  0.47305740  0.46309563  0.41020186  1  0.078426  0  0.100145  0.145239  0  1.008077  0
H  H50  1  0.99004952  0.46277192  0.91021452  1  0.079516  0  0.099844  0.144569  0  1.008006  0
H  H51  1  0.52693162  0.53690123  0.58980010  1  0.078471  0  0.100117  0.145194  0  1.00808  0
H  H52  1  0.14050977  0.63730519  0.08164084  1  0.089728  0  0.098367  0.14399  0  1.01484  0
H  H53  1  0.50355881  0.36302736  0.41831393  1  0.079772  0  0.098199  0.144025  0  1.014398  0
H  H54  1  0.85949486  0.36269375  0.91835777  1  0.089448  0  0.098396  0.144079  0  1.014743  0
H  H55  1  0.49643834  0.63697216  0.58168850  1  0.080166  0  0.098173  0.144022  0  1.01438  0
H  H56  1  0.63310917  0.35662941  0.25664989  1  0.032544  0  0.09452  0.129989  0  1.014802  0
H  H57  1  0.27652696  0.64360196  0.24337140  1  0.062356  0  0.09442  0.13001  0  1.014527  0
H  H58  1  0.36690205  0.64337297  0.74334372  1  0.032556  0  0.094526  0.130039  0  1.014883  0
H  H59  1  0.72346146  0.35639955  0.75663172  1  0.062631  0  0.09451  0.130047  0  1.014498  0
H  H60  1  0.50641460  0.34694949  0.29253490  1  0.067569  0  0.094408  0.136154  0  1.009736  0
H  H61  1  0.15956539  0.65340551  0.20749875  1  0.070465  0  0.094427  0.135731  0  1.01035  0
H  H62  1  0.49360253  0.65306082  0.70746211  1  0.06731  0  0.094394  0.136062  0  1.00984  0
H  H63  1  0.84042268  0.34659140  0.79250118  1  0.070415  0  0.094403  0.135661  0  1.010408  0
H  H64  1  0.51534752  0.41656155  0.25576855  1  0.045018  0  0.094217  0.132995  0  1.000578  0
H  H65  1  0.09873039  0.58380888  0.24425316  1  0.014451  0  0.09395  0.132115  0  1.001228  0
H  H66  1  0.48466438  0.58344415  0.74422585  1  0.045174  0  0.094246  0.13307  0  1.000625  0
H  H67  1  0.90125674  0.41619198  0.75574905  1  0.014389  0  0.093924  0.132063  0  1.001244  0
H  H68  1  0.12945920  0.03425317  0.17835315  1  0.054008  0  0.097934  0.134719  0  0.999608  0
H  H69  1  0.09523167  0.96582419  0.32190137  1  0.049059  0  0.097837  0.134704  0  1.00042  0
H  H70  1  0.87052837  0.96575636  0.82164874  1  0.053869  0  0.09796  0.134705  0  0.999746  0
H  H71  1  0.90476553  0.03417933  0.67810102  1  0.049114  0  0.097856  0.13473  0  1.000404  0
H  H72  1  0.04670148  0.11667414  0.18073202  1  0.065924  0  0.098435  0.141411  0  0.993453  0
H  H73  1  0.93001803  0.88338172  0.31951427  1  0.064369  0  0.098058  0.140607  0  0.993799  0
H  H74  1  0.95329292  0.88333736  0.81927116  1  0.066004  0  0.098415  0.141425  0  0.993447  0
H  H75  1  0.06997591  0.11661917  0.68048650  1  0.064412  0  0.098  0.140527  0  0.993767  0
H  H76  1  0.06496173  0.07009432  0.22326544  1  0.067383  0  0.10093  0.144384  0  0.991218  0
H  H77  1  0.99486106  0.93010140  0.27699816  1  0.067479  0  0.101072  0.144745  0  0.991008  0
H  H78  1  0.93503396  0.92991589  0.77673592  1  0.067146  0  0.100906  0.1443  0  0.991202  0
H  H79  1  0.00513555  0.06990481  0.72300323  1  0.067491  0  0.10106  0.144745  0  0.991043  0
H  H80  1  0.94870470  0.28004384  0.24158485  1  0.066344  0  0.095552  0.14181  0  1.019659  0
H  H81  1  0.66871544  0.71975015  0.25837543  1  0.079165  0  0.095404  0.141929  0  1.019836  0
H  H82  1  0.05129524  0.71996903  0.75841697  1  0.066039  0  0.09553  0.141704  0  1.019737  0
H  H83  1  0.33127548  0.28024471  0.74162698  1  0.079264  0  0.095423  0.141968  0  1.019642  0
H  H84  1  0.11475165  0.31506498  0.22262824  1  0.056622  0  0.090709  0.128193  0  1.019854  0
H  H85  1  0.80016942  0.68533967  0.27745505  1  0.032906  0  0.091117  0.129158  0  1.019485  0
H  H86  1  0.88524558  0.68493860  0.77737182  1  0.056622  0  0.090708  0.128184  0  1.019864  0
H  H87  1  0.19982512  0.31465854  0.72254642  1  0.033056  0  0.091104  0.129185  0  1.019324  0
H  H88  1  0.06693836  0.38629375  0.25987346  1  0.030899  0  0.089157  0.123305  0  1.005318  0
H  H89  1  0.68147988  0.61368587  0.24023359  1  0.034751  0  0.089338  0.123406  0  1.006013  0
H  H90  1  0.93308283  0.61371108  0.74013016  1  0.031203  0  0.089201  0.123351  0  1.005135  0
H  H91  1  0.31851597  0.38631300  0.75976821  1  0.034811  0  0.089339  0.123407  0  1.005987  0
H  H92  1  0.40876569  0.20923182  0.34397289  1  0.065373  0  0.095901  0.135805  0  0.992486  0
H  H93  1  0.19985913  0.79092263  0.15607754  1  0.048885  0  0.095794  0.135593  0  0.992789  0
H  H94  1  0.59124406  0.79076180  0.65602538  1  0.065687  0  0.095889  0.135753  0  0.992438  0
H  H95  1  0.80012913  0.20908825  0.84392328  1  0.048532  0  0.095791  0.135694  0  0.992687  0
H  H96  1  0.35554466  0.12665985  0.30248266  1  0.07253  0  0.101513  0.144873  0  0.993106  0
H  H97  1  0.22926564  0.87354032  0.19752922  1  0.059458  0  0.101323  0.144416  0  0.993229  0
H  H98  1  0.64445481  0.87333848  0.69751359  1  0.072676  0  0.101579  0.144948  0  0.993025  0
H  H99  1  0.77072877  0.12646929  0.80246949  1  0.059738  0  0.101368  0.144512  0  0.993312  0
H  H100  1  0.26490407  0.11344343  0.34673595  1  0.047028  0  0.101644  0.141764  0  0.985551  0
H  H101  1  0.15204034  0.88671192  0.15324957  1  0.043568  0  0.101807  0.142028  0  0.985613  0
H  H102  1  0.73509569  0.88655354  0.65326138  1  0.046955  0  0.101635  0.141726  0  0.985621  0
H  H103  1  0.84795241  0.11329631  0.84675108  1  0.043685  0  0.101837  0.142086  0  0.985576  0
H  H104  1  0.29382011  0.63854880  0.39322158  1  0.064776  0  0.086893  0.120035  0  1.05858  0
H  H105  1  0.65438654  0.36173214  0.10689634  1  0.068818  0  0.086829  0.119492  0  1.058536  0
H  H106  1  0.70616702  0.36145014  0.60677703  1  0.064606  0  0.08689  0.120035  0  1.058521  0
H  H107  1  0.34561297  0.63827404  0.89310650  1  0.068798  0  0.086868  0.119552  0  1.058491  0
H  H108  1  0.16697335  0.64471565  0.42719287  1  0.053911  0  0.093773  0.134242  0  0.998103  0
H  H109  1  0.52167912  0.35556655  0.07283178  1  0.040893  0  0.093777  0.134186  0  0.99821  0
H  H110  1  0.83301631  0.35527861  0.57280631  1  0.053902  0  0.093826  0.134349  0  0.998013  0
H  H111  1  0.47832359  0.64443632  0.92716998  1  0.040936  0  0.093766  0.134182  0  0.998157  0
H  H112  1  0.11901300  0.57686030  0.38083108  1  0.022911  0  0.089201  0.12362  0  1.04146  0
H  H113  1  0.54142620  0.42354641  0.11915283  1  0.039507  0  0.089042  0.123285  0  1.041019  0
H  H114  1  0.88097091  0.42313997  0.61916762  1  0.023158  0  0.089281  0.123728  0  1.041448  0
H  H115  1  0.45856845  0.57645785  0.88084669  1  0.039661  0  0.089047  0.12327  0  1.040994  0
H  H116  1  0.17578130  0.34363391  0.50725934  1  0.060959  0  0.095624  0.132504  0  0.996752  0
H  H117  1  0.83207493  0.65635856  0.99273759  1  0.052148  0  0.095329  0.13186  0  0.995776  0
H  H118  1  0.82421618  0.65636238  0.49273852  1  0.061159  0  0.095634  0.132505  0  0.996749  0
H  H119  1  0.16792353  0.34363971  0.00726127  1  0.052144  0  0.095338  0.131888  0  0.99573  0
H  H120  1  0.33167129  0.43384412  0.51796987  1  0.041765  0  0.098667  0.143507  0  0.992985  0
H  H121  1  0.89766397  0.56617840  0.98198645  1  0.044123  0  0.098593  0.142928  0  0.993759  0
H  H122  1  0.66832949  0.56615489  0.48202584  1  0.041627  0  0.098671  0.143474  0  0.993073  0
H  H123  1  0.10232961  0.43381788  0.01801170  1  0.044338  0  0.098594  0.142899  0  0.993739  0
H  H124  1  0.32818287  0.33937424  0.48408815  1  0.089192  0  0.099804  0.146115  0  0.998086  0
H  H125  1  0.98887284  0.66067798  0.01582041  1  0.072599  0  0.099618  0.145939  0  0.998333  0
H  H126  1  0.67181562  0.66062406  0.51590897  1  0.088752  0  0.099819  0.146171  0  0.99812  0
H  H127  1  0.01112726  0.33931967  0.98417638  1  0.072552  0  0.099627  0.145934  0  0.998277  0
H  H128  1  0.46187568  0.73005793  0.43861495  1  0.055061  0  0.093011  0.132649  0  1.020277  0
H  H129  1  0.73138854  0.27027967  0.06148434  1  0.022353  0  0.092952  0.132702  0  1.020068  0
H  H130  1  0.53812181  0.26994034  0.56138362  1  0.054913  0  0.093  0.132617  0  1.02032  0
H  H131  1  0.26860770  0.72972192  0.93851531  1  0.022504  0  0.092963  0.132722  0  1.020045  0
H  H132  1  0.54587827  0.65430835  0.44844718  1  -0.000768  0  0.087247  0.11981  0  1.026861  0
H  H133  1  0.89132687  0.34595999  0.05168412  1  0.040323  0  0.087443  0.119976  0  1.027048  0
H  H134  1  0.45411338  0.34568795  0.55155011  1  -0.000621  0  0.087262  0.119777  0  1.026904  0
H  H135  1  0.10867321  0.65403956  0.94831715  1  0.040417  0  0.087432  0.119967  0  1.027082  0
H  H136  1  0.59786442  0.76451681  0.47469511  1  0.03237  0  0.095866  0.135619  0  0.989761  0
H  H137  1  0.83303599  0.23569845  0.02547730  1  0.042983  0  0.095713  0.135134  0  0.990371  0
H  H138  1  0.40212782  0.23547679  0.52530404  1  0.032203  0  0.095903  0.135687  0  0.989621  0
H  H139  1  0.16696275  0.76429842  0.97452437  1  0.043012  0  0.095728  0.135127  0  0.990402  0
H  H140  1  0.16046440  0.49891938  0.56569430  1  0.037822  0  0.087355  0.120003  0  1.031776  0
H  H141  1  0.66125877  0.50082553  0.93420357  1  0.034104  0  0.087956  0.120749  0  1.031459  0
H  H142  1  0.83953272  0.50107425  0.43430339  1  0.037758  0  0.087334  0.119981  0  1.031755  0
H  H143  1  0.33873933  0.49917008  0.06579512  1  0.034083  0  0.087965  0.120765  0  1.031452  0
H  H144  1  0.06436721  0.48241944  0.52105915  1  0.036187  0  0.095609  0.137959  0  1.011333  0
H  H145  1  0.58158409  0.51737060  0.97882660  1  0.041655  0  0.095305  0.13803  0  1.010574  0
H  H146  1  0.93563057  0.51757553  0.47893834  1  0.036337  0  0.095571  0.137911  0  1.011424  0
H  H147  1  0.41841015  0.48262701  0.02117193  1  0.041523  0  0.095283  0.138007  0  1.010668  0
H  H148  1  0.05641855  0.56580341  0.55970996  1  0.052929  0  0.093117  0.134768  0  1.040669  0
H  H149  1  0.49031746  0.43382911  0.94022750  1  0.068647  0  0.093057  0.134838  0  1.040397  0
H  H150  1  0.94357923  0.43419155  0.44028811  1  0.052991  0  0.093104  0.134727  0  1.040713  0
H  H151  1  0.50968452  0.56616647  0.05977234  1  0.068656  0  0.093066  0.134913  0  1.040318  0
H  H152  1  0.76785030  0.20861587  0.29617471  1  0.054479  0  0.08821  0.121782  0  1.036681  0
H  H153  1  0.55874056  0.79141849  0.20375405  1  0.062456  0  0.088162  0.121925  0  1.03537  0
H  H154  1  0.23214463  0.79138699  0.70382734  1  0.0545  0  0.088221  0.121786  0  1.036647  0
H  H155  1  0.44126252  0.20858705  0.79624759  1  0.062112  0  0.088159  0.121939  0  1.035285  0
H  H156  1  0.60698658  0.12359073  0.29596969  1  0.046859  0  0.091994  0.129613  0  1.002333  0
H  H157  1  0.48338684  0.87666826  0.20408860  1  0.037049  0  0.091913  0.129722  0  1.002167  0
H  H158  1  0.39301313  0.87640420  0.70402954  1  0.046879  0  0.091886  0.129428  0  1.00262  0
H  H159  1  0.51661589  0.12333659  0.79591387  1  0.037056  0  0.091921  0.12969  0  1.002202  0
H  H160  1  0.62317015  0.21632815  0.27046076  1  0.057848  0  0.089013  0.126969  0  1.037673  0
H  H161  1  0.40673366  0.78398454  0.22961222  1  0.055267  0  0.089162  0.127737  0  1.037812  0
H  H162  1  0.37682894  0.78366943  0.72953922  1  0.057908  0  0.089017  0.126977  0  1.037653  0
H  H163  1  0.59326907  0.21602031  0.77039025  1  0.055732  0  0.089184  0.127734  0  1.037751  0
H  H164  1  0.67054202  0.89582606  0.15584741  1  0.080953  0  0.095634  0.139284  0  1.004796  0
H  H165  1  0.77435847  0.10431015  0.34424637  1  0.062561  0  0.09568  0.139538  0  1.004818  0
H  H166  1  0.32947094  0.10417010  0.84415653  1  0.080627  0  0.095623  0.139261  0  1.004839  0
H  H167  1  0.22565143  0.89569543  0.65575325  1  0.062527  0  0.095649  0.139512  0  1.004891  0
H  H168  1  0.79491926  0.89784183  0.19156224  1  0.06726  0  0.095092  0.136299  0  1.019443  0
H  H169  1  0.89699084  0.10254395  0.30857156  1  0.054442  0  0.095075  0.136509  0  1.019499  0
H  H170  1  0.20509446  0.10216360  0.80844404  1  0.067078  0  0.095111  0.136343  0  1.01942  0
H  H171  1  0.10301482  0.89745900  0.69142702  1  0.054524  0  0.095047  0.136452  0  1.019563  0
H  H172  1  0.84454825  0.95968359  0.15145944  1  0.049657  0  0.095346  0.134038  0  0.995709  0
H  H173  1  0.88459059  0.04056046  0.34861436  1  0.055097  0  0.095089  0.134027  0  0.995603  0
H  H174  1  0.15546386  0.04032252  0.84854630  1  0.049561  0  0.095306  0.133933  0  0.995819  0
H  H175  1  0.11541734  0.95944313  0.65138513  1  0.055216  0  0.095117  0.134078  0  0.995537  0
H  H176  1  0.83313330  0.07349916  0.42712441  1  0.029619  0  0.096194  0.115064  0  0.97985  0
H  H177  1  0.75950599  0.92673663  0.07302212  1  0.039732  0  0.095943  0.114798  0  0.979548  0
H  H178  1  0.16686741  0.92649776  0.57287523  1  0.029717  0  0.096204  0.115087  0  0.979824  0
H  H179  1  0.24048568  0.07326554  0.92698134  1  0.039705  0  0.095955  0.114827  0  0.979509  0
H  H180  1  0.70409316  0.12485041  0.42555356  1  0.049312  0  0.094618  0.107876  0  0.988123  0
H  H181  1  0.57902735  0.87522780  0.07454283  1  0.028962  0  0.094755  0.108433  0  0.987896  0
H  H182  1  0.29591142  0.87514648  0.57444753  1  0.049335  0  0.094644  0.107958  0  0.988097  0
H  H183  1  0.42096566  0.12477511  0.92545691  1  0.029127  0  0.094782  0.108466  0  0.987813  0
H  H184  1  0.83323659  0.23531751  0.48572764  1  0.02512  0  0.085291  0.075677  0  1.011738  0
H  H185  1  0.59805952  0.76491344  0.01434217  1  0.031871  0  0.085203  0.075591  0  1.01245  0
H  H186  1  0.16676999  0.76468142  0.51427156  1  0.025035  0  0.085306  0.075686  0  1.011704  0
H  H187  1  0.40194473  0.23508474  0.98566104  1  0.031885  0  0.08518  0.075571  0  1.012395  0
H  H188  1  0.92991847  0.16288562  0.48969017  1  0.001895  0  0.083303  0.074162  0  0.984764  0
H  H189  1  0.76725679  0.83744540  0.01047924  1  0.003943  0  0.083446  0.074652  0  0.985162  0
H  H190  1  0.07008907  0.83711331  0.51030931  1  0.002049  0  0.083339  0.074217  0  0.984773  0
H  H191  1  0.23274750  0.16255673  0.98952566  1  0.003913  0  0.083422  0.07461  0  0.985149  0
H  H192  1  0.61552377  0.10662546  0.48439327  1  0.047829  0  0.084414  0.071846  0  1.02942  0
H  H193  1  0.50910421  0.89359704  0.01565033  1  0.040131  0  0.084495  0.072189  0  1.029672  0
H  H194  1  0.38448374  0.89337146  0.51560609  1  0.047692  0  0.084402  0.071763  0  1.029549  0
H  H195  1  0.49089743  0.10639786  0.98435034  1  0.040544  0  0.084555  0.072327  0  1.029533  0
H  H196  1  0.71039004  0.03737242  0.49470954  1  -0.008201  0  0.086703  0.080655  0  0.979562  0
H  H197  1  0.67335370  0.96285259  0.00537534  1  -0.006776  0  0.086236  0.080087  0  0.97954  0
H  H198  1  0.28961941  0.96262838  0.50529529  1  -0.008494  0  0.08672  0.080673  0  0.979512  0
H  H199  1  0.32665060  0.03714762  0.99462625  1  -0.007012  0  0.086208  0.080087  0  0.979593  0
H  H200  1  0.71365943  0.20744512  0.54772765  1  0.007901  0  0.083385  0.072262  0  1.016229  0
H  H201  1  0.50684035  0.79269405  0.95235488  1  0.015714  0  0.082982  0.071474  0  1.016134  0
H  H202  1  0.28634925  0.79256385  0.45226985  1  0.007634  0  0.08343  0.072271  0  1.016172  0
H  H203  1  0.49316166  0.20730546  0.04764783  1  0.015725  0  0.082968  0.0715  0  1.016168  0
H  H204  1  0.78236221  0.12650211  0.56073990  1  0.007552  0  0.08107  0.071916  0  0.9927  0
H  H205  1  0.65647241  0.87374924  0.93936677  1  0.013551  0  0.081138  0.071965  0  0.991323  0
H  H206  1  0.21764128  0.87351009  0.43926187  1  0.007936  0  0.081088  0.071858  0  0.992815  0
H  H207  1  0.34352947  0.12624032  0.06063415  1  0.013666  0  0.081112  0.071928  0  0.991296  0
H  H208  1  0.47770757  0.08866818  0.53741653  1  0.059298  0  0.093086  0.102738  0  1.006598  0
H  H209  1  0.38925064  0.91110779  0.96255060  1  0.047395  0  0.09334  0.103392  0  1.005844  0
H  H210  1  0.52229631  0.91134673  0.46258339  1  0.059326  0  0.093119  0.102825  0  1.006675  0
H  H211  1  0.61076175  0.08889306  0.03745220  1  0.047431  0  0.093304  0.103378  0  1.005893  0
H  H212  1  0.54834085  0.01241672  0.55401891  1  0.022679  0  0.09951  0.114812  0  0.977425  0
H  H213  1  0.53613049  0.98758142  0.94602579  1  0.066932  0  0.09918  0.114538  0  0.977394  0
H  H214  1  0.45165974  0.98759356  0.44597898  1  0.022507  0  0.099515  0.114812  0  0.977528  0
H  H215  1  0.46389102  0.01242210  0.05397660  1  0.066871  0  0.099248  0.11461  0  0.977323  0
H  H216  1  0.84862716  0.20639239  0.11510360  1  0.54169  0  0.318338  0.279131  0  0.998958  0
H  H217  1  0.64237344  0.79383118  0.38490195  1  0.538208  0  0.317987  0.278691  0  1.001409  0
H  H218  1  0.15137905  0.79360387  0.88489542  1  0.541735  0  0.318388  0.279168  0  0.998949  0
H  H219  1  0.35762276  0.20616839  0.61509845  1  0.538117  0  0.318003  0.278748  0  1.001341  0
H  H220  1  0.37764556  0.67887478  0.12592935  1  0.508192  0  0.340967  0.283404  0  0.928295  0
H  H221  1  0.69905394  0.32157699  0.37410132  1  0.505435  0  0.340773  0.281561  0  0.929691  0
H  H222  1  0.62236232  0.32112676  0.87407233  1  0.50818  0  0.340967  0.283419  0  0.928294  0
H  H223  1  0.30093054  0.67841859  0.62589882  1  0.505414  0  0.340774  0.281634  0  0.929564  0
H  H224  1  0.37596979  0.14677951  0.15766204  1  0.553142  0  0.325217  0.292656  0  0.969347  0
H  H225  1  0.22921490  0.85331820  0.34246145  1  0.53815  0  0.325242  0.292544  0  0.968574  0
H  H226  1  0.62402546  0.85322010  0.84233662  1  0.553122  0  0.325181  0.292717  0  0.969328  0
H  H227  1  0.77078624  0.14668737  0.65753904  1  0.538241  0  0.325264  0.292513  0  0.968593  0
H  H228  1  0.10655183  0.22241154  0.36394240  1  0.539941  0  0.31292  0.270209  0  1.010702  0
H  H229  1  0.88438401  0.77781877  0.13609831  1  0.537033  0  0.312731  0.270498  0  1.009427  0
H  H230  1  0.89346221  0.77758871  0.63605775  1  0.539997  0  0.312921  0.27016  0  1.010751  0
H  H231  1  0.11560570  0.22218144  0.86390328  1  0.537035  0  0.312709  0.270508  0  1.00941  0
H  H232  1  0.13406742  0.31556361  0.41973863  1  0.540329  0  0.309896  0.263733  0  1.018054  0
H  H233  1  0.81872490  0.68459829  0.08021556  1  0.53494  0  0.310365  0.264105  0  1.018303  0
H  H234  1  0.86592679  0.68443004  0.58025819  1  0.54038  0  0.309965  0.263821  0  1.017909  0
H  H235  1  0.18127429  0.31540533  0.91978277  1  0.53497  0  0.310322  0.264052  0  1.018306  0
H  H236  1  0.26907621  0.71203371  0.57015769  1  0.519254  0  0.30683  0.253233  0  1.018969  0
H  H237  1  0.55718428  0.28783947  0.92984257  1  0.525641  0  0.306847  0.25234  0  1.019582  0
H  H238  1  0.73093128  0.28796121  0.42984183  1  0.519412  0  0.306788  0.253097  0  1.019029  0
H  H239  1  0.44281943  0.71216345  0.07015687  1  0.525771  0  0.306832  0.252289  0  1.01974  0
H  H240  1  0.74222684  0.09973659  0.15145916  1  0.529504  0  0.301848  0.258274  0  1.027395  0
H  H241  1  0.64274652  0.90035247  0.34851319  1  0.532534  0  0.302085  0.258215  0  1.026316  0
H  H242  1  0.25778100  0.90026294  0.84854297  1  0.529472  0  0.301799  0.258188  0  1.027424  0
H  H243  1  0.35725877  0.09964972  0.65148911  1  0.532454  0  0.302126  0.258338  0  1.026231  0
C  C244  1  0.88742106  0.47916766  0.17325448  1  -0.00238  0  -0.239346  -0.41916  0  3.962753  0
C  C245  1  0.40858303  0.52115270  0.32661075  1  -0.060521  0  -0.239235  -0.418558  0  3.961783  0
C  C246  1  0.11258612  0.52082859  0.82674512  1  -0.002424  0  -0.239302  -0.419048  0  3.962708  0
C  C247  1  0.59141258  0.47884763  0.67338534  1  -0.060566  0  -0.239222  -0.418573  0  3.961775  0
C  C248  1  0.92935887  0.40570416  0.15193114  1  0.467726  0  0.096365  0.202684  0  4.003351  0
C  C249  1  0.52414144  0.59461370  0.34789955  1  0.458199  0  0.095909  0.201879  0  4.002674  0
C  C250  1  0.07064865  0.59429276  0.84806821  1  0.467333  0  0.096391  0.202696  0  4.003357  0
C  C251  1  0.47585548  0.40538926  0.65209786  1  0.458132  0  0.096001  0.2019  0  4.002797  0
C  C252  1  0.05680616  0.40762736  0.13571052  1  0.077079  0  -0.036989  -0.14224  0  4.071835  0
C  C253  1  0.64960440  0.59271036  0.36417176  1  0.033083  0  -0.036692  -0.142077  0  4.069127  0
C  C254  1  0.94320495  0.59237091  0.86428834  1  0.077154  0  -0.037026  -0.14233  0  4.071967  0
C  C255  1  0.35039246  0.40729054  0.63582872  1  0.032958  0  -0.036689  -0.141934  0  4.068928  0
C  C256  1  0.03864783  0.31977172  0.11879292  1  0.38291  0  0.101029  0.199957  0  3.986062  0
C  C257  1  0.71910860  0.68050932  0.38118342  1  0.423744  0  0.100989  0.200774  0  3.985149  0
C  C258  1  0.96135842  0.68022656  0.88120536  1  0.382777  0  0.101151  0.200115  0  3.985919  0
C  C259  1  0.28088560  0.31948625  0.61881701  1  0.423901  0  0.100962  0.200799  0  3.98496  0
C  C260  1  0.13311711  0.28001500  0.09638076  1  -0.068293  0  -0.226176  -0.423295  0  3.972627  0
C  C261  1  0.85321540  0.72012802  0.40366114  1  -0.021004  0  -0.226447  -0.425064  0  3.973887  0
C  C262  1  0.86688555  0.71998192  0.90361859  1  -0.068295  0  -0.226182  -0.423178  0  3.972566  0
C  C263  1  0.14677682  0.27986554  0.59633974  1  -0.021071  0  -0.226559  -0.425195  0  3.974017  0
C  C264  1  0.35532605  0.43090119  0.17519250  1  -0.04108  0  -0.23426  -0.426349  0  3.976762  0
C  C265  1  0.92495420  0.56941773  0.32470448  1  -0.058619  0  -0.234359  -0.427008  0  3.975289  0
C  C266  1  0.64467990  0.56910038  0.82480802  1  -0.041143  0  -0.234346  -0.426548  0  3.976863  0
C  C267  1  0.07503449  0.43057654  0.67529471  1  -0.061229  0  -0.234304  -0.426813  0  3.974961  0
C  C268  1  0.31137446  0.49451118  0.15473361  1  0.455494  0  0.094483  0.197253  0  4.011226  0
C  C269  1  0.81732322  0.50585298  0.34519908  1  0.454724  0  0.095184  0.197465  0  4.012563  0
C  C270  1  0.68863084  0.50549103  0.84526782  1  0.455485  0  0.094524  0.197305  0  4.011171  0
C  C271  1  0.18266516  0.49414263  0.65479961  1  0.456193  0  0.095157  0.197621  0  4.01228  0
C  C272  1  0.18060683  0.48475191  0.13770526  1  0.031455  0  -0.034622  -0.137552  0  4.068783  0
C  C273  1  0.69629321  0.51560957  0.36220694  1  0.063119  0  -0.034941  -0.136869  0  4.069906  0
C  C274  1  0.81940202  0.51524767  0.86229455  1  0.031511  0  -0.034635  -0.137626  0  4.068711  0
C  C275  1  0.30369778  0.48438736  0.63779242  1  0.063041  0  -0.03494  -0.137117  0  4.070132  0
C  C276  1  0.19378892  0.56611738  0.12446481  1  0.371287  0  0.102563  0.205989  0  3.98753  0
C  C277  1  0.62810981  0.43430715  0.37552295  1  0.345752  0  0.101858  0.204101  0  3.987366  0
C  C278  1  0.80621865  0.43388355  0.87553451  1  0.371338  0  0.102574  0.206051  0  3.98757  0
C  C279  1  0.37188054  0.56569240  0.62447832  1  0.345947  0  0.101924  0.204237  0  3.98731  0
C  C280  1  0.09230286  0.59554210  0.10401982  1  -0.053839  0  -0.235397  -0.434143  0  3.956438  0
C  C281  1  0.49712852  0.40482551  0.39595330  1  -0.077095  0  -0.235443  -0.435112  0  3.956534  0
C  C282  1  0.90770372  0.40445684  0.89597879  1  -0.053643  0  -0.235408  -0.434399  0  3.956424  0
C  C283  1  0.50286830  0.59517336  0.60404850  1  -0.077394  0  -0.235424  -0.435  0  3.95647  0
C  C284  1  0.52600328  0.35295501  0.26155286  1  -0.072779  0  -0.233567  -0.42402  0  3.97987  0
C  C285  1  0.17316726  0.64737584  0.23847445  1  -0.058688  0  -0.233137  -0.422478  0  3.980791  0
C  C286  1  0.47400696  0.64704932  0.73844348  1  -0.072552  0  -0.233633  -0.42412  0  3.980048  0
C  C287  1  0.82682149  0.35262439  0.76152627  1  -0.059017  0  -0.233156  -0.42237  0  3.98096  0
C  C288  1  0.42977084  0.27651918  0.23558890  1  0.471312  0  0.092684  0.188813  0  4.028319  0
C  C289  1  0.15347164  0.72379763  0.26447365  1  0.475715  0  0.092652  0.188673  0  4.029332  0
C  C290  1  0.57023581  0.72348574  0.76441096  1  0.471415  0  0.092634  0.188677  0  4.028701  0
C  C291  1  0.84651879  0.27620595  0.73552613  1  0.475393  0  0.092666  0.188723  0  4.029216  0
C  C292  1  0.29327084  0.22394002  0.24162221  1  0.046423  0  -0.037003  -0.140685  0  4.083682  0
C  C293  1  0.06953785  0.77637072  0.25845807  1  0.031409  0  -0.036699  -0.14077  0  4.081935  0
C  C294  1  0.70673768  0.77605892  0.75837669  1  0.046655  0  -0.036976  -0.14042  0  4.083769  0
C  C295  1  0.93046230  0.22363285  0.74154258  1  0.032078  0  -0.036655  -0.140841  0  4.081797  0
C  C296  1  0.25068240  0.16279282  0.20749091  1  0.360173  0  0.10019  0.19846  0  4.000271  0
C  C297  1  0.08785866  0.83733407  0.29264970  1  0.386359  0  0.099739  0.198982  0  3.994536  0
C  C298  1  0.74932001  0.83720946  0.79250762  1  0.359608  0  0.10022  0.198427  0  4.000257  0
C  C299  1  0.91213535  0.16267083  0.70735045  1  0.386876  0  0.099627  0.198878  0  3.994623  0
C  C300  1  0.11654323  0.09209998  0.19672089  1  -0.049974  0  -0.228629  -0.418384  0  3.972366  0
C  C301  1  0.02442617  0.90799688  0.30351077  1  -0.040052  0  -0.228007  -0.417769  0  3.970104  0
C  C302  1  0.88344953  0.90791022  0.80328105  1  -0.04963  0  -0.228638  -0.418317  0  3.972501  0
C  C303  1  0.97556618  0.09200667  0.69649074  1  -0.040654  0  -0.227947  -0.417737  0  3.970045  0
C  C304  1  0.05767109  0.31667875  0.24944757  1  -0.067338  0  -0.235862  -0.415436  0  3.962223  0
C  C305  1  0.74145258  0.68341149  0.25060139  1  -0.045769  0  -0.236649  -0.41712  0  3.96589  0
C  C306  1  0.94233133  0.68332549  0.75055283  1  -0.067221  0  -0.23586  -0.415304  0  3.962061  0
C  C307  1  0.25853905  0.31658671  0.74940065  1  -0.045911  0  -0.236606  -0.417127  0  3.965665  0
C  C308  1  0.11219709  0.27619073  0.27966694  1  0.520626  0  0.093296  0.20021  0  4.017686  0
C  C309  1  0.83631192  0.72398539  0.22037121  1  0.476365  0  0.09375  0.200774  0  4.018461  0
C  C310  1  0.88780949  0.72380821  0.72033197  1  0.520733  0  0.093323  0.200131  0  4.017962  0
C  C311  1  0.16368139  0.27601617  0.77962931  1  0.476054  0  0.09372  0.200729  0  4.018334  0
C  C312  1  0.21380030  0.23367779  0.27597571  1  -0.033228  0  -0.039577  -0.145928  0  4.083191  0
C  C313  1  0.98046172  0.76662977  0.22407205  1  -0.014144  0  -0.039527  -0.145792  0  4.079438  0
C  C314  1  0.78620854  0.76632180  0.72402411  1  -0.03329  0  -0.039504  -0.145895  0  4.083211  0
C  C315  1  0.01952682  0.23337975  0.77593014  1  -0.014672  0  -0.039456  -0.145682  0  4.079315  0
C  C316  1  0.22656429  0.20749195  0.31274439  1  0.443886  0  0.096378  0.191456  0  4.00897  0
C  C317  1  0.01937022  0.79274183  0.18728764  1  0.413062  0  0.097015  0.192896  0  4.006068  0
C  C318  1  0.77344686  0.79251030  0.68725559  1  0.443994  0  0.096381  0.191393  0  4.008972  0
C  C319  1  0.98061964  0.20726839  0.81271314  1  0.413176  0  0.096997  0.192913  0  4.006072  0
C  C320  1  0.31824660  0.16156962  0.32722563  1  -0.090889  0  -0.22683  -0.418392  0  3.972767  0
C  C321  1  0.15701267  0.83861400  0.17279222  1  -0.014818  0  -0.227086  -0.418739  0  3.973066  0
C  C322  1  0.68175771  0.83842866  0.67277265  1  -0.091235  0  -0.226849  -0.418316  0  3.972672  0
C  C323  1  0.84297425  0.16139423  0.82720814  1  -0.015176  0  -0.227196  -0.419061  0  3.973034  0
C  C324  1  0.19698656  0.59952918  0.40494868  1  -0.05981  0  -0.238718  -0.416978  0  3.961044  0
C  C325  1  0.59680999  0.40076787  0.09509027  1  -0.068763  0  -0.238137  -0.415213  0  3.959699  0
C  C326  1  0.80299992  0.40046845  0.59504897  1  -0.059671  0  -0.238807  -0.417166  0  3.960998  0
C  C327  1  0.40318786  0.59923500  0.90491120  1  -0.06896  0  -0.238186  -0.415263  0  3.959732  0
C  C328  1  0.20932620  0.52181933  0.42225200  1  0.438459  0  0.092468  0.20026  0  4.009748  0
C  C329  1  0.68715823  0.47837994  0.07775641  1  0.434993  0  0.091953  0.199624  0  4.009635  0
C  C330  1  0.79066089  0.47817563  0.57774578  1  0.43808  0  0.092484  0.200339  0  4.009688  0
C  C331  1  0.31284511  0.52162030  0.92224402  1  0.434979  0  0.091902  0.199513  0  4.009829  0
C  C332  1  0.25955858  0.51926701  0.46037779  1  0.026417  0  -0.037213  -0.138946  0  4.07299  0
C  C333  1  0.74002725  0.48083727  0.03962665  1  0.028152  0  -0.036912  -0.13842  0  4.069686  0
C  C334  1  0.74043242  0.48072993  0.53962069  1  0.026617  0  -0.037127  -0.138904  0  4.072815  0
C  C335  1  0.25997837  0.51916364  0.96037354  1  0.028147  0  -0.036913  -0.13849  0  4.069844  0
C  C336  1  0.23825680  0.42900222  0.46242731  1  0.401866  0  0.097141  0.196407  0  3.994727  0
C  C337  1  0.80924189  0.57107862  0.03756599  1  0.411781  0  0.096912  0.195456  0  3.995691  0
C  C338  1  0.76173810  0.57099476  0.53756973  1  0.402531  0  0.097069  0.196276  0  3.994819  0
C  C339  1  0.19076075  0.42891827  0.96243481  1  0.411532  0  0.096964  0.195543  0  3.995669  0
C  C340  1  0.26983719  0.38382936  0.49458932  1  -0.083995  0  -0.230778  -0.423509  0  3.962531  0
C  C341  1  0.88598511  0.61618686  0.00538446  1  -0.07186  0  -0.230251  -0.421907  0  3.96281  0
C  C342  1  0.73015771  0.61616762  0.50540772  1  -0.083632  0  -0.230754  -0.42345  0  3.962631  0
C  C343  1  0.11401302  0.38381074  0.99461465  1  -0.07184  0  -0.23027  -0.421898  0  3.962847  0
C  C344  1  0.50942698  0.70798763  0.46216849  1  -0.023538  0  -0.239026  -0.420116  0  3.972004  0
C  C345  1  0.80117319  0.29226581  0.03794386  1  -0.026523  0  -0.238696  -0.41918  0  3.973295  0
C  C346  1  0.49056789  0.29200735  0.53782871  1  -0.023378  0  -0.239058  -0.420094  0  3.972037  0
C  C347  1  0.19882463  0.70773312  0.96205533  1  -0.026811  0  -0.238738  -0.419195  0  3.97327  0
C  C348  1  0.41041240  0.67707430  0.49300114  1  0.497853  0  0.084651  0.18798  0  4.055708  0
C  C349  1  0.73325584  0.32306989  0.00705028  1  0.461315  0  0.083866  0.186337  0  4.057349  0
C  C350  1  0.58958053  0.32292066  0.50699664  1  0.497976  0  0.084496  0.187776  0  4.056009  0
C  C351  1  0.26674848  0.67693038  0.99294899  1  0.46131  0  0.083838  0.186278  0  4.057341  0
C  C352  1  0.30466772  0.59319077  0.49208410  1  -0.01199  0  -0.045345  -0.153718  0  4.082297  0
C  C353  1  0.71121214  0.40685399  0.00793549  1  0.030043  0  -0.04513  -0.153233  0  4.080912  0
C  C354  1  0.69532682  0.40680353  0.50791335  1  -0.012035  0  -0.045307  -0.153708  0  4.082594  0
C  C355  1  0.28879252  0.59314694  0.99206353  1  0.030047  0  -0.045099  -0.153109  0  4.080943  0
C  C356  1  0.24126101  0.59876628  0.52777451  1  0.389527  0  0.086137  0.18375  0  4.00107  0
C  C357  1  0.64234321  0.40116994  0.97221823  1  0.38768  0  0.086333  0.184041  0  4.002666  0
C  C358  1  0.75873384  0.40122865  0.47222442  1  0.388981  0  0.086084  0.183745  0  4.001319  0
C  C359  1  0.35765786  0.59882964  0.02778159  1  0.387503  0  0.086351  0.184005  0  4.002506  0
C  C360  1  0.12443194  0.53330203  0.54439908  1  -0.023242  0  -0.23987  -0.422399  0  3.964072  0
C  C361  1  0.59087089  0.46646104  0.95552115  1  -0.039451  0  -0.240301  -0.42385  0  3.964495  0
C  C362  1  0.87556681  0.46669292  0.45559928  1  -0.023338  0  -0.239795  -0.422296  0  3.964056  0
C  C363  1  0.40912948  0.53353521  0.04447875  1  -0.039234  0  -0.240306  -0.423923  0  3.964428  0
C  C364  1  0.67473627  0.16999819  0.27796308  1  -0.090208  0  -0.239154  -0.417805  0  3.965984  0
C  C365  1  0.50468853  0.83018579  0.22203931  1  -0.10011  0  -0.239403  -0.41928  0  3.966146  0
C  C366  1  0.32526477  0.83000135  0.72203876  1  -0.090227  0  -0.239079  -0.417629  0  3.966182  0
C  C367  1  0.49531161  0.16981776  0.77796192  1  -0.100056  0  -0.239372  -0.419157  0  3.966047  0
C  C368  1  0.70612882  0.11987629  0.24163207  1  0.494444  0  0.088924  0.199749  0  4.014297  0
C  C369  1  0.58654338  0.88019762  0.25832550  1  0.506991  0  0.088949  0.199443  0  4.01575  0
C  C370  1  0.29387714  0.88012724  0.75836974  1  0.494446  0  0.088906  0.199681  0  4.01448  0
C  C371  1  0.41345705  0.11980459  0.74167622  1  0.506399  0  0.088935  0.199399  0  4.016033  0
C  C372  1  0.71416152  0.03190259  0.23595121  1  -0.040426  0  -0.043353  -0.149094  0  4.089729  0
C  C373  1  0.68238821  0.96826772  0.26403282  1  0.031337  0  -0.043455  -0.148848  0  4.090624  0
C  C374  1  0.28584185  0.96810161  0.76405093  1  -0.040668  0  -0.043314  -0.149099  0  4.08969  0
C  C375  1  0.31760966  0.03173714  0.73596936  1  0.031433  0  -0.043549  -0.148918  0  4.090826  0
C  C376  1  0.74242768  0.01708773  0.19636029  1  0.390886  0  0.090841  0.190119  0  4.003086  0
C  C377  1  0.72531517  0.98309763  0.30363735  1  0.405377  0  0.09078  0.189443  0  4.002026  0
C  C378  1  0.25757076  0.98291243  0.80364333  1  0.390473  0  0.09093  0.190271  0  4.002945  0
C  C379  1  0.27468783  0.01690389  0.69636520  1  0.406112  0  0.090745  0.189311  0  4.002206  0
C  C380  1  0.76433693  0.93886831  0.17256649  1  -0.086979  0  -0.235896  -0.421354  0  3.968303  0
C  C381  1  0.82521796  0.06137478  0.32750423  1  -0.07638  0  -0.235786  -0.422067  0  3.96766  0
C  C382  1  0.23567253  0.06113251  0.82743776  1  -0.086304  0  -0.235929  -0.42139  0  3.96834  0
C  C383  1  0.17478867  0.93862815  0.67249521  1  -0.076419  0  -0.235718  -0.421975  0  3.967656  0
C  C384  1  0.90283146  0.20589871  0.41119590  1  1.529604  0  0.207443  0.636652  0  4.139034  0
C  C385  1  0.69679464  0.79430026  0.08890931  1  1.535895  0  0.207464  0.637788  0  4.140392  0
C  C386  1  0.09716696  0.79409558  0.58880183  1  1.529213  0  0.207483  0.636721  0  4.13917  0
C  C387  1  0.30318618  0.20568605  0.91108763  1  1.53573  0  0.207356  0.637712  0  4.140136  0
C  C388  1  0.81189798  0.13658848  0.43438121  1  -0.024376  0  -0.169969  -0.308115  0  3.935214  0
C  C389  1  0.67518556  0.86361397  0.06574086  1  -0.027902  0  -0.169843  -0.308861  0  3.935541  0
C  C390  1  0.18810597  0.86340909  0.56561905  1  -0.02445  0  -0.170039  -0.308302  0  3.935421  0
C  C391  1  0.32480839  0.13638887  0.93426207  1  -0.028389  0  -0.169885  -0.308999  0  3.935576  0
C  C392  1  0.83057576  0.16562348  0.47902036  1  0.005972  0  -0.163455  -0.115148  0  3.929547  0
C  C393  1  0.66508212  0.83462621  0.02109647  1  -0.001261  0  -0.164069  -0.116315  0  3.931283  0
C  C394  1  0.16943209  0.83437606  0.52098148  1  0.005941  0  -0.163469  -0.115148  0  3.929656  0
C  C395  1  0.33491988  0.16537329  0.97890711  1  -0.001136  0  -0.163939  -0.116089  0  3.931017  0
C  C396  1  0.71008542  0.10673579  0.49940705  1  -0.032255  0  -0.168506  -0.147971  0  3.942678  0
C  C397  1  0.60363691  0.89348671  0.00067631  1  -0.019921  0  -0.167706  -0.147194  0  3.942492  0
C  C398  1  0.28992149  0.89326576  0.50059405  1  -0.031942  0  -0.168506  -0.147913  0  3.942802  0
C  C399  1  0.39636801  0.10651281  0.99932640  1  -0.020135  0  -0.167803  -0.147476  0  3.942569  0
C  C400  1  0.70018748  0.13569507  0.54300268  1  0.019238  0  -0.168072  -0.116584  0  3.948274  0
C  C401  1  0.56501173  0.86446344  0.95707466  1  0.001154  0  -0.167706  -0.115425  0  3.945333  0
C  C402  1  0.29981633  0.86431583  0.45699814  1  0.019175  0  -0.16813  -0.116467  0  3.948443  0
C  C403  1  0.43499642  0.13553476  0.04292739  1  0.000802  0  -0.167644  -0.115339  0  3.945446  0
C  C404  1  0.55903734  0.08374764  0.55675721  1  -0.034565  0  -0.168541  -0.301177  0  3.939178  0
C  C405  1  0.47565602  0.91618680  0.94325017  1  -0.077638  0  -0.168917  -0.302489  0  3.937534  0
C  C406  1  0.44096910  0.91626462  0.44324195  1  -0.034278  0  -0.168596  -0.301311  0  3.939287  0
C  C407  1  0.52435448  0.08381610  0.05675044  1  -0.077524  0  -0.168979  -0.302582  0  3.937574  0
C  C408  1  0.52882471  0.11133894  0.59878612  1  1.570983  0  0.200772  0.64066  0  4.149251  0
C  C409  1  0.41798559  0.88850143  0.90121476  1  1.577024  0  0.201213  0.642444  0  4.14878  0
C  C410  1  0.47117905  0.88866798  0.40121329  1  1.571577  0  0.20086  0.640743  0  4.149108  0
C  C411  1  0.58201483  0.11150074  0.09878812  1  1.57749  0  0.201161  0.642345  0  4.148702  0
N  N412  1  0.84121484  0.32230588  0.14557761  1  -0.718419  0  -0.286072  -0.192765  0  3.575971  0
N  N413  1  0.51931668  0.67795440  0.35431396  1  -0.718728  0  -0.28574  -0.192541  0  3.577302  0
N  N414  1  0.15878878  0.67769104  0.85442174  1  -0.718441  0  -0.286129  -0.192769  0  3.57601  0
N  N415  1  0.48068186  0.32204791  0.64568341  1  -0.718751  0  -0.285735  -0.1925  0  3.577311  0
N  N416  1  0.90862842  0.27136256  0.12579041  1  -0.832245  0  -0.285647  -0.153698  0  3.675097  0
N  N417  1  0.63755699  0.72890831  0.37418344  1  -0.82933  0  -0.285534  -0.153355  0  3.674066  0
N  N418  1  0.09137457  0.72863505  0.87420841  1  -0.83216  0  -0.285717  -0.153783  0  3.675261  0
N  N419  1  0.36244343  0.27109192  0.62581700  1  -0.829105  0  -0.285524  -0.153443  0  3.674215  0
N  N420  1  0.39868332  0.57605646  0.15170413  1  -0.700576  0  -0.279641  -0.206701  0  3.529554  0
N  N421  1  0.82308655  0.42435051  0.34829239  1  -0.696306  0  -0.279876  -0.208153  0  3.528359  0
N  N422  1  0.60132099  0.42394573  0.84829817  1  -0.700286  0  -0.279561  -0.206473  0  3.529269  0
N  N423  1  0.17690153  0.57564641  0.65170696  1  -0.696278  0  -0.279925  -0.208254  0  3.528378  0
N  N424  1  0.32542266  0.61843825  0.13393423  1  -0.849318  0  -0.292943  -0.1593  0  3.711661  0
N  N425  1  0.70743195  0.38201198  0.36608592  1  -0.833685  0  -0.292096  -0.155038  0  3.709041  0
N  N426  1  0.67458489  0.38156265  0.86606625  1  -0.849515  0  -0.293052  -0.159511  0  3.711721  0
N  N427  1  0.29255481  0.61798427  0.63391368  1  -0.834136  0  -0.292056  -0.155093  0  3.709039  0
N  N428  1  0.46700137  0.24876879  0.20029243  1  -0.707077  0  -0.285631  -0.184717  0  3.573538  0
N  N429  1  0.21828744  0.75142105  0.29978879  1  -0.714543  0  -0.285138  -0.184376  0  3.57427  0
N  N430  1  0.53299586  0.75123283  0.79970548  1  -0.706962  0  -0.285657  -0.184803  0  3.573778  0
N  N431  1  0.78170361  0.24857988  0.70020995  1  -0.714065  0  -0.285161  -0.184434  0  3.574229  0
N  N432  1  0.35801393  0.18065277  0.18359332  1  -0.828091  0  -0.28394  -0.15411  0  3.66939  0
N  N433  1  0.17729553  0.81943349  0.31654143  1  -0.837543  0  -0.284429  -0.155254  0  3.667708  0
N  N434  1  0.64198037  0.81935079  0.81640733  1  -0.828041  0  -0.283846  -0.154075  0  3.669151  0
N  N435  1  0.82270203  0.18057075  0.68345868  1  -0.83784  0  -0.284421  -0.155083  0  3.667851  0
N  N436  1  0.06666145  0.27592183  0.31619165  1  -0.718154  0  -0.280495  -0.217285  0  3.508517  0
N  N437  1  0.79101405  0.72418852  0.18383921  1  -0.726244  0  -0.28044  -0.217626  0  3.509731  0
N  N438  1  0.93334286  0.72407842  0.68380821  1  -0.718467  0  -0.28062  -0.217372  0  3.508867  0
N  N439  1  0.20897919  0.27580903  0.81616192  1  -0.727654  0  -0.280503  -0.217789  0  3.509597  0
N  N440  1  0.13700259  0.23440981  0.33567339  1  -0.850496  0  -0.290525  -0.158751  0  3.705049  0
N  N441  1  0.90289011  0.76575251  0.16435739  1  -0.844203  0  -0.290234  -0.158959  0  3.70294  0
N  N442  1  0.86300760  0.76559441  0.66432758  1  -0.850654  0  -0.290534  -0.158695  0  3.705172  0
N  N443  1  0.09709866  0.23424970  0.83564433  1  -0.842314  0  -0.290149  -0.158842  0  3.702874  0
N  N444  1  0.16146472  0.43894119  0.40263341  1  -0.703669  0  -0.273919  -0.239583  0  3.472602  0
N  N445  1  0.72238587  0.56129160  0.09735148  1  -0.708329  0  -0.273703  -0.240571  0  3.474484  0
N  N446  1  0.83852143  0.56105577  0.59736421  1  -0.703385  0  -0.273947  -0.23954  0  3.472503  0
N  N447  1  0.27761683  0.43870932  0.90264813  1  -0.708369  0  -0.273585  -0.240336  0  3.474205  0
N  N448  1  0.18119708  0.38402358  0.42731724  1  -0.857051  0  -0.295804  -0.160193  0  3.701395  0
N  N449  1  0.79722079  0.61612989  0.07265783  1  -0.847789  0  -0.295705  -0.159007  0  3.704194  0
N  N450  1  0.81879359  0.61597271  0.57268033  1  -0.857972  0  -0.295856  -0.160258  0  3.701433  0
N  N451  1  0.20278484  0.38387104  0.92734149  1  -0.847704  0  -0.295761  -0.159149  0  3.704249  0
N  N452  1  0.41169470  0.73012141  0.52655337  1  -0.690328  0  -0.265219  -0.290206  0  3.169335  0
N  N453  1  0.68162644  0.26994030  0.97350278  1  -0.709623  0  -0.264953  -0.290599  0  3.169865  0
N  N454  1  0.58830631  0.26987223  0.47344374  1  -0.690718  0  -0.265126  -0.290183  0  3.169354  0
N  N455  1  0.31837560  0.73005928  0.02649704  1  -0.709608  0  -0.26501  -0.290678  0  3.170016  0
N  N456  1  0.30909422  0.68088661  0.54721181  1  -0.878133  0  -0.30519  -0.175724  0  3.76829  0
N  N457  1  0.62821353  0.31906206  0.95280855  1  -0.884422  0  -0.305246  -0.17384  0  3.767541  0
N  N458  1  0.69090872  0.31910701  0.45278675  1  -0.87753  0  -0.305134  -0.175518  0  3.768339  0
N  N459  1  0.37178297  0.68093617  0.04719205  1  -0.884501  0  -0.305216  -0.173726  0  3.76767  0
N  N460  1  0.72754257  0.15519526  0.20796470  1  -0.718538  0  -0.26708  -0.247165  0  3.400799  0
N  N461  1  0.57266285  0.84483050  0.29198477  1  -0.71652  0  -0.266628  -0.24619  0  3.399033  0
N  N462  1  0.27246889  0.84480763  0.79203648  1  -0.718945  0  -0.267054  -0.247074  0  3.400877  0
N  N463  1  0.42734144  0.15516971  0.70801653  1  -0.715511  0  -0.266714  -0.246231  0  3.399044  0
N  N464  1  0.75083768  0.09249451  0.18112473  1  -0.841558  0  -0.297322  -0.163688  0  3.709336  0
N  N465  1  0.65850719  0.90760719  0.31884316  1  -0.849797  0  -0.297822  -0.163848  0  3.710248  0
N  N466  1  0.24917212  0.90750505  0.81887625  1  -0.84089  0  -0.29728  -0.163614  0  3.709362  0
N  N467  1  0.34149741  0.09239169  0.68115835  1  -0.850967  0  -0.297748  -0.163831  0  3.710127  0
O  O468  1  0.85083988  0.25932096  0.39756524  1  -1.199755  0  -0.341445  -0.592002  0  2.222422  0
O  O469  1  0.59135510  0.74090379  0.10257714  1  -1.20668  0  -0.341708  -0.592448  0  2.223562  0
O  O470  1  0.14915985  0.74067400  0.60243253  1  -1.199535  0  -0.341468  -0.592063  0  2.222516  0
O  O471  1  0.40862113  0.25907335  0.89741254  1  -1.20635  0  -0.341698  -0.592445  0  2.223524  0
O  O472  1  0.02810572  0.20878243  0.40737860  1  -1.211798  0  -0.344658  -0.587572  0  2.155485  0
O  O473  1  0.81914265  0.79136003  0.09267505  1  -1.201592  0  -0.34458  -0.587996  0  2.155712  0
O  O474  1  0.97189599  0.79121845  0.59262304  1  -1.21169  0  -0.344673  -0.587579  0  2.155467  0
O  O475  1  0.18083402  0.20863158  0.90732339  1  -1.201489  0  -0.344575  -0.587963  0  2.15525  0
O  O476  1  0.40608827  0.11327852  0.60503351  1  -1.218611  0  -0.351001  -0.607873  0  2.168698  0
O  O477  1  0.29334814  0.88655171  0.89491934  1  -1.219632  0  -0.351188  -0.608717  0  2.169065  0
O  O478  1  0.59391377  0.88672105  0.39496659  1  -1.218585  0  -0.351003  -0.607826  0  2.168573  0
O  O479  1  0.70666067  0.11344781  0.10508337  1  -1.219825  0  -0.351161  -0.608714  0  2.168594  0
O  O480  1  0.62297497  0.13001318  0.62520971  1  -1.223705  0  -0.350413  -0.594815  0  2.213785  0
O  O481  1  0.49355852  0.86967346  0.87485567  1  -1.216265  0  -0.350459  -0.595595  0  2.214003  0
O  O482  1  0.37702779  0.86999174  0.37478986  1  -1.224404  0  -0.350462  -0.594866  0  2.213763  0
O  O483  1  0.50644928  0.13032210  0.12514534  1  -1.216532  0  -0.350372  -0.595431  0  2.21443  0
