# generated using pymatgen
data_CoH21C28(NO3)2
_symmetry_space_group_name_H-M   'P 1'
_cell_length_a   8.79149538
_cell_length_b   17.14033298
_cell_length_c   33.25802961
_cell_angle_alpha   90.00890824
_cell_angle_beta   93.65406848
_cell_angle_gamma   90.00867529
_symmetry_Int_Tables_number   1
_chemical_formula_structural   CoH21C28(NO3)2
_chemical_formula_sum   'Co8 H168 C224 N16 O48'
_cell_volume   5001.43587710
_cell_formula_units_Z   8
loop_
 _symmetry_equiv_pos_site_id
 _symmetry_equiv_pos_as_xyz
  1  'x, y, z'
loop_
 _atom_site_type_symbol
 _atom_site_label
 _atom_site_symmetry_multiplicity
 _atom_site_fract_x
 _atom_site_fract_y
 _atom_site_fract_z
 _atom_site_occupancy
 _atom_site_pbe_bader_charge
 _atom_site_pbe_bader_spin_density
 _atom_site_pbe_cm5_charge
 _atom_site_pbe_ddec_charge
 _atom_site_pbe_ddec_spin_density
 _atom_site_pbe_ddec_sum_bond_order
 _atom_site_pbe_magmom
Co  Co0  1  0.32965419  0.21293433  0.80263685  1  1.339662  2.632457  0.682721  0.971313  2.855269  2.458581  2.617
Co  Co1  1  0.28190792  0.82214055  0.16244216  1  1.281394  2.585384  0.649461  0.973105  2.769107  2.460098  2.545
Co  Co2  1  0.17038135  0.71293809  0.69736926  1  1.340321  2.63262  0.682723  0.971387  2.85552  2.459201  2.618
Co  Co3  1  0.67031734  0.78702272  0.19751326  1  1.338975  2.632635  0.682414  0.971053  2.855228  2.456182  2.618
Co  Co4  1  0.21838826  0.32236863  0.33757832  1  1.279978  2.585111  0.649445  0.972695  2.768287  2.460063  2.545
Co  Co5  1  0.82960496  0.28715545  0.30260066  1  1.339405  2.632739  0.682496  0.970843  2.855514  2.458668  2.618
Co  Co6  1  0.78157369  0.67765140  0.66237832  1  1.279159  2.585114  0.649676  0.972849  2.768222  2.460129  2.545
Co  Co7  1  0.71852774  0.17763213  0.83761671  1  1.279751  2.585187  0.64992  0.97333  2.76831  2.460488  2.545
H  H8  1  0.26759424  0.12857624  0.40957489  1  0.111633  0.000288  0.099728  0.101106  5.6e-05  1.048538  0.0
H  H9  1  0.74856452  0.11635690  0.54269091  1  0.073225  -1.1e-05  0.103256  0.070026  -9e-06  1.031669  0.0
H  H10  1  0.60036160  0.30815534  0.62333725  1  0.087566  0.000153  0.098889  0.106303  7e-05  1.051641  0.0
H  H11  1  0.47472413  0.95306332  0.44497674  1  0.101817  6e-06  0.09818  0.094505  5e-06  1.053551  0.0
H  H12  1  0.88236861  0.59199937  0.04299081  1  0.061369  2.2e-05  0.10278  0.113304  3e-06  1.014212  0.0
H  H13  1  0.73234446  0.87150330  0.59043824  1  0.112583  0.000288  0.099664  0.101005  5.6e-05  1.048738  0.0
H  H14  1  0.26071611  0.01352124  0.45428347  1  0.053052  0.000116  0.101943  0.113795  5.6e-05  1.032782  0.0
H  H15  1  0.38343887  0.04120559  0.18987520  1  0.074355  -2.4e-05  0.106009  0.111278  -0.000133  1.037973  0.0
H  H16  1  0.96836808  0.46430050  0.18260436  1  0.07036  -7e-06  0.097036  0.090651  -2e-06  1.022024  0.0
H  H17  1  0.63232901  0.95149261  0.89350299  1  0.078464  0.000655  0.102615  0.106006  0.000294  1.006288  0.0
H  H18  1  0.37665089  0.23891088  0.54075385  1  0.05912  2.2e-05  0.104547  0.072475  9e-06  0.997639  0.0
H  H19  1  0.93719173  0.44614032  0.25303737  1  0.111673  0.000762  0.11832  0.11421  8.9e-05  1.005039  0.001
H  H20  1  0.78719011  0.93923002  0.14967285  1  0.1305  8.4e-05  0.109043  0.115621  -0.000209  1.019482  0.0
H  H21  1  0.22912211  0.16974855  0.52866802  1  0.110693  1.5e-05  0.106235  0.083225  7e-06  0.999361  0.0
H  H22  1  0.36273372  0.73397614  0.86529869  1  0.041876  -3.2e-05  0.104704  0.076622  -2.4e-05  1.000986  0.0
H  H23  1  0.97659527  0.67182779  0.19111919  1  0.152897  0.000458  0.141645  0.11098  -0.000101  0.997023  0.0
H  H24  1  0.85125740  0.12024686  0.71998183  1  0.085669  0.000216  0.09699  0.0946  -6e-06  1.04397  0.0
H  H25  1  0.67794368  0.16156880  0.39361637  1  0.09079  0.000166  0.102906  0.104975  2.4e-05  1.025958  0.0
H  H26  1  0.67813097  0.57403725  0.00138491  1  0.048951  -1.4e-05  0.101427  0.070205  -1.3e-05  0.99108  0.0
H  H27  1  0.22493561  0.76781037  0.78977644  1  0.139793  0.00078  0.118509  0.115436  0.000196  1.034193  0.001
H  H28  1  0.36807479  0.04826025  0.10659269  1  0.083241  0.000656  0.102453  0.105883  0.000295  1.006504  0.0
H  H29  1  0.93698260  0.12869522  0.64992410  1  0.078186  0.000145  0.104439  0.123332  6.1e-05  0.99783  0.0
H  H30  1  0.77475734  0.06386009  0.26650027  1  0.146214  0.000905  0.122625  0.12721  0.00033  1.036325  0.0
H  H31  1  0.03234462  0.27424709  0.42459580  1  0.079657  -0.000144  0.105178  0.111145  -0.000313  1.004589  0.0
H  H32  1  0.57248874  0.56304415  0.36162490  1  0.05374  7.7e-05  0.106725  0.125085  3.9e-05  0.9934  0.0
H  H33  1  0.19088058  0.04090782  0.59641802  1  0.123821  0.000143  0.095481  0.104253  7e-05  1.092092  0.0
H  H34  1  0.95069788  0.39700923  0.45758748  1  0.068079  2e-06  0.101433  0.100604  -2.3e-05  0.999037  0.0
H  H35  1  0.02306191  0.32828500  0.80896078  1  0.148952  0.000455  0.141337  0.110586  -0.000102  0.996554  0.0
H  H36  1  0.51678710  0.64640242  0.04359087  1  0.106904  -1.1e-05  0.095529  0.094463  -2.2e-05  1.062573  0.0
H  H37  1  0.46857210  0.03603435  0.68268144  1  0.071715  -7e-06  0.096995  0.090754  -2e-06  1.022521  0.0
H  H38  1  0.08202565  0.51703430  0.12129797  1  0.073512  -3.2e-05  0.098509  0.098346  -4.7e-05  1.020242  0.0
H  H39  1  0.82264442  0.66046957  0.10632761  1  0.089883  0.00016  0.10307  0.105435  2.3e-05  1.026416  0.0
H  H40  1  0.84799767  0.16173893  0.91735203  1  0.11546  0.001258  0.105201  0.105658  0.000546  1.015769  0.0
H  H41  1  0.00665794  0.12665679  0.78760771  1  0.22088  0.000616  0.136271  0.113832  -0.000135  1.05872  0.0
H  H42  1  0.06279716  0.55412301  0.74704806  1  0.111481  0.000763  0.118242  0.114052  9e-05  1.004898  0.001
H  H43  1  0.98327416  0.14654665  0.45641276  1  0.109222  -1.1e-05  0.095455  0.094157  -2.1e-05  1.062926  0.0
H  H44  1  0.67491317  0.88969980  0.97766548  1  0.042651  -1e-05  0.099058  0.097706  -1.5e-05  1.005657  0.0
H  H45  1  0.63735260  0.26610047  0.13455633  1  0.03976  -3.3e-05  0.104889  0.076884  -2.5e-05  1.000633  0.0
H  H46  1  0.29738700  0.27460967  0.48152735  1  0.068713  9.4e-05  0.100799  0.110857  2.1e-05  1.033209  0.0
H  H47  1  0.09987961  0.19191964  0.12327737  1  0.094129  0.000152  0.098838  0.106228  7e-05  1.05155  0.0
H  H48  1  0.13214222  0.54864697  0.39343682  1  0.080858  0.000653  0.102535  0.105775  0.000294  1.006238  0.0
H  H49  1  0.22593870  0.93604097  0.73364932  1  0.143994  0.000909  0.122377  0.126501  0.000331  1.037254  0.0
H  H50  1  0.25145636  0.88367889  0.45736281  1  0.074754  -1.1e-05  0.103404  0.070223  -9e-06  1.031475  0.0
H  H51  1  0.45115333  0.10290676  0.95768790  1  0.068677  2e-06  0.101412  0.100731  -2.3e-05  0.999034  0.0
H  H52  1  0.27400742  0.43600539  0.76632668  1  0.143583  0.000909  0.122288  0.126385  0.000331  1.037436  0.0
H  H53  1  0.38139716  0.90726717  0.54316073  1  0.04152  2.3e-05  0.102758  0.113451  3e-06  1.014057  0.0
H  H54  1  0.04943075  0.60309717  0.54255833  1  0.070992  2e-06  0.101376  0.100439  -2.4e-05  0.999051  0.0
H  H55  1  0.30917593  0.54085985  0.90356188  1  0.125187  0.000143  0.095544  0.104408  7e-05  1.092089  0.0
H  H56  1  0.86184161  0.02849094  0.81320270  1  0.127589  0.0006  0.114507  0.125906  0.000281  1.013176  0.0
H  H57  1  0.32063604  0.42573477  0.99850402  1  0.049296  -1.4e-05  0.10119  0.070223  -1.3e-05  0.990933  0.0
H  H58  1  0.99453128  0.67258517  0.40436505  1  0.119681  4.8e-05  0.100896  0.107353  2.9e-05  1.08613  0.0
H  H59  1  0.43677008  0.37131895  0.14984959  1  0.080899  0.000145  0.104535  0.123575  6.2e-05  0.997742  0.0
H  H60  1  0.97467540  0.54708039  0.94476105  1  0.07092  6e-06  0.097999  0.093667  5e-06  1.054223  0.0
H  H61  1  0.14772535  0.23600872  0.58143451  1  0.037641  -2.9e-05  0.105302  0.076708  -2.2e-05  1.007122  0.0
H  H62  1  0.86776176  0.45147281  0.60648770  1  0.079827  0.000654  0.102548  0.105824  0.000294  1.006118  0.0
H  H63  1  0.27122318  0.66992309  0.97116436  1  0.0638  1.6e-05  0.106238  0.082899  7e-06  0.9991  0.0
H  H64  1  0.14870058  0.88010867  0.28024147  1  0.076373  0.000215  0.097116  0.095098  -5e-06  1.043496  0.0
H  H65  1  0.98431627  0.79736139  0.80793189  1  0.085117  0.000154  0.101995  0.102153  4.1e-05  1.010692  0.0
H  H66  1  0.64736892  0.26415604  0.08142982  1  0.03562  -3e-05  0.105289  0.076529  -2.2e-05  1.006639  0.0
H  H67  1  0.27128969  0.67513833  0.42683651  1  0.036542  9e-06  0.103396  0.071661  2e-06  0.991533  0.0
H  H68  1  0.88323682  0.45874172  0.68999823  1  0.077835  -2.2e-05  0.10582  0.110854  -0.000131  1.037624  0.0
H  H69  1  0.39893677  0.69158988  0.37667462  1  0.057865  0.000157  0.099158  0.106625  7e-05  1.051064  0.0
H  H70  1  0.21350840  0.06116114  0.85069449  1  0.129894  9.2e-05  0.108815  0.115672  -0.000205  1.019642  0.0
H  H71  1  0.17760321  0.33849389  0.89355468  1  0.090391  0.000165  0.103155  0.105443  2.4e-05  1.02561  0.0
H  H72  1  0.48037693  0.85273322  0.81806744  1  0.155375  0.000655  0.11617  0.114123  0.000262  1.056149  0.0
H  H73  1  0.52375910  0.41726299  0.79730856  1  0.109749  -1.3e-05  0.109529  0.120466  -9.8e-05  1.036831  0.0
H  H74  1  0.50638809  0.37339029  0.28745874  1  0.219971  0.000617  0.136043  0.113888  -0.000135  1.057996  0.0
H  H75  1  0.61674672  0.95876718  0.81002126  1  0.07764  -2.2e-05  0.105846  0.110904  -0.000131  1.03741  0.0
H  H76  1  0.51571562  0.29734048  0.69209755  1  0.085297  0.000154  0.101802  0.102133  4.1e-05  1.010653  0.0
H  H77  1  0.73559944  0.84330674  0.70074557  1  0.096471  -4.9e-05  0.109979  0.116197  -0.000117  1.032174  0.0
H  H78  1  0.32206906  0.83840573  0.60643271  1  0.090834  0.000166  0.10306  0.10517  2.4e-05  1.025796  0.0
H  H79  1  0.35115269  0.37982360  0.21991531  1  0.080564  0.000217  0.096828  0.094485  -5e-06  1.043655  0.0
H  H80  1  0.01535958  0.20275198  0.19205484  1  0.084379  0.000154  0.101817  0.101952  4.1e-05  1.011033  0.0
H  H81  1  0.31831267  0.42449529  0.85890596  1  0.072097  0.000225  0.102416  0.102699  6.9e-05  1.015845  0.0
H  H82  1  0.17535231  0.61015054  0.47788266  1  0.047979  -1e-05  0.099187  0.098015  -1.5e-05  1.005394  0.0
H  H83  1  0.30010805  0.15197242  0.67690650  1  0.067884  1.9e-05  0.10281  0.103656  -1.7e-05  1.014782  0.0
H  H84  1  0.63819244  0.52846233  0.68683526  1  0.128507  0.000596  0.114444  0.125918  0.00028  1.013106  0.0
H  H85  1  0.72533937  0.73227230  0.28999793  1  0.134351  0.00078  0.118648  0.115705  0.000195  1.033058  0.001
H  H86  1  0.17806178  0.92583060  0.50140536  1  0.050446  -1.3e-05  0.101419  0.070326  -1.3e-05  0.990745  0.0
H  H87  1  0.36652228  0.76362594  0.44101238  1  0.053784  -1.6e-05  0.103627  0.075517  -1.4e-05  1.01088  0.0
H  H88  1  0.62317711  0.76117391  0.45928892  1  0.060764  2.2e-05  0.104612  0.071974  9e-06  0.998132  0.0
H  H89  1  0.22841503  0.17509767  0.07324076  1  0.03551  9e-06  0.103285  0.071518  2e-06  0.9917  0.0
H  H90  1  0.02440617  0.08276203  0.29728747  1  0.115657  -1.2e-05  0.109953  0.120939  -9.6e-05  1.037453  0.0
H  H91  1  0.01961515  0.35270320  0.68194415  1  0.155676  0.000654  0.1162  0.113955  0.000261  1.055987  0.0
H  H92  1  0.27494665  0.26777345  0.71022504  1  0.139184  0.00078  0.11844  0.115364  0.000196  1.033708  0.001
H  H93  1  0.12311880  0.73881816  0.95922645  1  0.061658  2.3e-05  0.104641  0.072505  9e-06  0.997702  0.0
H  H94  1  0.81837763  0.07538917  0.35891773  1  0.073092  0.000223  0.102562  0.102821  6.9e-05  1.015951  0.0
H  H95  1  0.76441191  0.34335718  0.79928074  1  0.095627  -5.1e-05  0.109926  0.116114  -0.00012  1.032285  0.0
H  H96  1  0.69055475  0.45885208  0.09610991  1  0.123625  0.000144  0.095612  0.10437  7e-05  1.09231  0.0
H  H97  1  0.52321033  0.17174805  0.30882685  1  0.153229  0.000457  0.141578  0.110721  -0.000101  0.997341  0.0
H  H98  1  0.03135150  0.53596570  0.81721673  1  0.069145  -7e-06  0.097164  0.09121  -2e-06  1.022421  0.0
H  H99  1  0.68219997  0.57498391  0.14092459  1  0.07419  0.000223  0.102614  0.10299  7e-05  1.015978  0.0
H  H100  1  0.76754434  0.37140105  0.90953208  1  0.112988  0.000288  0.099842  0.101051  5.6e-05  1.048668  0.0
H  H101  1  0.13291346  0.26345550  0.05902134  1  0.052037  -1.6e-05  0.10353  0.075373  -1.4e-05  1.011309  0.0
H  H102  1  0.49469872  0.82751247  0.90437363  1  0.117331  4.8e-05  0.100716  0.106978  2.9e-05  1.086327  0.0
H  H103  1  0.63347339  0.23643319  0.55903706  1  0.054497  -1.6e-05  0.103639  0.075707  -1.4e-05  1.010937  0.0
H  H104  1  0.69934225  0.84817537  0.32311632  1  0.070319  1.8e-05  0.102658  0.103533  -1.8e-05  1.015115  0.0
H  H105  1  0.87652663  0.26128527  0.04066391  1  0.062627  2.2e-05  0.104611  0.072326  9e-06  0.998822  0.0
H  H106  1  0.86256346  0.76626052  0.36546677  1  0.043433  -3.3e-05  0.104926  0.076943  -2.4e-05  1.000643  0.0
H  H107  1  0.43720854  0.05419664  0.75291866  1  0.111915  0.000764  0.11803  0.113868  9.1e-05  1.004963  0.001
H  H108  1  0.99364064  0.87320690  0.21243894  1  0.218113  0.000615  0.13649  0.11436  -0.000134  1.058534  0.0
H  H109  1  0.70259949  0.72545354  0.51848377  1  0.067906  9.4e-05  0.100964  0.111094  2e-05  1.033024  0.0
H  H110  1  0.65209255  0.66184219  0.58273774  1  0.11555  0.001276  0.104959  0.105376  0.000553  1.016553  0.0
H  H111  1  0.13716208  0.23388844  0.63454203  1  0.03799  -3.2e-05  0.105005  0.077002  -2.4e-05  1.000477  0.0
H  H112  1  0.01648346  0.85354747  0.54360193  1  0.107807  -1.1e-05  0.095281  0.094266  -2.1e-05  1.062665  0.0
H  H113  1  0.97628674  0.91724519  0.70272766  1  0.110927  -1.3e-05  0.109597  0.120546  -9.7e-05  1.037099  0.0
H  H114  1  0.58195743  0.98315000  0.62136994  1  0.076442  -3.2e-05  0.098479  0.098152  -4.8e-05  1.019677  0.0
H  H115  1  0.46753570  0.77413675  0.07537464  1  0.080804  -0.000146  0.105254  0.111121  -0.000315  1.004796  0.0
H  H116  1  0.23285259  0.62866160  0.09056082  1  0.116379  0.000288  0.099758  0.100965  5.6e-05  1.049103  0.0
H  H117  1  0.72893094  0.33040964  0.02863633  1  0.108695  1.5e-05  0.106347  0.08332  7e-06  0.998665  0.0
H  H118  1  0.71323875  0.43893353  0.35063722  1  0.128446  9.1e-05  0.108618  0.115387  -0.000206  1.019383  0.0
H  H119  1  0.23583085  0.65699950  0.20072752  1  0.091854  -4.9e-05  0.110052  0.11614  -0.000115  1.032212  0.0
H  H120  1  0.75161650  0.61614781  0.95735013  1  0.072356  -1.1e-05  0.103363  0.070356  -9e-06  1.03097  0.0
H  H121  1  0.26490784  0.15682473  0.29912793  1  0.098243  -4.9e-05  0.109856  0.116173  -0.000116  1.03154  0.0
H  H122  1  0.19995177  0.65189128  0.82297947  1  0.064264  1.9e-05  0.102769  0.103624  -1.8e-05  1.014827  0.0
H  H123  1  0.53217732  0.22567674  0.92460029  1  0.081576  -0.000145  0.105312  0.111448  -0.000314  1.004767  0.0
H  H124  1  0.77082615  0.83028082  0.47135937  1  0.111728  1.5e-05  0.106071  0.082855  7e-06  0.999346  0.0
H  H125  1  0.28665821  0.56110633  0.64935334  1  0.128855  9.2e-05  0.108771  0.115598  -0.000206  1.019326  0.0
H  H126  1  0.76075711  0.48649793  0.95424486  1  0.052594  0.000117  0.101846  0.113396  5.6e-05  1.032711  0.0
H  H127  1  0.41803118  0.01707833  0.37877833  1  0.072595  -3.2e-05  0.098263  0.098074  -4.8e-05  1.020458  0.0
H  H128  1  0.98167369  0.64802051  0.31817836  1  0.116762  0.000675  0.116317  0.114174  0.000263  1.055833  0.0
H  H129  1  0.91785345  0.48318290  0.87852456  1  0.07556  -3.2e-05  0.098676  0.098406  -4.8e-05  1.020513  0.0
H  H130  1  0.54919441  0.89687817  0.04236427  1  0.068836  2e-06  0.101366  0.100523  -2.3e-05  0.998754  0.0
H  H131  1  0.06288094  0.87137326  0.35026833  1  0.078433  0.000145  0.104525  0.123162  6.1e-05  0.998794  0.0
H  H132  1  0.48214281  0.35342911  0.95626226  1  0.086722  -1.1e-05  0.09541  0.094362  -2.1e-05  1.062266  0.0
H  H133  1  0.20263584  0.77438386  0.01851496  1  0.066045  9.2e-05  0.101011  0.111294  2e-05  1.032817  0.0
H  H134  1  0.42737752  0.43696712  0.63836731  1  0.054761  7.6e-05  0.106682  0.124899  3.9e-05  0.993381  0.0
H  H135  1  0.11658904  0.54140139  0.30990560  1  0.079261  -2.2e-05  0.105663  0.110761  -0.00013  1.037291  0.0
H  H136  1  0.77139489  0.82464989  0.92673679  1  0.03969  9e-06  0.103047  0.071227  2e-06  0.991914  0.0
H  H137  1  0.52537845  0.04705825  0.55513801  1  0.068823  6e-06  0.098258  0.094539  5e-06  1.054052  0.0
H  H138  1  0.50531050  0.17225142  0.09545890  1  0.116607  4.9e-05  0.100678  0.107076  3e-05  1.085565  0.0
H  H139  1  0.56332973  0.94574351  0.24728484  1  0.117028  0.000765  0.118396  0.114688  9.2e-05  1.004222  0.001
H  H140  1  0.52000166  0.14742916  0.18180719  1  0.158683  0.000653  0.116454  0.11417  0.000262  1.056412  0.0
H  H141  1  0.24767448  0.38364816  0.04260811  1  0.068342  -1.1e-05  0.103493  0.070542  -9e-06  1.03125  0.0
H  H142  1  0.92758151  0.06333873  0.13839785  1  0.053845  7.6e-05  0.106853  0.125218  3.9e-05  0.993433  0.0
H  H143  1  0.48363663  0.70261010  0.30792383  1  0.088876  0.000155  0.101831  0.101716  4.2e-05  1.010319  0.0
H  H144  1  0.79992428  0.34833584  0.17685444  1  0.067544  1.8e-05  0.102689  0.103744  -1.8e-05  1.01461  0.0
H  H145  1  0.34784532  0.33813641  0.41724981  1  0.114577  0.00127  0.104875  0.105247  0.000553  1.016512  0.0
H  H146  1  0.77520554  0.23247686  0.21015396  1  0.133065  0.000781  0.118479  0.115463  0.000195  1.033863  0.001
H  H147  1  0.32520216  0.11007637  0.02235082  1  0.03995  -1e-05  0.098836  0.097566  -1.5e-05  1.005156  0.0
H  H148  1  0.89954229  0.80812779  0.87667707  1  0.063759  0.000156  0.098903  0.106379  7e-05  1.051339  0.0
H  H149  1  0.86656051  0.73618587  0.94092453  1  0.053626  -1.6e-05  0.103461  0.07535  -1.4e-05  1.010717  0.0
H  H150  1  0.02543912  0.45300905  0.05508536  1  0.101583  6e-06  0.098121  0.094228  5e-06  1.054243  0.0
H  H151  1  0.56303138  0.62856337  0.85000486  1  0.076819  0.000146  0.104513  0.123149  6.2e-05  0.998212  0.0
H  H152  1  0.64893681  0.62015675  0.77996862  1  0.083447  0.000217  0.096983  0.094451  -5e-06  1.04393  0.0
H  H153  1  0.73925247  0.98656764  0.54573761  1  0.051847  0.000116  0.10184  0.1135  5.6e-05  1.032633  0.0
H  H154  1  0.18165120  0.92457894  0.64106423  1  0.07351  0.000224  0.102628  0.102901  6.9e-05  1.015919  0.0
H  H155  1  0.49350239  0.62667349  0.71247129  1  0.220483  0.000616  0.13621  0.113997  -0.000135  1.058406  0.0
H  H156  1  0.79734950  0.22550141  0.98156830  1  0.063132  9.3e-05  0.101011  0.111135  2e-05  1.033091  0.0
H  H157  1  0.72586612  0.56419084  0.23371436  1  0.141521  0.000911  0.12243  0.126733  0.000331  1.037018  0.0
H  H158  1  0.35246771  0.73603374  0.91841854  1  0.039322  -2.9e-05  0.105456  0.076822  -2.2e-05  1.007032  0.0
H  H159  1  0.72880086  0.32484847  0.57329460  1  0.036205  9e-06  0.103522  0.072019  2e-06  0.991319  0.0
H  H160  1  0.23881687  0.51366969  0.04576203  1  0.064665  0.000116  0.101777  0.113418  5.6e-05  1.033217  0.0
H  H161  1  0.36141207  0.47142290  0.31302322  1  0.130966  0.000599  0.114474  0.125729  0.000283  1.013766  0.0
H  H162  1  0.53108913  0.96420214  0.31741784  1  0.073076  -7e-06  0.096847  0.090472  -2e-06  1.022733  0.0
H  H163  1  0.80917826  0.95908654  0.40357611  1  0.124518  0.000143  0.095452  0.10427  7e-05  1.092213  0.0
H  H164  1  0.47622856  0.58280662  0.20263221  1  0.107461  -1.3e-05  0.109673  0.120633  -9.8e-05  1.037507  0.0
H  H165  1  0.13846408  0.97135583  0.18681668  1  0.126355  0.000597  0.114348  0.125401  0.000283  1.013479  0.0
H  H166  1  0.47692349  0.82825855  0.69105351  1  0.14922  0.000456  0.141296  0.110499  -0.000102  0.996676  0.0
H  H167  1  0.96744036  0.72588379  0.57545507  1  0.078397  -0.000145  0.105394  0.111556  -0.000315  1.005075  0.0
H  H168  1  0.82187652  0.07423494  0.49863091  1  0.052757  -1.4e-05  0.101373  0.070255  -1.3e-05  0.991194  0.0
H  H169  1  0.07267688  0.93699870  0.86163620  1  0.055566  7.6e-05  0.106709  0.125016  3.9e-05  0.993033  0.0
H  H170  1  0.82501873  0.38989170  0.52229164  1  0.04661  -1e-05  0.099068  0.097714  -1.5e-05  1.005151  0.0
H  H171  1  0.00532560  0.32750019  0.59558283  1  0.116053  4.8e-05  0.100815  0.10738  2.9e-05  1.08612  0.0
H  H172  1  0.11800141  0.40753116  0.95676099  1  0.063445  2.2e-05  0.102823  0.11381  3e-06  1.013478  0.0
H  H173  1  0.15206039  0.83756878  0.08287119  1  0.095111  0.001296  0.105003  0.105024  0.00056  1.016581  0.0
H  H174  1  0.61866765  0.09279839  0.45691317  1  0.041159  2.3e-05  0.102769  0.113561  3e-06  1.014018  0.0
H  H175  1  0.85193965  0.76401714  0.41856979  1  0.041404  -2.9e-05  0.105303  0.076783  -2.2e-05  1.006363  0.0
C  C176  1  0.52395969  0.08156055  0.85980688  1  1.479256  -0.00335  0.202796  0.567368  -0.005261  4.186242  -0.002
C  C177  1  0.24595636  0.23577543  0.06364021  1  0.424262  7e-06  -0.060352  -0.014659  -6e-06  3.909105  0.0
C  C178  1  0.59303328  0.18499332  0.41280007  1  -0.047408  0.000389  -0.082594  -0.065267  1.3e-05  3.984064  0.0
C  C179  1  0.09276232  0.31508560  0.91276243  1  -0.04609  0.000407  -0.082616  -0.065953  2.7e-05  3.984219  0.0
C  C180  1  0.84594854  0.11576497  0.52354777  1  0.377084  9e-06  -0.063964  -0.017846  -1.4e-05  3.912115  0.0
C  C181  1  0.30478764  0.44089430  0.63121283  1  0.019354  0.001215  -0.103052  -0.204372  0.000504  3.967604  0.001
C  C182  1  0.77495778  0.62583081  0.38294810  1  0.422263  -0.002605  0.086388  0.268481  -0.00298  4.054113  -0.002
C  C183  1  0.11937954  0.30001485  0.25167659  1  1.549925  -0.001137  0.213297  0.590681  -0.002069  4.180783  -0.001
C  C184  1  0.61839712  0.75060087  0.53728429  1  -0.040491  0.000598  -0.112028  -0.226086  0.000244  4.010107  0.0
C  C185  1  0.11862408  0.74901992  0.03729725  1  -0.063889  0.000587  -0.112672  -0.227499  0.000235  4.012559  0.0
C  C186  1  0.94138840  0.66503405  0.28803352  1  0.309285  0.003629  0.001387  -0.095533  0.001955  3.919731  0.002
C  C187  1  0.93863530  0.64661956  0.05171726  1  -0.011994  0.000614  -0.105912  -0.203748  0.000317  4.003104  0.0
C  C188  1  0.90967136  0.21489731  0.92627418  1  -0.025391  0.002547  -0.080764  -0.063492  0.001504  3.992329  0.002
C  C189  1  0.01645722  0.24593943  0.90122460  1  -0.026612  0.005132  -0.031157  -0.073384  0.002314  4.015375  0.004
C  C190  1  0.05829449  0.32261915  0.77849518  1  0.966303  -0.00093  0.147429  0.104229  -0.001582  3.880132  0.0
C  C191  1  0.04467867  0.10899929  0.38106651  1  -0.084736  0.010324  -0.035033  -0.079923  0.005292  4.012479  0.008
C  C192  1  0.22488928  0.37423297  0.61701347  1  0.421077  -0.002605  0.086073  0.268091  -0.002979  4.054902  -0.002
C  C193  1  0.37569321  0.30468772  0.00686850  1  0.025276  1e-06  -0.016086  0.031845  3e-06  3.953179  0.0
C  C194  1  0.83575792  0.97465339  0.56693464  1  0.001173  0.000858  -0.11117  -0.228495  0.000322  3.994139  0.001
C  C195  1  0.15403203  0.88428365  0.47649243  1  0.379265  9e-06  -0.064227  -0.018327  -1.4e-05  3.911522  0.0
C  C196  1  0.15277635  0.83348617  0.34029672  1  -0.003579  0.000889  -0.105803  -0.202574  0.000385  3.98902  0.001
C  C197  1  0.77364816  0.49033212  0.36250470  1  -0.064034  -0.001596  -0.076069  -0.052661  -0.002015  3.949717  -0.001
C  C198  1  0.60294250  0.42640177  0.77395276  1  -0.010331  0.000134  -0.082014  -0.131483  -8.8e-05  3.941764  0.0
C  C199  1  0.43276755  0.01345038  0.87069933  1  -0.038867  0.003241  -0.033018  -0.074654  0.001481  4.02434  0.002
C  C200  1  0.04641104  0.17987166  0.35537105  1  1.532863  -0.003324  0.215154  0.590252  -0.004488  4.175445  -0.002
C  C201  1  0.78715130  0.00661817  0.25326932  1  0.248218  0.003255  -0.003875  -0.114344  0.001579  3.907787  0.002
C  C202  1  0.67832110  0.83351277  0.38693309  1  -0.050969  2e-06  -0.018091  0.02275  -1e-06  3.956801  0.0
C  C203  1  0.15929334  0.60356871  0.25504646  1  0.266756  0.000436  0.093863  0.155643  0.000172  4.021481  0.0
C  C204  1  0.39045749  0.73913117  0.31706436  1  -0.034175  -0.000549  -0.084621  -0.062105  -0.001051  4.001824  0.0
C  C205  1  0.05934349  0.33542710  0.71209436  1  0.29538  0.00361  0.001769  -0.096855  0.001944  3.919969  0.002
C  C206  1  0.21345865  0.99329280  0.74685976  1  0.252846  0.003257  -0.003425  -0.113624  0.00158  3.905746  0.002
C  C207  1  0.69530819  0.94914665  0.78651275  1  -0.020154  0.000103  -0.087995  -0.149327  -7e-05  3.976612  0.0
C  C208  1  0.74646371  0.26417736  0.56369052  1  0.414851  7e-06  -0.060836  -0.015522  -5e-06  3.909007  0.0
C  C209  1  0.82284860  0.70802876  0.78931934  1  -0.000203  0.010816  -0.033603  -0.06998  0.005704  3.995407  0.008
C  C210  1  0.48349590  0.74596905  0.59882693  1  0.030044  0.005122  -0.030563  -0.072577  0.00232  4.015106  0.004
C  C211  1  0.99057738  0.44771185  0.61314664  1  -0.039621  -0.001505  -0.087822  -0.077059  -0.001884  4.014537  -0.001
C  C212  1  0.33311158  0.51107957  0.28806019  1  -0.051482  0.000147  -0.08171  -0.143476  -1.7e-05  3.967258  0.0
C  C213  1  0.16697170  0.01095451  0.21179950  1  -0.051308  0.000152  -0.081844  -0.143594  -1.2e-05  3.967908  0.0
C  C214  1  0.99113631  0.53448134  0.88058269  1  -0.048486  -1.3e-05  -0.087559  -0.065838  -1.5e-05  3.998755  0.0
C  C215  1  0.89097236  0.76085002  0.81699152  1  -0.003178  -0.00059  -0.084597  -0.063035  -0.001067  4.00171  0.0
C  C216  1  0.72498137  0.12582734  0.11697206  1  0.420937  -0.002666  0.086168  0.268215  -0.003048  4.054626  -0.002
C  C217  1  0.69509509  0.55914440  0.36875978  1  0.017047  0.001216  -0.103379  -0.204968  0.000505  3.96789  0.001
C  C218  1  0.06169875  0.35285614  0.94815759  1  -0.005632  0.000649  -0.10581  -0.204131  0.000334  4.002675  0.0
C  C219  1  0.55849965  0.17745888  0.27836797  1  0.948222  -0.000868  0.146785  0.103398  -0.001573  3.880984  0.0
C  C220  1  0.22626187  0.50971941  0.63746681  1  -0.066599  -0.001596  -0.076796  -0.053598  -0.002015  3.950028  -0.001
C  C221  1  0.62351517  0.69511874  0.99303590  1  0.039072  1e-06  -0.015658  0.032008  3e-06  3.953796  0.0
C  C222  1  0.54638747  0.32006603  0.85538874  1  1.532259  -0.003425  0.215603  0.590911  -0.004611  4.174934  -0.002
C  C223  1  0.45427326  0.67971308  0.14461870  1  1.540388  -0.003433  0.214169  0.589159  -0.004581  4.175598  -0.002
C  C224  1  0.34125050  0.10328794  0.24481466  1  0.269216  0.000444  0.093578  0.155513  0.000178  4.022584  0.0
C  C225  1  0.19527495  0.94092843  0.86879323  1  0.019633  0.001213  -0.103174  -0.204225  0.000503  3.96736  0.001
C  C226  1  0.44893002  0.29966618  0.97084784  1  0.010281  -2e-05  -0.088884  -0.123717  -1.9e-05  3.972964  0.0
C  C227  1  0.58541190  0.56077444  0.12010724  1  -0.060998  -0.000814  -0.086319  -0.074237  -0.001237  4.009546  0.0
C  C228  1  0.90459536  0.90758050  0.22511612  1  0.936742  -0.005959  0.142228  0.097441  -0.007126  3.887958  -0.003
C  C229  1  0.88058442  0.70008452  0.74827106  1  1.546651  -0.0011  0.213636  0.591357  -0.002037  4.179325  0.0
C  C230  1  0.32136409  0.16657552  0.61309678  1  -0.053873  2e-06  -0.017895  0.023399  -1e-06  3.958324  0.0
C  C231  1  0.93257089  0.48665557  0.37062511  1  0.030848  0.003225  -0.033658  -0.076342  0.001486  4.025063  0.002
C  C232  1  0.88590744  0.36317780  0.07849109  1  -0.029257  2e-05  -0.012263  0.036752  9e-06  3.942948  0.0
C  C233  1  0.59561448  0.40775925  0.27486070  1  0.935944  -0.005971  0.142497  0.097383  -0.007133  3.887626  -0.003
C  C234  1  0.44061455  0.83544873  0.78791831  1  0.293565  0.003621  0.001722  -0.097388  0.001949  3.921051  0.002
C  C235  1  0.09081949  0.00369170  0.59550262  1  -0.019569  0.001491  -0.110444  -0.210277  0.000687  4.0016  0.001
C  C236  1  0.84151995  0.76754805  0.85580260  1  -0.020235  0.00112  -0.11536  -0.230746  0.000506  4.025333  0.001
C  C237  1  0.40965133  0.28506174  0.42621582  1  -0.081826  0.002564  -0.08044  -0.063508  0.001498  3.992653  0.002
C  C238  1  0.93229661  0.62171282  0.39287983  1  -0.0379  0.000869  -0.117842  -0.239718  0.000237  4.030101  0.001
C  C239  1  0.70192302  0.66163075  0.80131251  1  -0.061983  -0.000267  -0.087472  -0.066657  -0.000732  3.988327  0.0
C  C240  1  0.84700830  0.16659514  0.65985127  1  4.5e-05  0.000887  -0.105793  -0.203011  0.000385  3.988127  0.001
C  C241  1  0.06857608  0.65958599  0.52865684  1  -0.036952  -7e-06  -0.08935  -0.071704  -1.8e-05  4.00749  0.0
C  C242  1  0.14012309  0.66374718  0.49242304  1  -0.067521  -1.2e-05  -0.093374  -0.136824  -1.1e-05  4.007812  0.0
C  C243  1  0.40918059  0.50362058  0.90447850  1  -0.023361  0.0015  -0.110436  -0.21045  0.00069  4.001124  0.001
C  C244  1  0.56211847  0.14735694  0.44824151  1  0.021915  0.000647  -0.106024  -0.204647  0.000333  4.003061  0.0
C  C245  1  0.14910874  0.67590705  0.96154706  1  0.414184  6e-06  -0.059895  -0.019094  4e-06  3.914055  0.0
C  C246  1  0.35111583  0.17596155  0.53836736  1  0.369834  7e-06  -0.060024  -0.01973  4e-06  3.914203  0.0
C  C247  1  0.65299709  0.66650211  0.84010235  1  0.000783  0.000891  -0.106243  -0.203151  0.000386  3.989062  0.001
C  C248  1  0.47680685  0.22789410  0.95297278  1  -0.121019  -3.3e-05  -0.084813  -0.062065  -8.1e-05  3.972991  0.0
C  C249  1  0.11418651  0.63695190  0.92135322  1  -0.029377  2e-05  -0.013022  0.035786  9e-06  3.944826  0.0
C  C250  1  0.00931801  0.55238110  0.38679429  1  -0.110331  -0.00148  -0.087469  -0.076456  -0.001887  4.014296  -0.001
C  C251  1  0.76037966  0.88525849  0.72486244  1  0.050793  -0.000272  -0.085901  -0.144245  -0.000411  3.957801  0.0
C  C252  1  0.60906180  0.26086436  0.68301479  1  -0.003168  -0.000577  -0.08462  -0.063507  -0.001055  4.002265  0.0
C  C253  1  0.71644342  0.26467163  0.11020886  1  0.429567  -1e-06  -0.06131  -0.015203  -3e-05  3.88096  0.0
C  C254  1  0.59063719  0.49612696  0.09531665  1  -0.02652  0.001497  -0.111186  -0.210856  0.00069  4.002771  0.001
C  C255  1  0.05006062  0.79977750  0.52909151  1  -0.169882  -2e-05  -0.088846  -0.124291  -1.9e-05  3.974364  0.0
C  C256  1  0.66421281  0.47456726  0.93305800  1  0.001303  0.000864  -0.111087  -0.228162  0.000324  3.994745  0.001
C  C257  1  0.59031893  0.71493554  0.57378694  1  -0.082125  0.00257  -0.080622  -0.063846  0.001504  3.992391  0.002
C  C258  1  0.04166582  0.67995080  0.02613987  1  0.417751  0.000788  0.083428  0.258815  0.000385  4.056501  0.0
C  C259  1  0.55427910  0.93623586  0.34657098  1  -0.092571  -1e-05  -0.090387  -0.077896  -2e-05  4.016866  0.0
C  C260  1  0.41486163  0.43889553  0.87976223  1  -0.063823  -0.000828  -0.086539  -0.07402  -0.001247  4.008079  0.0
C  C261  1  0.02275529  0.72804949  0.54707546  1  0.023046  -3.2e-05  -0.084134  -0.061354  -8.1e-05  3.972999  0.0
C  C262  1  0.20167665  0.83851542  0.30151022  1  -0.054152  -0.000262  -0.087788  -0.06766  -0.000732  3.988683  0.0
C  C263  1  0.65906681  0.89674960  0.75506809  1  0.276691  0.000441  0.093706  0.155632  0.000176  4.019514  0.0
C  C264  1  0.44167767  0.82261657  0.72151845  1  0.966412  -0.000931  0.147648  0.104188  -0.001588  3.880378  0.0
C  C265  1  0.45579457  0.60881806  0.11891851  1  -0.086656  0.010355  -0.035599  -0.080833  0.005306  4.013895  0.008
C  C266  1  0.38158501  0.24944192  0.46273337  1  -0.040757  0.000597  -0.112045  -0.226239  0.000243  4.010237  0.0
C  C267  1  0.85135706  0.37072137  0.15016066  1  0.009401  1.2e-05  -0.083333  -0.114243  -1.2e-05  3.972513  0.0
C  C268  1  0.61959495  0.20013746  0.75172485  1  1.544426  -0.001071  0.213676  0.591181  -0.002022  4.179932  0.0
C  C269  1  0.65419996  0.61558865  0.97647982  1  0.382549  9e-06  -0.064325  -0.017982  -1.4e-05  3.911715  0.0
C  C270  1  0.67726590  0.20806397  0.71066996  1  0.001667  0.010809  -0.033355  -0.069645  0.005702  3.995346  0.008
C  C271  1  0.97846986  0.42941621  0.08199670  1  -0.074813  7e-06  -0.098458  -0.145167  4e-06  4.003769  0.0
C  C272  1  0.55031136  0.70014844  0.02905524  1  -0.030036  -2e-05  -0.089495  -0.12444  -2e-05  3.974954  0.0
C  C273  1  0.40428589  0.59233370  0.72509353  1  0.935867  -0.005979  0.142097  0.096912  -0.007136  3.887683  -0.003
C  C274  1  0.15805433  0.23246146  0.14414325  1  -0.054355  0.001123  -0.11529  -0.230762  0.000506  4.025687  0.001
C  C275  1  0.28654082  0.49326359  0.75313647  1  0.253338  0.003254  -0.003385  -0.113352  0.001579  3.905899  0.002
C  C276  1  0.84093441  0.39675705  0.74495587  1  0.276941  0.000442  0.093663  0.155899  0.000177  4.019711  0.0
C  C277  1  0.88150260  0.25064832  0.96275379  1  -0.040404  0.00059  -0.112162  -0.226672  0.000239  4.010995  0.0
C  C278  1  0.35997104  0.16365849  0.00772814  1  -0.064642  -1.2e-05  -0.092923  -0.136243  -1.1e-05  4.008708  0.0
C  C279  1  0.35146532  0.12950759  0.65021578  1  0.034659  1.2e-05  -0.082981  -0.113345  -1.2e-05  3.972309  0.0
C  C280  1  0.54112322  0.81961424  0.52620978  1  0.429217  0.000746  0.082984  0.257954  0.000362  4.055063  0.0
C  C281  1  0.34678382  0.33343097  0.15978608  1  -0.003836  0.000891  -0.105954  -0.203435  0.000387  3.988595  0.001
C  C282  1  0.56601836  0.47781886  0.74229130  1  0.251001  0.000394  0.095256  0.1585  0.000124  4.017246  0.0
C  C283  1  0.78317491  0.76463164  0.38974601  1  0.419137  -0.0  -0.061433  -0.015363  -2.8e-05  3.881877  0.0
C  C284  1  0.80470546  0.44913100  0.71351240  1  -0.019365  0.000103  -0.088167  -0.149746  -6.9e-05  3.976968  0.0
C  C285  1  0.54976170  0.29178087  0.36229132  1  1.534265  0.000949  0.215202  0.589422  0.000281  4.188941  0.003
C  C286  1  0.66826590  0.40954046  0.90794957  1  -0.04779  -0.001224  -0.085826  -0.067717  -0.001664  3.987492  -0.001
C  C287  1  0.54463520  0.39094878  0.88106269  1  -0.084074  0.010351  -0.035379  -0.080212  0.005303  4.013167  0.008
C  C288  1  0.95025897  0.79115849  0.13771916  1  1.53461  0.000928  0.215057  0.589777  0.000258  4.189221  0.003
C  C289  1  0.56767124  0.12152892  0.10705423  1  -0.033116  0.000887  -0.117287  -0.23842  0.000243  4.029913  0.001
C  C290  1  0.64880779  0.82411216  0.46167291  1  0.365938  7e-06  -0.059539  -0.018321  4e-06  3.913771  0.0
C  C291  1  0.86010581  0.33629739  0.50772362  1  -0.068465  -1.2e-05  -0.093117  -0.136235  -1.1e-05  4.007763  0.0
C  C292  1  0.16828557  0.09043592  0.40796684  1  -0.045604  -0.00119  -0.085713  -0.067339  -0.001627  3.98757  -0.001
C  C293  1  0.40696888  0.81500689  0.58723833  1  -0.049822  0.000393  -0.082916  -0.065991  1.6e-05  3.984275  0.0
C  C294  1  0.16900468  0.73562517  0.47431872  1  -0.00645  -8e-06  -0.016744  0.028573  -6e-06  3.95555  0.0
C  C295  1  0.82129999  0.33357604  0.11305247  1  -0.056064  2e-06  -0.018064  0.023597  -1e-06  3.956878  0.0
C  C296  1  0.43247658  0.87838668  0.89290842  1  -0.033199  0.000865  -0.117351  -0.238683  0.000236  4.03005  0.001
C  C297  1  0.26053289  0.61500539  0.22481904  1  0.050289  -0.000248  -0.08582  -0.143496  -0.000392  3.957349  0.0
C  C298  1  0.00882405  0.46570378  0.11925185  1  -0.043816  -1.3e-05  -0.087771  -0.066329  -1.5e-05  3.998829  0.0
C  C299  1  0.12327327  0.80476666  0.49307154  1  0.040265  1e-06  -0.016496  0.032131  3e-06  3.953482  0.0
C  C300  1  0.75362704  0.76397679  0.93630727  1  0.41274  7e-06  -0.060197  -0.013843  -6e-06  3.907987  0.0
C  C301  1  0.47845867  0.07071462  0.58204584  1  -0.041701  6e-06  -0.098204  -0.144992  4e-06  4.004174  0.0
C  C302  1  0.31562533  0.05203105  0.75653403  1  0.399314  -0.000388  -0.001613  -0.021207  -0.001321  3.999237  0.0
C  C303  1  0.03474513  0.97721405  0.43093079  1  0.45306  -0.001797  0.085709  0.268845  -0.002078  4.046157  -0.001
C  C304  1  0.51647905  0.25400781  0.40118011  1  0.029271  0.005125  -0.030467  -0.072357  0.002322  4.015132  0.004
C  C305  1  0.22273482  0.78015140  0.36770390  1  0.432579  -0.001221  0.082222  0.258296  -0.001419  4.047949  -0.001
C  C306  1  0.34102984  0.73229738  0.35586322  1  -0.081832  0.001117  -0.115885  -0.231363  0.000505  4.026432  0.001
C  C307  1  0.89707998  0.92638668  0.72607997  1  -0.049689  0.00014  -0.082237  -0.131765  -8.7e-05  3.941949  0.0
C  C308  1  0.97616254  0.58154177  0.64020728  1  1.479665  -0.003372  0.202089  0.566953  -0.005296  4.186064  -0.002
C  C309  1  0.33552642  0.52542067  0.06691642  1  -0.012715  0.000855  -0.111533  -0.229253  0.00032  3.995772  0.001
C  C310  1  0.81554457  0.44821325  0.25659094  1  0.420752  -0.000429  -0.002497  -0.022049  -0.00132  4.00027  0.0
C  C311  1  0.66666307  0.48894511  0.71184589  1  0.011475  0.000147  -0.081673  -0.143339  -1.4e-05  3.967112  0.0
C  C312  1  0.02158312  0.57072049  0.91784851  1  -0.040757  6e-06  -0.097809  -0.143846  4e-06  4.002223  0.0
C  C313  1  0.68489764  0.94789568  0.24361813  1  0.414084  -0.000445  -0.001577  -0.021306  -0.001331  4.000498  0.0
C  C314  1  0.98370472  0.75323408  0.09886301  1  0.030236  0.005074  -0.030731  -0.072586  0.002291  4.01427  0.004
C  C315  1  0.65842963  0.26759138  0.64419822  1  -0.045672  0.001121  -0.115408  -0.230348  0.000506  4.025799  0.001
C  C316  1  0.18361878  0.29309979  0.72624641  1  0.37622  -0.000449  -0.00094  -0.033234  -0.001177  3.996995  0.0
C  C317  1  0.83114137  0.26440306  0.52580238  1  -0.006285  -8e-06  -0.016834  0.028259  -6e-06  3.956056  0.0
C  C318  1  0.93400715  0.97782291  0.75774330  1  0.290082  0.000387  0.095354  0.158583  0.000122  4.017283  0.0
C  C319  1  0.43383560  0.52225599  0.25763669  1  0.281609  0.000401  0.094986  0.158832  0.000141  4.017428  0.0
C  C320  1  0.94533423  0.43629996  0.15345089  1  -0.05919  -1e-05  -0.090362  -0.07713  -2e-05  4.01522  0.0
C  C321  1  0.79818365  0.16169949  0.69865150  1  -0.065257  -0.000255  -0.08764  -0.066905  -0.000723  3.988498  0.0
C  C322  1  0.43156212  0.15943848  0.97150213  1  -0.035283  -7e-06  -0.088658  -0.071569  -1.7e-05  4.008236  0.0
C  C323  1  0.73962932  0.38528652  0.77516429  1  0.050214  -0.000272  -0.085954  -0.144185  -0.000412  3.957928  0.0
C  C324  1  0.93153489  0.34050058  0.47147097  1  -0.032136  -7e-06  -0.088772  -0.071335  -1.7e-05  4.007817  0.0
C  C325  1  0.16421054  0.02541740  0.43308283  1  0.000398  0.000853  -0.111455  -0.229312  0.00032  3.995123  0.001
C  C326  1  0.38596432  0.13696489  0.57853796  1  -0.031547  2e-05  -0.012579  0.037003  9e-06  3.943803  0.0
C  C327  1  0.46480832  0.47715663  0.06894787  1  0.444926  -0.001812  0.086162  0.269856  -0.002094  4.047499  -0.001
C  C328  1  0.10873675  0.23921609  0.18296682  1  -0.003859  -0.00059  -0.084686  -0.062998  -0.001068  4.001916  0.0
C  C329  1  0.55968457  0.16470140  0.21196508  1  0.278141  0.003639  0.001092  -0.09692  0.001952  3.919489  0.002
C  C330  1  0.49110263  0.96571173  0.38080122  1  -0.04467  -1.3e-05  -0.087737  -0.065839  -1.5e-05  3.999761  0.0
C  C331  1  0.50879825  0.03448276  0.61931149  1  -0.045732  -1.3e-05  -0.087608  -0.065752  -1.5e-05  3.998368  0.0
C  C332  1  0.08509809  0.93897861  0.62021782  1  -0.067269  -0.000813  -0.086801  -0.074155  -0.001232  4.008561  0.0
C  C333  1  0.56846068  0.84035169  0.02850590  1  -0.029169  -8e-06  -0.088691  -0.071525  -1.8e-05  4.008058  0.0
C  C334  1  0.14858164  0.62945557  0.84967326  1  0.036153  1.2e-05  -0.08302  -0.113563  -1.2e-05  3.972551  0.0
C  C335  1  0.05453137  0.56390907  0.84637685  1  -0.085774  -1e-05  -0.09177  -0.079623  -2.1e-05  4.016512  0.0
C  C336  1  0.97715452  0.27205281  0.45299588  1  -0.120744  -3.3e-05  -0.084497  -0.061567  -8e-05  3.972661  0.0
C  C337  1  0.28353390  0.73546390  0.88962171  1  0.422373  -0.0  -0.061458  -0.015435  -2.8e-05  3.883123  0.0
C  C338  1  0.44544103  0.06395220  0.65351803  1  -0.087667  -1e-05  -0.091197  -0.078702  -2.1e-05  4.016339  0.0
C  C339  1  0.50950692  0.94773680  0.88685778  1  -0.039947  -0.001494  -0.087884  -0.07765  -0.001873  4.014372  -0.001
C  C340  1  0.64813038  0.87062387  0.34982961  1  0.037992  1.2e-05  -0.083243  -0.113268  -1.2e-05  3.972284  0.0
C  C341  1  0.49084731  0.05218583  0.11325463  1  -0.107232  -0.001529  -0.087537  -0.077104  -0.001937  4.013623  -0.001
C  C342  1  0.34490564  0.38424523  0.02341677  1  0.384459  9e-06  -0.063869  -0.017599  -1.4e-05  3.910538  0.0
C  C343  1  0.81667827  0.70706497  0.27392922  1  0.400144  -0.00041  -0.000687  -0.034137  -0.001143  3.996351  0.0
C  C344  1  0.32246473  0.79208384  0.28946250  1  0.037288  0.010815  -0.033608  -0.070515  0.005712  3.995619  0.008
C  C345  1  0.06756157  0.37836438  0.60707319  1  -0.033102  0.000867  -0.117471  -0.239408  0.000237  4.030727  0.001
C  C346  1  0.06735331  0.51342046  0.62932616  1  -0.038996  0.003246  -0.033086  -0.075491  0.001483  4.024878  0.002
C  C347  1  0.24006146  0.11481172  0.27504467  1  0.05237  -0.000271  -0.085161  -0.14302  -0.000411  3.957443  0.0
C  C348  1  0.72302053  0.71973122  0.86757772  1  0.377081  -0.00123  0.081652  0.258289  -0.001432  4.048629  -0.001
C  C349  1  0.56767437  0.98661521  0.12955389  1  0.026452  0.003227  -0.033789  -0.077233  0.001477  4.023776  0.002
C  C350  1  0.83166444  0.90963137  0.59204374  1  -0.044903  -0.001206  -0.085614  -0.067192  -0.001643  3.987036  -0.001
C  C351  1  0.71336049  0.50690404  0.24688243  1  0.248667  0.003258  -0.003357  -0.113514  0.00158  3.907437  0.002
C  C352  1  0.27385569  0.00975659  0.86256434  1  -0.068345  -0.001586  -0.077059  -0.054309  -0.002005  3.950384  -0.001
C  C353  1  0.90750136  0.68411474  0.08719347  1  -0.045076  0.000427  -0.082427  -0.066207  4.9e-05  3.985345  0.0
C  C354  1  0.80498383  0.05929640  0.13128923  1  0.016478  0.001228  -0.103168  -0.205183  0.000509  3.967985  0.001
C  C355  1  0.18439970  0.55199056  0.74345324  1  0.417219  -0.000431  -0.002016  -0.021824  -0.00132  3.999124  0.0
C  C356  1  0.52286140  0.77191413  0.04699158  1  -0.122768  -3.3e-05  -0.084523  -0.061253  -8e-05  3.973193  0.0
C  C357  1  0.30497831  0.05083196  0.21340412  1  0.046161  0.000103  -0.088503  -0.149994  -7.1e-05  3.97707  0.0
C  C358  1  0.47633598  0.91849570  0.14043307  1  1.484896  -0.003621  0.202593  0.568181  -0.005562  4.183053  -0.002
C  C359  1  0.85094807  0.32422323  0.03831114  1  0.368174  7e-06  -0.060057  -0.019161  4e-06  3.915055  0.0
C  C360  1  0.17872775  0.66656415  0.88678756  1  -0.054097  2e-06  -0.017706  0.02404  -1e-06  3.958336  0.0
C  C361  1  0.31630505  0.79313358  0.77376588  1  0.376863  -0.000446  -0.001124  -0.03352  -0.001177  3.998109  0.0
C  C362  1  0.25356562  0.73581585  0.43641444  1  0.415056  7e-06  -0.060247  -0.014602  -6e-06  3.907631  0.0
C  C363  1  0.45019678  0.70816857  0.63769954  1  1.534406  0.000943  0.215249  0.589687  0.000276  4.188785  0.003
C  C364  1  0.95528905  0.89103708  0.61892809  1  -0.085091  0.010336  -0.035172  -0.080308  0.005297  4.01313  0.008
C  C365  1  0.06644651  0.02210788  0.24227163  1  0.253036  0.000394  0.095612  0.159474  0.000123  4.019244  0.0
C  C366  1  0.39704657  0.57373902  0.22599616  1  -0.008134  0.000127  -0.082281  -0.132004  -9.4e-05  3.94245  0.0
C  C367  1  0.04984036  0.20806695  0.86236965  1  1.532389  0.001005  0.215476  0.590011  0.000326  4.188349  0.003
C  C368  1  0.29800303  0.33835835  0.19859007  1  -0.057445  -0.000265  -0.087463  -0.066869  -0.000732  3.988266  0.0
C  C369  1  0.10345452  0.07362053  0.27389767  1  -0.010784  0.000137  -0.082775  -0.132976  -8.5e-05  3.943853  0.0
C  C370  1  0.52151913  0.92942678  0.41804995  1  -0.076791  7e-06  -0.09823  -0.14562  5e-06  4.004465  0.0
C  C371  1  0.19524446  0.55103079  0.28642332  1  0.047271  0.000113  -0.088136  -0.149662  -6e-05  3.976283  0.0
C  C372  1  0.27513721  0.87425570  0.88296582  1  0.42184  -0.002596  0.086014  0.267467  -0.002969  4.055061  -0.002
C  C373  1  0.87670584  0.19529189  0.50699419  1  0.039637  1e-06  -0.01612  0.032535  3e-06  3.95343  0.0
C  C374  1  0.02377425  0.41853310  0.35974568  1  1.480735  -0.003382  0.202031  0.566815  -0.005304  4.186096  -0.002
C  C375  1  0.94161636  0.67754150  0.22160865  1  0.951106  -0.000729  0.146689  0.10385  -0.001418  3.88136  0.0
C  C376  1  0.09043497  0.78445765  0.07385473  1  -0.031256  0.00259  -0.080294  -0.062851  0.001532  3.993355  0.002
C  C377  1  0.90921106  0.99631841  0.40449741  1  -0.019727  0.001486  -0.110502  -0.210444  0.000685  4.00164  0.001
C  C378  1  0.43789788  0.85268644  0.55181334  1  0.020627  0.000651  -0.105593  -0.203525  0.000335  4.002573  0.0
C  C379  1  0.45888376  0.18045247  0.47383652  1  0.427789  0.00074  0.083288  0.258818  0.000359  4.054481  0.0
C  C380  1  0.94981885  0.20030846  0.47095743  1  -0.025924  -2e-05  -0.088965  -0.12412  -1.9e-05  3.973928  0.0
C  C381  1  0.68389011  0.20707139  0.22614396  1  0.391957  -0.000448  -0.000953  -0.033893  -0.001172  3.997799  0.0
C  C382  1  0.96526310  0.02282758  0.56908365  1  0.452774  -0.001812  0.085395  0.268177  -0.002094  4.04708  -0.001
C  C383  1  0.33192924  0.59039732  0.09206791  1  -0.042342  -0.001207  -0.085786  -0.067096  -0.001639  3.987724  -0.001
C  C384  1  0.09580753  0.09233804  0.77495009  1  0.934748  -0.005995  0.142579  0.097333  -0.007159  3.887143  -0.003
C  C385  1  0.83337057  0.98896344  0.78818795  1  0.010872  0.000146  -0.082046  -0.143803  -1.4e-05  3.967551  0.0
C  C386  1  0.61389138  0.86313274  0.42151574  1  -0.029885  2e-05  -0.012546  0.03727  9e-06  3.942819  0.0
C  C387  1  0.77694134  0.21982488  0.63240040  1  0.376055  -0.001218  0.081596  0.258111  -0.001418  4.049036  -0.001
C  C388  1  0.95357642  0.82014545  0.64459948  1  1.532184  -0.00337  0.215366  0.590607  -0.004541  4.174961  -0.002
C  C389  1  0.33051718  0.23556297  0.02573410  1  -0.009176  -8e-06  -0.016968  0.028395  -6e-06  3.956263  0.0
C  C390  1  0.91491061  0.06102275  0.37977588  1  -0.066525  -0.000801  -0.086871  -0.074292  -0.00122  4.008333  0.0
C  C391  1  0.63993497  0.83612759  0.99226164  1  -0.061934  -1.2e-05  -0.093304  -0.136311  -1.1e-05  4.008023  0.0
C  C392  1  0.53474367  0.52273384  0.93090714  1  0.453209  -0.001829  0.08566  0.268677  -0.002115  4.046407  -0.001
C  C393  1  0.38038105  0.79997477  0.24842172  1  1.549056  -0.001184  0.213313  0.591001  -0.002113  4.179817  -0.001
C  C394  1  0.27660633  0.28020594  0.13233853  1  0.379341  -0.001228  0.081762  0.258176  -0.00143  4.049037  -0.001
C  C395  1  0.66901136  0.76422017  0.97420776  1  -0.005235  -9e-06  -0.01671  0.028548  -7e-06  3.955029  0.0
C  C396  1  0.17704097  0.29201868  0.21061819  1  0.000899  0.010815  -0.033301  -0.069516  0.005702  3.994991  0.008
C  C397  1  0.21650932  0.23544089  0.61025377  1  0.427967  -0.0  -0.061689  -0.015912  -2.8e-05  3.883762  0.0
C  C398  1  0.72658875  0.99047528  0.13769584  1  -0.067227  -0.001656  -0.0768  -0.052538  -0.002077  3.950493  -0.001
C  C399  1  0.95861302  0.31974660  0.97378861  1  0.435441  0.000761  0.083373  0.258744  0.000371  4.055962  0.0
N  N400  1  0.02081850  0.64641384  0.25459305  1  -1.261233  0.002555  -0.223084  0.010432  0.001032  3.789463  0.002
N  N401  1  0.18205676  0.28562816  0.76764119  1  -1.22212  0.057605  -0.34322  -0.299549  0.031231  3.584379  0.047
N  N402  1  0.47988978  0.14605726  0.24534587  1  -1.262226  0.002513  -0.223399  0.011242  0.001006  3.787405  0.002
N  N403  1  0.57388327  0.48076459  0.25903418  1  -1.268444  0.001098  -0.228048  0.009335  6.7e-05  3.792562  0.001
N  N404  1  0.92644992  0.98057466  0.24096190  1  -1.242121  0.001094  -0.22808  0.008833  7.3e-05  3.79491  0.001
N  N405  1  0.74070306  0.38702342  0.27393598  1  -1.217555  0.057595  -0.350873  -0.315915  0.031358  3.619696  0.047
N  N406  1  0.97960443  0.35402103  0.74549182  1  -1.259587  0.002512  -0.223503  0.011285  0.001006  3.786761  0.002
N  N407  1  0.42598054  0.51932310  0.74091651  1  -1.242715  0.001085  -0.22777  0.009799  6.6e-05  3.791457  0.001
N  N408  1  0.68224164  0.21450437  0.26753838  1  -1.202982  0.057591  -0.343086  -0.298434  0.031267  3.585877  0.047
N  N409  1  0.31788062  0.78564867  0.73237159  1  -1.22181  0.05766  -0.343298  -0.299157  0.031268  3.585384  0.047
N  N410  1  0.25924664  0.61312555  0.72606468  1  -1.221019  0.057587  -0.351214  -0.315899  0.031352  3.619585  0.047
N  N411  1  0.52037702  0.85401527  0.75452441  1  -1.259223  0.002508  -0.223735  0.011608  0.001003  3.787236  0.002
N  N412  1  0.07405921  0.01932872  0.75911369  1  -1.242515  0.001082  -0.227964  0.010273  6.3e-05  3.790845  0.001
N  N413  1  0.24084121  0.11315040  0.77395080  1  -1.202438  0.057502  -0.351841  -0.31661  0.031343  3.620388  0.047
N  N414  1  0.81779078  0.71439947  0.23251433  1  -1.201259  0.057672  -0.343332  -0.299257  0.03128  3.585493  0.047
N  N415  1  0.75957743  0.88678157  0.22618059  1  -1.219004  0.057588  -0.351832  -0.316619  0.031366  3.620791  0.047
O  O416  1  0.33265020  0.27838397  0.09475255  1  -1.064304  -0.000195  -0.179258  -0.206929  -0.000181  2.559406  0.0
O  O417  1  0.19368017  0.80680801  0.88555039  1  -1.044772  -0.000663  -0.179658  -0.2056  -0.000651  2.503897  0.0
O  O418  1  0.53156911  0.86086069  0.16064899  1  -1.176687  0.096668  -0.301667  -0.580923  0.050332  2.509814  0.085
O  O419  1  0.03174479  0.63927307  0.66028946  1  -1.173393  0.09623  -0.301334  -0.58033  0.050047  2.508597  0.085
O  O420  1  0.16935770  0.22126921  0.35883744  1  -1.161524  0.089262  -0.329174  -0.594983  0.045768  2.451259  0.071
O  O421  1  0.69345183  0.69325098  0.38556548  1  -1.046366  -0.000666  -0.179998  -0.206074  -0.000654  2.50404  0.0
O  O422  1  0.33134265  0.72111380  0.14116407  1  -1.168598  0.089399  -0.328459  -0.594442  0.04589  2.452204  0.072
O  O423  1  0.96819186  0.36075921  0.33969507  1  -1.173622  0.096284  -0.301503  -0.580533  0.050082  2.509031  0.085
O  O424  1  0.66935729  0.27871023  0.85885807  1  -1.15969  0.089319  -0.329218  -0.595197  0.04579  2.451888  0.071
O  O425  1  0.44353001  0.33067698  0.34275338  1  -1.172317  0.073341  -0.329327  -0.584711  0.038107  2.407696  0.057
O  O426  1  0.56991810  0.69314128  0.16813809  1  -1.16246  0.062175  -0.30532  -0.554091  0.032223  2.423414  0.054
O  O427  1  0.05675489  0.82979457  0.15733254  1  -1.167546  0.073543  -0.329345  -0.585493  0.038233  2.408602  0.057
O  O428  1  0.44235637  0.14099459  0.50911997  1  -1.091355  0.000398  -0.181199  -0.203555  0.000189  2.569895  0.0
O  O429  1  0.98021733  0.08924775  0.54709646  1  -1.063446  -0.00033  -0.178573  -0.200805  -0.000311  2.528913  0.0
O  O430  1  0.83116286  0.58147603  0.63091621  1  -1.134075  0.088732  -0.328026  -0.565023  0.045476  2.253479  0.07
O  O431  1  0.55643292  0.66927129  0.65723424  1  -1.172159  0.073344  -0.329158  -0.584695  0.03811  2.407844  0.057
O  O432  1  0.47936653  0.41078064  0.04689739  1  -1.057105  -0.000331  -0.17861  -0.20161  -0.000313  2.529934  0.0
O  O433  1  0.01979786  0.91079212  0.45292169  1  -1.063833  -0.000325  -0.178582  -0.200921  -0.000307  2.52874  0.0
O  O434  1  0.21547872  0.32739419  0.27904546  1  -1.169682  0.087324  -0.329094  -0.587577  0.044386  2.419178  0.069
O  O435  1  0.51990932  0.58914657  0.95290757  1  -1.062432  -0.000336  -0.178902  -0.201302  -0.000318  2.528771  0.0
O  O436  1  0.48379722  0.22067181  0.75677742  1  -1.170388  0.065661  -0.302126  -0.561653  0.03397  2.385468  0.058
O  O437  1  0.33143932  0.91842936  0.13097873  1  -1.134753  0.088512  -0.327506  -0.56465  0.045338  2.251673  0.07
O  O438  1  0.83060829  0.77876249  0.64113849  1  -1.161255  0.089251  -0.329235  -0.595211  0.04577  2.451589  0.071
O  O439  1  0.66895362  0.08149911  0.86909696  1  -1.134681  0.088796  -0.328136  -0.565146  0.045509  2.253582  0.07
O  O440  1  0.71566350  0.17274483  0.77909012  1  -1.164691  0.087361  -0.32903  -0.587347  0.044445  2.418414  0.069
O  O441  1  0.18197873  0.21683772  0.85016066  1  -1.164197  0.070495  -0.305708  -0.548978  0.037004  2.36487  0.06
O  O442  1  0.83306123  0.22160903  0.59482260  1  -1.061387  -0.000191  -0.178845  -0.207251  -0.000177  2.561164  0.0
O  O443  1  0.66688532  0.72148143  0.90515724  1  -1.063817  -0.000195  -0.178765  -0.20738  -0.000181  2.560417  0.0
O  O444  1  0.93074122  0.19326515  0.33185528  1  -1.163547  0.062107  -0.305851  -0.55463  0.032215  2.422098  0.053
O  O445  1  0.06928431  0.80672804  0.66809476  1  -1.163232  0.062245  -0.306052  -0.55483  0.032293  2.423078  0.054
O  O446  1  0.80629864  0.19329600  0.11422006  1  -1.046521  -0.000688  -0.179886  -0.206283  -0.000676  2.503195  0.0
O  O447  1  0.51631557  0.77953496  0.24344272  1  -1.170079  0.065669  -0.301784  -0.561601  0.033887  2.383707  0.058
O  O448  1  0.43070992  0.30663957  0.83187969  1  -1.164651  0.062443  -0.30625  -0.554842  0.032397  2.424489  0.054
O  O449  1  0.68190392  0.28298723  0.35007776  1  -1.164773  0.070603  -0.305553  -0.548925  0.037066  2.364849  0.06
O  O450  1  0.16671317  0.77829725  0.40529065  1  -1.06193  -0.000193  -0.179291  -0.207219  -0.000179  2.559531  0.0
O  O451  1  0.28435442  0.82710078  0.22097918  1  -1.166266  0.087438  -0.328428  -0.586547  0.044459  2.418719  0.069
O  O452  1  0.01636945  0.72069215  0.74322523  1  -1.169975  0.0657  -0.301965  -0.561697  0.034006  2.385986  0.058
O  O453  1  0.46839419  0.13924574  0.83970668  1  -1.173054  0.09618  -0.301819  -0.580902  0.050037  2.508257  0.085
O  O454  1  0.31804650  0.71692662  0.64991057  1  -1.16546  0.070661  -0.305737  -0.549117  0.037089  2.365569  0.06
O  O455  1  0.98354104  0.27952448  0.25672404  1  -1.170309  0.065676  -0.301499  -0.560983  0.033975  2.386817  0.058
O  O456  1  0.16879468  0.41860175  0.36900878  1  -1.133252  0.08875  -0.327893  -0.564652  0.045476  2.253148  0.07
O  O457  1  0.94360595  0.16910593  0.84284938  1  -1.171911  0.073377  -0.329271  -0.584979  0.038124  2.407319  0.057
O  O458  1  0.55768523  0.85910247  0.49094037  1  -1.091058  0.000401  -0.181277  -0.20339  0.00019  2.570627  0.0
O  O459  1  0.05835988  0.64063619  0.99081498  1  -1.078769  0.000412  -0.181519  -0.203246  0.000195  2.571973  0.0
O  O460  1  0.81784368  0.78287425  0.14981557  1  -1.166149  0.069877  -0.305457  -0.548615  0.036681  2.361991  0.06
O  O461  1  0.30632788  0.30679879  0.61439180  1  -1.045134  -0.000666  -0.179683  -0.205653  -0.000654  2.504539  0.0
O  O462  1  0.78460269  0.67260308  0.72090600  1  -1.167148  0.08733  -0.329053  -0.587377  0.044404  2.418621  0.069
O  O463  1  0.94204595  0.35926015  0.00905763  1  -1.09076  0.000406  -0.181243  -0.203545  0.000192  2.571812  0.0
