# generated using pymatgen
data_Cd2H46C46N4O11
_symmetry_space_group_name_H-M   'P 1'
_cell_length_a   9.31871089
_cell_length_b   17.13377528
_cell_length_c   34.94630574
_cell_angle_alpha   89.99991331
_cell_angle_beta   90.00011964
_cell_angle_gamma   99.02036339
_symmetry_Int_Tables_number   1
_chemical_formula_structural   Cd2H46C46N4O11
_chemical_formula_sum   'Cd8 H184 C184 N16 O44'
_cell_volume   5510.68553564
_cell_formula_units_Z   4
loop_
 _symmetry_equiv_pos_site_id
 _symmetry_equiv_pos_as_xyz
  1  'x, y, z'
loop_
 _atom_site_type_symbol
 _atom_site_label
 _atom_site_symmetry_multiplicity
 _atom_site_fract_x
 _atom_site_fract_y
 _atom_site_fract_z
 _atom_site_occupancy
 _atom_site_pbe_bader_charge
 _atom_site_pbe_bader_spin_density
 _atom_site_pbe_cm5_charge
 _atom_site_pbe_ddec_charge
 _atom_site_pbe_ddec_spin_density
 _atom_site_pbe_ddec_sum_bond_order
 _atom_site_pbe_magmom
Cd  Cd0  1  0.40634800  0.98339782  0.17307927  1  1.338152  0  0.802398  1.009019  0  2.245921  0
Cd  Cd1  1  0.09364996  0.51660480  0.67307813  1  1.338103  0  0.802401  1.009041  0  2.245873  0
Cd  Cd2  1  0.59365380  0.01660285  0.82692047  1  1.338228  0  0.802396  1.009082  0  2.245851  0
Cd  Cd3  1  0.90634557  0.48339648  0.32692132  1  1.33803  0  0.802417  1.009083  0  2.245775  0
Cd  Cd4  1  0.07999015  0.06757067  0.18052065  1  1.248517  0  0.770492  0.920834  0  2.165656  0
Cd  Cd5  1  0.42000426  0.43242835  0.68052024  1  1.248399  0  0.770511  0.920826  0  2.165745  0
Cd  Cd6  1  0.92001005  0.93242824  0.81948052  1  1.248357  0  0.770485  0.920823  0  2.16562  0
Cd  Cd7  1  0.57998878  0.56757175  0.31947950  1  1.248371  0  0.7705  0.920825  0  2.16564  0
H  H8  1  0.55759533  0.34460679  0.93375395  1  0.056308  0  0.092171  0.128865  0  1.020439  0
H  H9  1  0.94240532  0.15539405  0.43375392  1  0.056289  0  0.092218  0.128971  0  1.020401  0
H  H10  1  0.44240432  0.65539389  0.06624637  1  0.056312  0  0.092184  0.128876  0  1.020433  0
H  H11  1  0.05760256  0.84460543  0.56624639  1  0.056229  0  0.092199  0.128862  0  1.020498  0
H  H12  1  0.67648108  0.37508496  0.89553677  1  0.071053  0  0.096852  0.136219  0  1.019831  0
H  H13  1  0.82351913  0.12491539  0.39553641  1  0.071015  0  0.096842  0.136227  0  1.019823  0
H  H14  1  0.32351625  0.62491513  0.10446412  1  0.070993  0  0.096872  0.136254  0  1.019841  0
H  H15  1  0.17648803  0.87508528  0.60446419  1  0.070946  0  0.09688  0.136202  0  1.019828  0
H  H16  1  0.52054964  0.42079367  0.90274233  1  0.047429  0  0.094796  0.131082  0  0.995693  0
H  H17  1  0.97945294  0.07920725  0.40274181  1  0.047411  0  0.09479  0.131098  0  0.995674  0
H  H18  1  0.47944984  0.57920642  0.09725827  1  0.047386  0  0.094793  0.131095  0  0.995697  0
H  H19  1  0.02055172  0.92079224  0.59725793  1  0.047429  0  0.09477  0.131022  0  0.995715  0
H  H20  1  0.50980376  0.42941207  0.02519292  1  0.075441  0  0.101834  0.069073  0  1.025344  0
H  H21  1  0.99019561  0.07058801  0.52519310  1  0.075442  0  0.101841  0.069099  0  1.025331  0
H  H22  1  0.49019537  0.57058684  0.97480711  1  0.075453  0  0.101827  0.069028  0  1.025378  0
H  H23  1  0.00980404  0.92941267  0.47480750  1  0.075459  0  0.101878  0.069115  0  1.025349  0
H  H24  1  0.46444431  0.38296806  0.98079636  1  0.067769  0  0.102244  0.073171  0  1.006869  0
H  H25  1  0.03555345  0.11703435  0.48079642  1  0.067772  0  0.102235  0.073121  0  1.006913  0
H  H26  1  0.53555659  0.61703321  0.01920424  1  0.068391  0  0.102256  0.073163  0  1.0069  0
H  H27  1  0.96444620  0.88296633  0.51920446  1  0.068383  0  0.102241  0.073162  0  1.006884  0
H  H28  1  0.69873942  0.44806095  0.05954681  1  0.031603  0  0.094636  0.134581  0  1.013299  0
H  H29  1  0.80125947  0.05194023  0.55954633  1  0.0316  0  0.094617  0.134564  0  1.013263  0
H  H30  1  0.30126023  0.55193973  0.94045351  1  0.03161  0  0.09462  0.134575  0  1.013255  0
H  H31  1  0.19873696  0.94806046  0.44045398  1  0.031582  0  0.094638  0.134584  0  1.013265  0
H  H32  1  0.68070853  0.54969597  0.05902511  1  0.023481  0  0.092963  0.131281  0  1.016453  0
H  H33  1  0.81929184  0.95030525  0.55902520  1  0.023483  0  0.092966  0.131293  0  1.016434  0
H  H34  1  0.31929130  0.45030530  0.94097463  1  0.023494  0  0.092978  0.131315  0  1.016408  0
H  H35  1  0.18070639  0.04969425  0.44097540  1  0.023521  0  0.092933  0.131219  0  1.016393  0
H  H36  1  0.85288925  0.52182482  0.06438167  1  0.035864  0  0.09633  0.139188  0  1.015663  0
H  H37  1  0.64710991  0.97817580  0.56438107  1  0.03588  0  0.09633  0.139171  0  1.015719  0
H  H38  1  0.14711057  0.47817645  0.93561893  1  0.035887  0  0.096331  0.139195  0  1.015697  0
H  H39  1  0.35288742  0.02182430  0.43561838  1  0.035893  0  0.096345  0.139172  0  1.015718  0
H  H40  1  0.01792024  0.59069811  0.03858756  1  0.104853  0  0.101255  0.065133  0  1.036071  0
H  H41  1  0.48207787  0.90930129  0.53858634  1  0.104896  0  0.101249  0.065096  0  1.036093  0
H  H42  1  0.98208031  0.40930198  0.96141247  1  0.104861  0  0.101243  0.065078  0  1.036113  0
H  H43  1  0.51792379  0.09069524  0.46141226  1  0.104829  0  0.10124  0.065126  0  1.036058  0
H  H44  1  0.05909395  0.65806032  0.00017118  1  0.082294  0  0.103103  0.072775  0  1.012774  0
H  H45  1  0.44090692  0.84193858  0.50016999  1  0.082376  0  0.103144  0.072831  0  1.012733  0
H  H46  1  0.94090552  0.34193977  0.99982942  1  0.0824  0  0.103104  0.072748  0  1.012793  0
H  H47  1  0.55909740  0.15805973  0.49982918  1  0.082271  0  0.103097  0.072771  0  1.012778  0
H  H48  1  0.02491271  0.62656946  0.90213891  1  0.01628  0  0.095216  0.134774  0  1.021087  0
H  H49  1  0.47508940  0.87343023  0.40213817  1  0.016232  0  0.095231  0.13479  0  1.021093  0
H  H50  1  0.97508801  0.37343122  0.09786141  1  0.016255  0  0.095236  0.134788  0  1.021098  0
H  H51  1  0.52491419  0.12656927  0.59786129  1  0.016275  0  0.095199  0.134749  0  1.021131  0
H  H52  1  0.11877706  0.62841713  0.94579991  1  0.068954  0  0.094645  0.134002  0  1.028952  0
H  H53  1  0.38122356  0.87158363  0.44579884  1  0.068981  0  0.094663  0.134023  0  1.028941  0
H  H54  1  0.88122010  0.37158237  0.05420097  1  0.068949  0  0.09465  0.134  0  1.028918  0
H  H55  1  0.61877786  0.12841941  0.55420034  1  0.068943  0  0.094643  0.134  0  1.028998  0
H  H56  1  0.98742336  0.69074004  0.93898454  1  0.046547  0  0.098057  0.139365  0  0.99134  0
H  H57  1  0.51257597  0.80925847  0.43898473  1  0.046549  0  0.098054  0.139361  0  0.99132  0
H  H58  1  0.01257702  0.30925946  0.06101549  1  0.046561  0  0.098057  0.139364  0  0.991334  0
H  H59  1  0.48742226  0.19074103  0.56101673  1  0.046564  0  0.098035  0.139321  0  0.99138  0
H  H60  1  0.72867918  0.49606164  0.86804456  1  0.07644  0  0.106402  0.078166  0  0.972233  0
H  H61  1  0.77132315  0.00393937  0.36804398  1  0.076414  0  0.106403  0.078158  0  0.972209  0
H  H62  1  0.27132047  0.50393905  0.13195575  1  0.076442  0  0.1064  0.078168  0  0.972213  0
H  H63  1  0.22868383  0.99606071  0.63195576  1  0.076502  0  0.106423  0.078182  0  0.972174  0
H  H64  1  0.88890000  0.56618622  0.87279930  1  0.050471  0  0.106662  0.075536  0  1.013035  0
H  H65  1  0.61110135  0.93381364  0.37279889  1  0.050442  0  0.106662  0.075536  0  1.013038  0
H  H66  1  0.11109840  0.43381388  0.12720101  1  0.050494  0  0.106662  0.075504  0  1.013052  0
H  H67  1  0.38890653  0.06618585  0.62720114  1  0.050455  0  0.106716  0.075613  0  1.013053  0
H  H68  1  0.69925021  0.21845509  0.05003773  1  0.039803  0  0.105396  0.118775  0  0.996687  0
H  H69  1  0.80074380  0.28154435  0.55003794  1  0.03971  0  0.105415  0.118828  0  0.9967  0
H  H70  1  0.30074927  0.78154500  0.94996201  1  0.039775  0  0.105395  0.118779  0  0.996701  0
H  H71  1  0.19925228  0.71845516  0.44996294  1  0.039761  0  0.105396  0.118768  0  0.996676  0
H  H72  1  0.55516483  0.12780381  0.09728936  1  0.102166  0  0.107017  0.112672  0  0.995358  0
H  H73  1  0.94483077  0.37219610  0.59728872  1  0.102256  0  0.106986  0.112669  0  0.995333  0
H  H74  1  0.44483465  0.87219628  0.90271095  1  0.102163  0  0.107009  0.112689  0  0.995366  0
H  H75  1  0.05516639  0.62780341  0.40271159  1  0.102159  0  0.106989  0.112647  0  0.995356  0
H  H76  1  0.19575206  0.25395466  0.08375731  1  0.094297  0  0.100668  0.102756  0  1.019506  0
H  H77  1  0.30424520  0.24604932  0.58375669  1  0.093818  0  0.100696  0.10277  0  1.019509  0
H  H78  1  0.80425008  0.74604720  0.91624415  1  0.094299  0  0.100675  0.102758  0  1.019471  0
H  H79  1  0.69575459  0.75395550  0.41624191  1  0.093772  0  0.100683  0.102759  0  1.019505  0
H  H80  1  0.32980030  0.33920808  0.03395692  1  0.105018  0  0.09779  0.106764  0  1.067083  0
H  H81  1  0.17019788  0.16079307  0.53395714  1  0.105084  0  0.097791  0.106769  0  1.067058  0
H  H82  1  0.67020025  0.66079201  0.96604397  1  0.105078  0  0.097815  0.106777  0  1.067025  0
H  H83  1  0.82980246  0.83920998  0.46604231  1  0.105168  0  0.097773  0.106749  0  1.067062  0
H  H84  1  0.72306938  0.75572286  0.06929394  1  0.033463  0  0.100594  0.110347  0  1.022315  0
H  H85  1  0.77692909  0.74427893  0.56929474  1  0.033448  0  0.100587  0.110351  0  1.022347  0
H  H86  1  0.27693314  0.24427663  0.93070666  1  0.033414  0  0.100592  0.110361  0  1.022281  0
H  H87  1  0.22307149  0.25571762  0.43070443  1  0.0335  0  0.10059  0.11033  0  1.022338  0
H  H88  1  0.81223325  0.85706930  0.11954845  1  0.112374  0  0.106817  0.112754  0  1.001535  0
H  H89  1  0.68776755  0.64293177  0.61954813  1  0.112367  0  0.106812  0.112753  0  1.001556  0
H  H90  1  0.18776927  0.14293019  0.88045243  1  0.112879  0  0.10681  0.112744  0  1.001556  0
H  H91  1  0.31223234  0.35706241  0.38044961  1  0.112439  0  0.106806  0.112763  0  1.00151  0
H  H92  1  0.24044152  0.79721689  0.10933579  1  0.107865  0  0.103232  0.109639  0  1.004213  0
H  H93  1  0.25956082  0.70278411  0.60933575  1  0.107874  0  0.103239  0.109626  0  1.004249  0
H  H94  1  0.75956349  0.20278379  0.89066395  1  0.107914  0  0.103221  0.109627  0  1.004213  0
H  H95  1  0.74044080  0.29721597  0.39066228  1  0.107803  0  0.103263  0.109735  0  1.004223  0
H  H96  1  0.15719785  0.70123379  0.05742416  1  0.068071  0  0.100761  0.113425  0  1.033734  0
H  H97  1  0.34280395  0.79876675  0.55742410  1  0.068057  0  0.100744  0.113426  0  1.033733  0
H  H98  1  0.84280484  0.29876630  0.94257558  1  0.068099  0  0.100746  0.113431  0  1.033775  0
H  H99  1  0.65720196  0.20123333  0.44257450  1  0.068086  0  0.100818  0.1135  0  1.033588  0
H  H100  1  0.06635403  0.33934323  0.86644055  1  0.092476  0  0.097825  0.112362  0  1.050887  0
H  H101  1  0.43364509  0.16065592  0.36644080  1  0.092914  0  0.097843  0.112388  0  1.050846  0
H  H102  1  0.93364153  0.66065450  0.13355920  1  0.092879  0  0.097839  0.112385  0  1.050857  0
H  H103  1  0.56635691  0.83934181  0.63355980  1  0.092471  0  0.097814  0.112347  0  1.050979  0
H  H104  1  0.20868134  0.32275537  0.80714620  1  0.106625  0  0.105906  0.107104  0  1.014765  0
H  H105  1  0.29131861  0.17724451  0.30714664  1  0.106603  0  0.105885  0.107096  0  1.014855  0
H  H106  1  0.79130761  0.67724178  0.19285240  1  0.106535  0  0.105878  0.107157  0  1.014838  0
H  H107  1  0.70868287  0.82275144  0.69285396  1  0.106817  0  0.105976  0.107262  0  1.01489  0
H  H108  1  0.05810779  0.52497302  0.75734540  1  0.117831  0  0.100968  0.100136  0  1.054183  0
H  H109  1  0.44189239  0.97502762  0.25734485  1  0.117864  0  0.100956  0.100149  0  1.054078  0
H  H110  1  0.94188740  0.47502707  0.24265435  1  0.117874  0  0.10094  0.100137  0  1.054091  0
H  H111  1  0.55811051  0.02496951  0.74265490  1  0.117889  0  0.100959  0.100139  0  1.054117  0
H  H112  1  0.91093333  0.53925080  0.81448243  1  0.092973  0  0.105658  0.11733  0  1.008657  0
H  H113  1  0.58906779  0.96074979  0.31448255  1  0.09299  0  0.105662  0.117339  0  1.00865  0
H  H114  1  0.08906919  0.46074869  0.18551789  1  0.092979  0  0.105662  0.117288  0  1.008694  0
H  H115  1  0.41093473  0.03924971  0.68551777  1  0.093033  0  0.10564  0.117322  0  1.008712  0
H  H116  1  0.32601119  0.96980528  0.08692680  1  0.118094  0  0.119042  0.053447  0  1.024375  0
H  H117  1  0.17399438  0.53019637  0.58692570  1  0.118131  0  0.119043  0.053386  0  1.024458  0
H  H118  1  0.67399188  0.03019245  0.91307237  1  0.118061  0  0.119059  0.053452  0  1.024306  0
H  H119  1  0.82600136  0.46980196  0.41307405  1  0.118097  0  0.119041  0.05345  0  1.02436  0
H  H120  1  0.27684625  0.85699112  0.01156865  1  0.073877  0  0.101196  0.113253  0  0.99801  0
H  H121  1  0.22315668  0.64300716  0.51156634  1  0.073875  0  0.101219  0.11329  0  0.998015  0
H  H122  1  0.72315703  0.14300364  0.98843195  1  0.073955  0  0.101166  0.113243  0  0.998129  0
H  H123  1  0.77684532  0.35699056  0.48843340  1  0.073842  0  0.101219  0.113314  0  0.998027  0
H  H124  1  0.38703556  0.94333077  0.99311360  1  0.043854  0  0.103118  0.114743  0  0.99679  0
H  H125  1  0.11296238  0.55666693  0.49311232  1  0.044969  0  0.103104  0.114714  0  0.996844  0
H  H126  1  0.61296557  0.05666400  0.00688586  1  0.045039  0  0.103118  0.114738  0  0.996896  0
H  H127  1  0.88703979  0.44333138  0.50688685  1  0.045017  0  0.103122  0.114724  0  0.996855  0
H  H128  1  0.25360384  0.95198705  0.02920938  1  0.072383  0  0.114226  0.127145  0  0.983175  0
H  H129  1  0.24639565  0.54801001  0.52920888  1  0.072461  0  0.114195  0.127162  0  0.983113  0
H  H130  1  0.74639961  0.04800831  0.97079036  1  0.07236  0  0.114244  0.12722  0  0.983114  0
H  H131  1  0.75360313  0.45198771  0.47079115  1  0.072401  0  0.114212  0.127148  0  0.983148  0
H  H132  1  0.61645876  0.89271960  0.01428919  1  0.05389  0  0.105338  0.117686  0  0.986032  0
H  H133  1  0.88354414  0.60728409  0.51428671  1  0.053814  0  0.105312  0.11763  0  0.98608  0
H  H134  1  0.38355003  0.10727929  0.98571198  1  0.05388  0  0.105357  0.117676  0  0.986052  0
H  H135  1  0.11646122  0.39271777  0.48571074  1  0.053882  0  0.105325  0.117681  0  0.98601  0
H  H136  1  0.51941406  0.80583254  0.03549973  1  0.073556  0  0.100071  0.113151  0  0.99793  0
H  H137  1  0.98059040  0.69417228  0.53549925  1  0.073433  0  0.100064  0.11315  0  0.997927  0
H  H138  1  0.48059365  0.19416636  0.96450001  1  0.073571  0  0.100076  0.113132  0  0.99791  0
H  H139  1  0.01941157  0.30582899  0.46450106  1  0.073461  0  0.100093  0.113195  0  0.997902  0
H  H140  1  0.63499853  0.87586836  0.06464617  1  0.095259  0  0.11212  0.132678  0  1.015663  0
H  H141  1  0.86500295  0.62413284  0.56464539  1  0.095336  0  0.112114  0.132611  0  1.01563  0
H  H142  1  0.36500312  0.12412818  0.93535472  1  0.095333  0  0.112111  0.132687  0  1.015592  0
H  H143  1  0.13499459  0.37586430  0.43535235  1  0.095259  0  0.112149  0.132759  0  1.015669  0
H  H144  1  0.28031977  0.83023024  0.23237312  1  0.092331  0  0.12341  0.050345  0  0.985703  0
H  H145  1  0.21967435  0.66976870  0.73237565  1  0.092307  0  0.123389  0.050368  0  0.985697  0
H  H146  1  0.71966812  0.16976692  0.76762806  1  0.092486  0  0.123426  0.050375  0  0.985615  0
H  H147  1  0.78032547  0.33023257  0.26762638  1  0.092351  0  0.123372  0.050383  0  0.985629  0
H  H148  1  0.47609306  0.68868274  0.16382206  1  0.039368  0  0.098814  0.108599  0  0.996641  0
H  H149  1  0.02391541  0.81131575  0.66382123  1  0.039494  0  0.098847  0.10862  0  0.996701  0
H  H150  1  0.52390534  0.31131735  0.83617969  1  0.039476  0  0.098867  0.108674  0  0.996678  0
H  H151  1  0.97609337  0.18868314  0.33617765  1  0.039571  0  0.098814  0.10859  0  0.996555  0
H  H152  1  0.57833072  0.69443741  0.20753171  1  0.110374  0  0.103473  0.13123  0  1.037178  0
H  H153  1  0.92167054  0.80556286  0.70752997  1  0.110475  0  0.103488  0.131284  0  1.037144  0
H  H154  1  0.42166537  0.30556210  0.79247004  1  0.110401  0  0.103472  0.131239  0  1.037143  0
H  H155  1  0.07833375  0.19443900  0.29246806  1  0.110359  0  0.103467  0.131218  0  1.037148  0
H  H156  1  0.58108533  0.78101042  0.17809137  1  0.113476  0  0.110706  0.131661  0  0.998572  0
H  H157  1  0.91891876  0.71898932  0.67808998  1  0.113459  0  0.110684  0.131665  0  0.998594  0
H  H158  1  0.41891003  0.21899027  0.82191037  1  0.113412  0  0.110726  0.131737  0  0.998557  0
H  H159  1  0.08108698  0.28101017  0.32190862  1  0.113426  0  0.110706  0.131678  0  0.998639  0
H  H160  1  0.19623418  0.70588433  0.23798203  1  0.078297  0  0.108645  0.121509  0  1.017615  0
H  H161  1  0.30376500  0.79411340  0.73798337  1  0.078225  0  0.108658  0.121538  0  1.017526  0
H  H162  1  0.80376211  0.29411222  0.76201886  1  0.078307  0  0.108604  0.121474  0  1.01766  0
H  H163  1  0.69623483  0.20588787  0.26201751  1  0.078236  0  0.108607  0.121467  0  1.01762  0
H  H164  1  0.32494157  0.63907766  0.23680085  1  0.068398  0  0.106676  0.126494  0  0.988401  0
H  H165  1  0.17505777  0.86092066  0.73680150  1  0.068403  0  0.10669  0.126498  0  0.988431  0
H  H166  1  0.67505417  0.36092066  0.76319975  1  0.068413  0  0.10666  0.126514  0  0.988436  0
H  H167  1  0.82494385  0.13907942  0.26319824  1  0.068404  0  0.106668  0.126438  0  0.988418  0
H  H168  1  0.22304091  0.65433240  0.19479265  1  0.034788  0  0.094576  0.104777  0  1.025711  0
H  H169  1  0.27696135  0.84566602  0.69479338  1  0.034837  0  0.094584  0.104789  0  1.02564  0
H  H170  1  0.77695608  0.34566651  0.80520880  1  0.034763  0  0.094546  0.104749  0  1.025636  0
H  H171  1  0.72304383  0.15433525  0.30520723  1  0.034848  0  0.094555  0.104751  0  1.025648  0
H  H172  1  0.74473688  0.97148293  0.18425652  1  0.107222  0  0.131425  0.098233  0  0.986314  0
H  H173  1  0.75525684  0.52852154  0.68425660  1  0.107015  0  0.131438  0.098235  0  0.986208  0
H  H174  1  0.25526205  0.02851894  0.81574380  1  0.107106  0  0.131457  0.098244  0  0.986267  0
H  H175  1  0.24473457  0.47148033  0.31574199  1  0.107327  0  0.131439  0.098258  0  0.986258  0
H  H176  1  0.99239522  0.25271995  0.18120188  1  0.033552  0  0.103263  0.120197  0  0.99561  0
H  H177  1  0.50760004  0.24728389  0.68120253  1  0.033858  0  0.103217  0.120151  0  0.99561  0
H  H178  1  0.00760280  0.74728251  0.81879843  1  0.033947  0  0.103256  0.120198  0  0.995603  0
H  H179  1  0.49239961  0.75271679  0.31879693  1  0.033917  0  0.103235  0.120158  0  0.995626  0
H  H180  1  0.83955293  0.36118473  0.18236816  1  0.035387  0  0.086501  0.083931  0  1.050727  0
H  H181  1  0.66044698  0.13882028  0.68236868  1  0.035544  0  0.086499  0.083899  0  1.050754  0
H  H182  1  0.16044724  0.63881773  0.81763244  1  0.035389  0  0.086529  0.083968  0  1.050727  0
H  H183  1  0.33955392  0.86118099  0.31763249  1  0.03542  0  0.086525  0.083951  0  1.050737  0
H  H184  1  0.57196967  0.33048245  0.18554669  1  0.032887  0  0.094616  0.095082  0  0.998748  0
H  H185  1  0.92802738  0.16952374  0.68554648  1  0.032656  0  0.094612  0.09508  0  0.998698  0
H  H186  1  0.42803050  0.66952000  0.81445363  1  0.032792  0  0.09459  0.09507  0  0.99864  0
H  H187  1  0.07197206  0.83047990  0.31445527  1  0.032599  0  0.094568  0.095035  0  0.998654  0
H  H188  1  0.44421587  0.19156697  0.18703813  1  0.033879  0  0.101772  0.117491  0  1.009893  0
H  H189  1  0.05578157  0.30843853  0.68703733  1  0.03388  0  0.101772  0.117435  0  1.009946  0
H  H190  1  0.55578323  0.80843549  0.81296132  1  0.033877  0  0.101783  0.117468  0  1.009921  0
H  H191  1  0.94421698  0.69156570  0.31296270  1  0.033885  0  0.101788  0.117501  0  1.009872  0
C  C192  1  0.67621892  0.45662825  0.98272965  1  0.014861  0  -0.026089  -0.056831  0  3.949667  0
C  C193  1  0.82378191  0.04337188  0.48272935  1  0.014862  0  -0.026147  -0.056864  0  3.949731  0
C  C194  1  0.32377841  0.54337184  0.01727096  1  0.01489  0  -0.026124  -0.05683  0  3.949619  0
C  C195  1  0.17622203  0.95662879  0.51727125  1  0.014887  0  -0.026212  -0.057008  0  3.949674  0
C  C196  1  0.76795139  0.50914084  0.00652346  1  -0.074106  0  -0.001594  0.096508  0  3.925293  0
C  C197  1  0.73204933  0.99085933  0.50652319  1  -0.074179  0  -0.001547  0.096561  0  3.925346  0
C  C198  1  0.23204594  0.49085925  0.99347657  1  -0.074215  0  -0.001538  0.096586  0  3.925298  0
C  C199  1  0.26795371  0.00914194  0.49347713  1  -0.07418  0  -0.001522  0.096599  0  3.925245  0
C  C200  1  0.87665533  0.56491350  0.98975701  1  -0.034804  0  -0.021514  -0.0495  0  3.927534  0
C  C201  1  0.62334489  0.93508665  0.48975632  1  -0.034753  0  -0.021484  -0.049472  0  3.927371  0
C  C202  1  0.12334325  0.43508718  0.01024330  1  -0.034648  0  -0.02154  -0.049478  0  3.92751  0
C  C203  1  0.37665781  0.06491343  0.51024286  1  -0.034771  0  -0.02153  -0.049454  0  3.927576  0
C  C204  1  0.89579973  0.56882189  0.94968755  1  0.00733  0  0.001023  0.097798  0  3.921687  0
C  C205  1  0.60419681  0.93117779  0.44968741  1  0.007502  0  0.001064  0.097896  0  3.921736  0
C  C206  1  0.10419456  0.43117880  0.05031248  1  0.007459  0  0.001036  0.097736  0  3.921835  0
C  C207  1  0.39580266  0.06882230  0.55031233  1  0.007445  0  0.001052  0.097783  0  3.921743  0
C  C208  1  0.80585809  0.51417057  0.92654261  1  0.037424  0  -0.023488  -0.053455  0  3.941152  0
C  C209  1  0.69414348  0.98582856  0.42654162  1  0.037398  0  -0.023484  -0.053521  0  3.941361  0
C  C210  1  0.19413782  0.48582834  0.07345800  1  0.037492  0  -0.023549  -0.053548  0  3.941406  0
C  C211  1  0.30586261  0.01417211  0.57345841  1  0.03745  0  -0.023536  -0.053559  0  3.941338  0
C  C212  1  0.69731842  0.45715547  0.94290112  1  -0.019226  0  -0.005406  0.089926  0  3.94253  0
C  C213  1  0.80268177  0.04284358  0.44290053  1  -0.019327  0  -0.005353  0.090019  0  3.942521  0
C  C214  1  0.30268105  0.54284462  0.05709919  1  -0.019303  0  -0.005371  0.089966  0  3.942483  0
C  C215  1  0.19732075  0.95715591  0.55709950  1  -0.01932  0  -0.005301  0.090065  0  3.942546  0
C  C216  1  0.60812878  0.39640761  0.91754222  1  -0.120045  0  -0.240749  -0.423742  0  3.973681  0
C  C217  1  0.89187158  0.10359269  0.41754191  1  -0.120003  0  -0.240807  -0.423937  0  3.973739  0
C  C218  1  0.39186979  0.60359308  0.08245867  1  -0.119979  0  -0.240756  -0.423789  0  3.973649  0
C  C219  1  0.10813326  0.89640740  0.58245840  1  -0.119881  0  -0.240812  -0.423689  0  3.973777  0
C  C220  1  0.55475897  0.40101689  0.00072340  1  0.361165  0  -0.070209  -0.014855  0  3.925999  0
C  C221  1  0.94524057  0.09898443  0.50072383  1  0.361169  0  -0.070153  -0.014783  0  3.925969  0
C  C222  1  0.44524068  0.59898379  0.99927691  1  0.360546  0  -0.070183  -0.014811  0  3.925875  0
C  C223  1  0.05475942  0.90101744  0.49927735  1  0.360548  0  -0.070247  -0.014918  0  3.925954  0
C  C224  1  0.74874217  0.50648592  0.04942155  1  -0.013998  0  -0.241591  -0.416016  0  3.944753  0
C  C225  1  0.75125779  0.99351414  0.54942129  1  -0.013986  0  -0.241608  -0.416046  0  3.94487  0
C  C226  1  0.25125731  0.49351417  0.95057933  1  -0.014001  0  -0.241611  -0.416097  0  3.944828  0
C  C227  1  0.24874259  0.00648536  0.45057931  1  -0.014015  0  -0.241575  -0.415928  0  3.944742  0
C  C228  1  0.96969671  0.62194747  0.01549495  1  0.33316  0  -0.065872  -0.010332  0  3.903796  0
C  C229  1  0.53030390  0.87805209  0.51549437  1  0.333082  0  -0.06595  -0.010364  0  3.903839  0
C  C230  1  0.03030581  0.37805203  0.98450508  1  0.332921  0  -0.065865  -0.010244  0  3.903775  0
C  C231  1  0.46969755  0.12194741  0.48450452  1  0.333151  0  -0.065828  -0.010339  0  3.903907  0
C  C232  1  0.01197792  0.63116273  0.93310269  1  -0.064202  0  -0.237874  -0.415655  0  3.945315  0
C  C233  1  0.48802226  0.86883688  0.43310196  1  -0.064218  0  -0.237924  -0.41573  0  3.945339  0
C  C234  1  0.98802139  0.36883677  0.06689791  1  -0.064229  0  -0.237931  -0.415689  0  3.94534  0
C  C235  1  0.51198078  0.13116439  0.56689750  1  -0.064255  0  -0.237866  -0.415609  0  3.9454  0
C  C236  1  0.83093118  0.51044565  0.88419193  1  0.362645  0  -0.064133  -0.010509  0  3.916965  0
C  C237  1  0.66906936  0.98955477  0.38419207  1  0.362693  0  -0.064146  -0.010519  0  3.91712  0
C  C238  1  0.16906740  0.48955503  0.11580839  1  0.362611  0  -0.064112  -0.010411  0  3.917023  0
C  C239  1  0.33093780  0.01044590  0.61580796  1  0.362606  0  -0.064178  -0.010536  0  3.917093  0
C  C240  1  0.52451474  0.28438353  0.03929518  1  0.35164  0  0.076834  0.251295  0  4.079631  0
C  C241  1  0.97547847  0.21561711  0.53929496  1  0.352136  0  0.076832  0.251295  0  4.07987  0
C  C242  1  0.47548383  0.71561715  0.96070542  1  0.351651  0  0.076881  0.25141  0  4.079448  0
C  C243  1  0.02451814  0.78438417  0.46070478  1  0.351544  0  0.076826  0.251271  0  4.079734  0
C  C244  1  0.58722089  0.22418302  0.05686789  1  0.038697  0  -0.10737  -0.211304  0  4.012511  0
C  C245  1  0.91277086  0.27581581  0.55686817  1  0.038684  0  -0.107404  -0.211372  0  4.012713  0
C  C246  1  0.41277627  0.77581649  0.94313156  1  0.038754  0  -0.107353  -0.211285  0  4.012536  0
C  C247  1  0.08722540  0.72418428  0.44313186  1  0.038742  0  -0.107381  -0.211316  0  4.01259  0
C  C248  1  0.50741217  0.17437007  0.08318197  1  -0.01121  0  -0.082736  -0.069055  0  3.990452  0
C  C249  1  0.99258367  0.32563105  0.58318054  1  -0.011337  0  -0.082756  -0.069166  0  3.990522  0
C  C250  1  0.49258623  0.82563002  0.91681834  1  -0.011205  0  -0.082769  -0.069168  0  3.990518  0
C  C251  1  0.00741508  0.67437022  0.41681834  1  -0.011187  0  -0.082735  -0.069064  0  3.990438  0
C  C252  1  0.36609653  0.18554981  0.09317125  1  -0.049785  0  -0.031662  -0.060057  0  4.012652  0
C  C253  1  0.13389993  0.31445120  0.59317077  1  -0.049744  0  -0.031663  -0.059988  0  4.012738  0
C  C254  1  0.63390509  0.81445028  0.90682992  1  -0.04959  0  -0.031701  -0.060102  0  4.01277  0
C  C255  1  0.86609827  0.68555185  0.40682840  1  -0.049787  0  -0.031672  -0.060036  0  4.01261  0
C  C256  1  0.30520654  0.24582501  0.07554360  1  -0.071423  0  -0.086785  -0.066579  0  3.996111  0
C  C257  1  0.19478907  0.25417722  0.57554291  1  -0.071218  0  -0.086811  -0.066578  0  3.99621  0
C  C258  1  0.69479311  0.75417568  0.92445757  1  -0.071807  0  -0.08679  -0.066582  0  3.996092  0
C  C259  1  0.80521037  0.74582641  0.42445597  1  -0.07082  0  -0.086803  -0.066627  0  3.99613  0
C  C260  1  0.38177461  0.29446401  0.04807747  1  -0.004617  0  -0.118588  -0.232993  0  4.01973  0
C  C261  1  0.11822170  0.20553769  0.54807735  1  -0.004944  0  -0.118566  -0.232992  0  4.019684  0
C  C262  1  0.61822504  0.70553667  0.95192371  1  -0.004541  0  -0.118603  -0.232982  0  4.019518  0
C  C263  1  0.88177757  0.79446535  0.45192240  1  -0.004755  0  -0.118529  -0.232895  0  4.019585  0
C  C264  1  0.28154621  0.13526283  0.12270198  1  1.548717  0  0.197204  0.576076  0  4.24076  0
C  C265  1  0.21844848  0.36473870  0.62270180  1  1.549204  0  0.197234  0.576038  0  4.240868  0
C  C266  1  0.71845416  0.86473667  0.87729891  1  1.54894  0  0.197209  0.576206  0  4.240743  0
C  C267  1  0.78154830  0.63526317  0.37729823  1  1.549083  0  0.197188  0.576025  0  4.240825  0
C  C268  1  0.93425877  0.72393291  0.05983550  1  0.392113  0  0.081507  0.260156  0  4.074154  0
C  C269  1  0.56574215  0.77606653  0.55983558  1  0.391676  0  0.081482  0.260128  0  4.074174  0
C  C270  1  0.06574624  0.27606776  0.94016424  1  0.391798  0  0.081505  0.260173  0  4.074133  0
C  C271  1  0.43426376  0.22393355  0.44016445  1  0.392121  0  0.081482  0.260108  0  4.07413  0
C  C272  1  0.83679592  0.76682770  0.07793408  1  0.020195  0  -0.109763  -0.212966  0  4.011094  0
C  C273  1  0.66320459  0.73317347  0.57793396  1  0.020515  0  -0.109726  -0.212922  0  4.011162  0
C  C274  1  0.16320750  0.23317120  0.92206681  1  0.020435  0  -0.109765  -0.212982  0  4.011162  0
C  C275  1  0.33679811  0.26682661  0.42206492  1  0.020684  0  -0.109726  -0.212877  0  4.01104  0
C  C276  1  0.88611673  0.82202328  0.10593274  1  -0.131601  0  -0.084272  -0.073291  0  3.99579  0
C  C277  1  0.61388346  0.67797605  0.60593349  1  -0.131589  0  -0.084323  -0.073406  0  3.995755  0
C  C278  1  0.11388614  0.17797740  0.89406729  1  -0.132133  0  -0.084284  -0.073296  0  3.99576  0
C  C279  1  0.38611515  0.32202108  0.39406510  1  -0.131967  0  -0.084353  -0.07345  0  3.995806  0
C  C280  1  0.03260158  0.83355940  0.11716945  1  0.036862  0  -0.033382  -0.067151  0  3.99833  0
C  C281  1  0.46739725  0.66644040  0.61716869  1  0.036903  0  -0.03334  -0.067021  0  3.998168  0
C  C282  1  0.96740129  0.16644128  0.88283086  1  0.036904  0  -0.0333  -0.067084  0  3.998144  0
C  C283  1  0.53260011  0.33355614  0.38282933  1  0.036821  0  -0.033328  -0.066909  0  3.998092  0
C  C284  1  0.12773946  0.78873429  0.09975592  1  -0.034446  0  -0.088026  -0.074033  0  4.005666  0
C  C285  1  0.37226084  0.71126732  0.59975594  1  -0.034465  0  -0.088016  -0.074006  0  4.005645  0
C  C286  1  0.87226375  0.21126757  0.90024468  1  -0.034406  0  -0.088007  -0.074016  0  4.005563  0
C  C287  1  0.62774258  0.28873158  0.40024123  1  -0.034637  0  -0.088032  -0.074183  0  4.005595  0
C  C288  1  0.08082978  0.73481147  0.07078835  1  -0.028531  0  -0.115325  -0.233174  0  4.023533  0
C  C289  1  0.41916997  0.76518903  0.57078778  1  -0.028443  0  -0.115338  -0.233214  0  4.023564  0
C  C290  1  0.91917291  0.26518861  0.92921197  1  -0.028535  0  -0.115345  -0.233235  0  4.023644  0
C  C291  1  0.58083220  0.23480928  0.42921025  1  -0.028497  0  -0.115437  -0.233307  0  4.02339  0
C  C292  1  0.08991513  0.89529403  0.14603058  1  1.589154  0  0.203825  0.590752  0  4.222926  0
C  C293  1  0.41008087  0.60470629  0.64602984  1  1.589134  0  0.203807  0.590671  0  4.223012  0
C  C294  1  0.91008614  0.10470487  0.85396974  1  1.589169  0  0.203804  0.590738  0  4.222885  0
C  C295  1  0.58991826  0.39529262  0.35396848  1  1.589201  0  0.203798  0.590572  0  4.22308  0
C  C296  1  0.98513309  0.44188511  0.84479069  1  0.373309  0  0.082001  0.255747  0  4.08369  0
C  C297  1  0.51486693  0.05811595  0.34479050  1  0.3733  0  0.082013  0.255732  0  4.083772  0
C  C298  1  0.01486317  0.55811498  0.15520905  1  0.373461  0  0.082027  0.255767  0  4.083675  0
C  C299  1  0.48513666  0.94188354  0.65520981  1  0.373567  0  0.08207  0.255798  0  4.083626  0
C  C300  1  0.06672856  0.37968644  0.84233984  1  0.014778  0  -0.107716  -0.205968  0  3.997079  0
C  C301  1  0.43327129  0.12031217  0.34233955  1  0.014357  0  -0.107781  -0.206011  0  3.997212  0
C  C302  1  0.93326593  0.62031129  0.15766047  1  0.014501  0  -0.107755  -0.205985  0  3.997235  0
C  C303  1  0.56673161  0.87968496  0.65766048  1  0.014828  0  -0.107683  -0.205839  0  3.997134  0
C  C304  1  0.14570853  0.37095997  0.80946916  1  -0.098601  0  -0.08147  -0.066784  0  3.989135  0
C  C305  1  0.35428964  0.12904109  0.30946967  1  -0.098613  0  -0.081419  -0.066776  0  3.989138  0
C  C306  1  0.85428060  0.62903777  0.19052944  1  -0.098843  0  -0.081414  -0.066893  0  3.989281  0
C  C307  1  0.64571326  0.87095604  0.69053064  1  -0.099031  0  -0.081566  -0.067128  0  3.989261  0
C  C308  1  0.14689324  0.42424834  0.77882212  1  0.001138  0  -0.032212  -0.065649  0  4.004193  0
C  C309  1  0.35310865  0.07575161  0.27882210  1  0.001523  0  -0.032208  -0.065614  0  4.004336  0
C  C310  1  0.85310056  0.57574703  0.22117705  1  0.000799  0  -0.032232  -0.065586  0  4.004283  0
C  C311  1  0.64689137  0.92424671  0.72117850  1  0.00155  0  -0.032188  -0.065522  0  4.004147  0
C  C312  1  0.06071484  0.48410086  0.78112418  1  -0.037828  0  -0.081757  -0.054027  0  3.970833  0
C  C313  1  0.43928133  0.01590145  0.28112425  1  -0.038222  0  -0.081793  -0.054129  0  3.971009  0
C  C314  1  0.93927464  0.51589806  0.21887471  1  -0.037757  0  -0.081814  -0.054169  0  3.970958  0
C  C315  1  0.56072244  0.98409863  0.71887606  1  -0.038234  0  -0.0818  -0.05411  0  3.970972  0
C  C316  1  0.97834412  0.49280835  0.81369754  1  -0.040719  0  -0.112317  -0.234802  0  4.022835  0
C  C317  1  0.52165443  0.00719220  0.31369711  1  -0.040743  0  -0.112277  -0.234735  0  4.02274  0
C  C318  1  0.02165106  0.50719175  0.18630306  1  -0.0407  0  -0.112247  -0.234646  0  4.022782  0
C  C319  1  0.47834774  0.99280611  0.68630321  1  -0.040717  0  -0.112232  -0.23468  0  4.022794  0
C  C320  1  0.24385624  0.41900807  0.74551419  1  1.488219  0  0.194532  0.570264  0  4.217166  0
C  C321  1  0.25614164  0.08099374  0.24551412  1  1.488036  0  0.194471  0.570244  0  4.217156  0
C  C322  1  0.75613323  0.58099085  0.25448498  1  1.488697  0  0.194577  0.57036  0  4.216934  0
C  C323  1  0.74386285  0.91900516  0.75448591  1  1.48842  0  0.194349  0.570058  0  4.217315  0
C  C324  1  0.42125113  0.93911825  0.08439123  1  1.351318  0  0.166231  0.294215  0  4.120954  0
C  C325  1  0.07875637  0.56088635  0.58439091  1  1.351558  0  0.166248  0.294304  0  4.120917  0
C  C326  1  0.57875177  0.06087888  0.91560879  1  1.35123  0  0.166225  0.294296  0  4.12089  0
C  C327  1  0.92124079  0.43911316  0.41560826  1  1.351336  0  0.166225  0.294253  0  4.12098  0
C  C328  1  0.33380966  0.91624795  0.01905670  1  0.265673  0  -0.127234  -0.272696  0  3.937783  0
C  C329  1  0.16619242  0.58375090  0.51905469  1  0.264381  0  -0.127201  -0.272728  0  3.937712  0
C  C330  1  0.66619379  0.08374740  0.98094333  1  0.264315  0  -0.127205  -0.2728  0  3.937954  0
C  C331  1  0.83380868  0.41624741  0.48094505  1  0.264515  0  -0.12723  -0.272695  0  3.93777  0
C  C332  1  0.55979609  0.86897641  0.04039838  1  0.243612  0  -0.13194  -0.271137  0  3.907651  0
C  C333  1  0.94020252  0.63102663  0.54039649  1  0.243617  0  -0.131905  -0.271019  0  3.907615  0
C  C334  1  0.44020822  0.13102190  0.95960251  1  0.243614  0  -0.131907  -0.271064  0  3.907504  0
C  C335  1  0.05979820  0.36897405  0.45960211  1  0.243613  0  -0.131982  -0.271261  0  3.90771  0
C  C336  1  0.38103624  0.82233974  0.21726740  1  1.377676  0  0.17674  0.318181  0  4.101385  0
C  C337  1  0.11896188  0.67765864  0.71726959  1  1.377588  0  0.176798  0.318157  0  4.101205  0
C  C338  1  0.61895341  0.17765978  0.78273349  1  1.377131  0  0.176696  0.318173  0  4.101312  0
C  C339  1  0.88103991  0.32234204  0.28273158  1  1.377854  0  0.176745  0.31804  0  4.101326  0
C  C340  1  0.51452278  0.72663386  0.18833108  1  0.213824  0  -0.134626  -0.275394  0  3.884961  0
C  C341  1  0.98548120  0.77336526  0.68832968  1  0.213652  0  -0.134658  -0.27551  0  3.885099  0
C  C342  1  0.48547403  0.27336446  0.81167066  1  0.213681  0  -0.134696  -0.275581  0  3.884971  0
C  C343  1  0.01452737  0.22663659  0.31166863  1  0.213698  0  -0.13462  -0.275407  0  3.884873  0
C  C344  1  0.27722542  0.68306086  0.22020794  1  0.296158  0  -0.130912  -0.272205  0  3.906018  0
C  C345  1  0.22277397  0.81693809  0.72020893  1  0.296168  0  -0.130955  -0.272265  0  3.905898  0
C  C346  1  0.72277173  0.31693864  0.77979238  1  0.296207  0  -0.130821  -0.272191  0  3.905834  0
C  C347  1  0.77722658  0.18306199  0.27979167  1  0.296197  0  -0.130835  -0.272078  0  3.905725  0
C  C348  1  0.73776129  0.03421465  0.18432297  1  1.04806  0  0.137373  0.187043  0  4.025965  0
C  C349  1  0.76223292  0.46578918  0.68432244  1  1.048471  0  0.137372  0.187003  0  4.025809  0
C  C350  1  0.26223746  0.96578662  0.81567706  1  1.048111  0  0.137413  0.18715  0  4.025854  0
C  C351  1  0.23776188  0.53421328  0.31567558  1  1.047851  0  0.137419  0.187104  0  4.025943  0
C  C352  1  0.80211235  0.16165603  0.18302208  1  0.381839  0  0.077604  0.142586  0  4.062844  0
C  C353  1  0.69788670  0.33834602  0.68302105  1  0.381202  0  0.077542  0.142409  0  4.062998  0
C  C354  1  0.19788820  0.83834406  0.81697852  1  0.381641  0  0.077526  0.142436  0  4.062983  0
C  C355  1  0.30211188  0.66165466  0.31697726  1  0.381697  0  0.077473  0.14241  0  4.062963  0
C  C356  1  0.87400459  0.23979535  0.18217249  1  0.019701  0  -0.101187  -0.168178  0  4.003587  0
C  C357  1  0.62599175  0.26020848  0.68217347  1  0.019494  0  -0.101128  -0.168139  0  4.003542  0
C  C358  1  0.12599433  0.76020651  0.81782783  1  0.019262  0  -0.101195  -0.168185  0  4.003627  0
C  C359  1  0.37400662  0.73979516  0.31782598  1  0.019366  0  -0.10114  -0.168128  0  4.003407  0
C  C360  1  0.78803774  0.29946547  0.18278996  1  -0.078234  0  -0.115633  -0.118591  0  4.093689  0
C  C361  1  0.71196452  0.20053658  0.68279018  1  -0.078288  0  -0.115633  -0.11854  0  4.093445  0
C  C362  1  0.21196440  0.70053639  0.81721064  1  -0.07809  0  -0.115652  -0.118641  0  4.093514  0
C  C363  1  0.28803441  0.79946528  0.31720985  1  -0.078184  0  -0.115622  -0.118577  0  4.093486  0
C  C364  1  0.63494980  0.28196981  0.18458983  1  -0.099729  0  -0.109585  -0.106849  0  4.074691  0
C  C365  1  0.86505082  0.21803755  0.68458897  1  -0.099598  0  -0.109547  -0.106789  0  4.074672  0
C  C366  1  0.36505196  0.71803441  0.81541020  1  -0.099739  0  -0.109551  -0.106805  0  4.074525  0
C  C367  1  0.13494738  0.78196549  0.31541134  1  -0.099436  0  -0.109557  -0.106804  0  4.074514  0
C  C368  1  0.56243376  0.20434166  0.18531037  1  0.065114  0  -0.102712  -0.171586  0  4.005079  0
C  C369  1  0.93756278  0.29566276  0.68530950  1  0.064958  0  -0.10275  -0.171581  0  4.005125  0
C  C370  1  0.43756624  0.79566020  0.81468995  1  0.064849  0  -0.102694  -0.171522  0  4.005021  0
C  C371  1  0.06243435  0.70434029  0.31468996  1  0.064926  0  -0.10269  -0.171526  0  4.004989  0
C  C372  1  0.64767256  0.14388693  0.18406708  1  0.404265  0  0.076782  0.14148  0  4.060228  0
C  C373  1  0.85232414  0.35611808  0.68406669  1  0.4047  0  0.076891  0.141663  0  4.059963  0
C  C374  1  0.35232671  0.85611611  0.81593238  1  0.404675  0  0.076833  0.141607  0  4.060137  0
C  C375  1  0.14767513  0.64388497  0.31593162  1  0.404721  0  0.076809  0.141538  0  4.060241  0
N  N376  1  0.44038812  0.91136662  0.04892370  1  -1.200345  0  -0.289986  0.009995  0  3.731343  0
N  N377  1  0.05961182  0.58863513  0.54892220  1  -1.200214  0  -0.289983  0.009995  0  3.73119  0
N  N378  1  0.55961478  0.08863051  0.95107633  1  -1.200285  0  -0.290085  0.009934  0  3.731431  0
N  N379  1  0.94038748  0.41136437  0.45107697  1  -1.200206  0  -0.289974  0.009931  0  3.731274  0
N  N380  1  0.39013361  0.74733472  0.20890489  1  -1.19977  0  -0.276496  0.04094  0  3.714077  0
N  N381  1  0.10986677  0.75266426  0.70890501  1  -1.19972  0  -0.276493  0.041001  0  3.713991  0
N  N382  1  0.60986264  0.25266538  0.79109657  1  -1.199275  0  -0.276447  0.041061  0  3.713786  0
N  N383  1  0.89013717  0.24733641  0.29109502  1  -1.199974  0  -0.276459  0.041032  0  3.713865  0
N  N384  1  0.61063993  0.06220048  0.18471037  1  -1.247935  0  -0.382524  -0.399004  0  3.51878  0
N  N385  1  0.88935553  0.43780394  0.68470937  1  -1.248298  0  -0.382582  -0.399108  0  3.518536  0
N  N386  1  0.38936007  0.93780138  0.81528966  1  -1.247913  0  -0.382644  -0.399235  0  3.518792  0
N  N387  1  0.11064070  0.56219970  0.31528923  1  -1.248169  0  -0.382549  -0.399134  0  3.518777  0
N  N388  1  0.85558728  0.09060251  0.18356896  1  -1.258502  0  -0.382924  -0.387165  0  3.529928  0
N  N389  1  0.64440980  0.40940013  0.68356899  1  -1.258023  0  -0.382962  -0.387077  0  3.529991  0
N  N390  1  0.14441272  0.90939935  0.81643106  1  -1.258343  0  -0.382885  -0.387107  0  3.529897  0
N  N391  1  0.35558715  0.59060232  0.31642875  1  -1.258367  0  -0.38294  -0.387135  0  3.530025  0
O  O392  1  0.31308676  0.06681091  0.12925521  1  -1.203344  0  -0.341227  -0.612984  0  2.355858  0
O  O393  1  0.18691317  0.43318999  0.62925496  1  -1.203407  0  -0.341195  -0.612936  0  2.356013  0
O  O394  1  0.68691451  0.93318799  0.87074396  1  -1.203615  0  -0.341233  -0.613099  0  2.3559  0
O  O395  1  0.81308880  0.56681127  0.37074536  1  -1.203288  0  -0.341239  -0.613008  0  2.355915  0
O  O396  1  0.17940981  0.16328745  0.13977986  1  -1.152358  0  -0.336703  -0.554077  0  2.213564  0
O  O397  1  0.32059037  0.33671402  0.63977918  1  -1.152548  0  -0.336709  -0.554035  0  2.213467  0
O  O398  1  0.82059147  0.83671145  0.86022132  1  -1.152256  0  -0.336647  -0.554066  0  2.213567  0
O  O399  1  0.67941177  0.66328784  0.36022028  1  -1.152616  0  -0.336654  -0.554009  0  2.213594  0
O  O400  1  0.61128846  0.33170278  0.01402699  1  -1.067811  0  -0.189421  -0.224746  0  2.524166  0
O  O401  1  0.88870565  0.16829792  0.51402791  1  -1.067807  0  -0.189459  -0.224796  0  2.524268  0
O  O402  1  0.38870797  0.66829790  0.98597303  1  -1.067801  0  -0.189485  -0.224852  0  2.524099  0
O  O403  1  0.11129096  0.83170336  0.48597269  1  -1.067774  0  -0.189427  -0.224744  0  2.524236  0
O  O404  1  0.00854881  0.94563785  0.15487038  1  -1.175991  0  -0.335216  -0.564231  0  2.268761  0
O  O405  1  0.49144299  0.55435892  0.65486887  1  -1.175819  0  -0.335142  -0.564149  0  2.268813  0
O  O406  1  0.99145015  0.05436047  0.84513022  1  -1.176025  0  -0.335169  -0.564176  0  2.268766  0
O  O407  1  0.50854970  0.44564000  0.34513059  1  -1.175869  0  -0.335192  -0.564162  0  2.268748  0
O  O408  1  0.21723083  0.89229490  0.15872380  1  -1.178613  0  -0.340342  -0.582923  0  2.343019  0
O  O409  1  0.28276969  0.60770952  0.65872327  1  -1.178695  0  -0.340363  -0.58291  0  2.343034  0
O  O410  1  0.78276955  0.10770459  0.84127651  1  -1.178582  0  -0.340377  -0.582972  0  2.342989  0
O  O411  1  0.71722906  0.39229175  0.34127533  1  -1.178717  0  -0.340319  -0.582859  0  2.343088  0
O  O412  1  0.87589982  0.67269862  0.03202770  1  -1.070333  0  -0.183035  -0.20558  0  2.533691  0
O  O413  1  0.62410233  0.82730207  0.53202749  1  -1.070326  0  -0.183063  -0.205613  0  2.533644  0
O  O414  1  0.12410412  0.32730206  0.96797290  1  -1.070389  0  -0.183028  -0.205557  0  2.533567  0
O  O415  1  0.37590251  0.17269801  0.46797168  1  -1.070283  0  -0.183041  -0.205547  0  2.533704  0
O  O416  1  0.24917256  0.47335787  0.71919122  1  -1.148923  0  -0.351666  -0.606025  0  2.387935  0
O  O417  1  0.25082247  0.02664224  0.21919147  1  -1.148879  0  -0.351658  -0.606039  0  2.387812  0
O  O418  1  0.75081854  0.52663928  0.28080766  1  -1.148911  0  -0.351645  -0.606046  0  2.387685  0
O  O419  1  0.74917970  0.97335608  0.78080856  1  -1.149284  0  -0.351632  -0.605983  0  2.387781  0
O  O420  1  0.32314904  0.36593009  0.74336179  1  -1.148463  0  -0.323371  -0.547422  0  2.133459  0
O  O421  1  0.17685132  0.13407290  0.24336106  1  -1.148334  0  -0.323309  -0.547378  0  2.133542  0
O  O422  1  0.67684490  0.63406942  0.25663795  1  -1.148573  0  -0.323404  -0.54747  0  2.133451  0
O  O423  1  0.82314996  0.86592600  0.75663897  1  -1.148354  0  -0.323235  -0.54728  0  2.13364  0
O  O424  1  0.91704830  0.44793277  0.87904208  1  -1.065568  0  -0.179147  -0.207646  0  2.557435  0
O  O425  1  0.58295020  0.05206585  0.37904193  1  -1.065571  0  -0.179093  -0.207558  0  2.557448  0
O  O426  1  0.08294779  0.55206674  0.12095824  1  -1.065716  0  -0.179139  -0.207657  0  2.557359  0
O  O427  1  0.41705429  0.94793305  0.62095782  1  -1.065753  0  -0.179202  -0.207723  0  2.557346  0
O  O428  1  0.50269833  0.93297096  0.11222682  1  -1.154215  0  -0.309032  -0.459735  0  2.246159  0
O  O429  1  0.99730969  0.56703662  0.61222472  1  -1.1545  0  -0.309071  -0.459762  0  2.246241  0
O  O430  1  0.49730385  0.06702735  0.88777349  1  -1.154166  0  -0.30903  -0.459792  0  2.246203  0
O  O431  1  0.00268442  0.43296348  0.38777359  1  -1.154298  0  -0.309055  -0.459754  0  2.246354  0
O  O432  1  0.47757626  0.87994716  0.20915954  1  -1.178628  0  -0.32654  -0.494854  0  2.308737  0
O  O433  1  0.02242289  0.62005123  0.70916057  1  -1.178594  0  -0.326555  -0.494863  0  2.308678  0
O  O434  1  0.52241267  0.12005354  0.79084249  1  -1.178744  0  -0.326553  -0.494942  0  2.308846  0
O  O435  1  0.97757926  0.37995063  0.29084003  1  -1.178666  0  -0.326531  -0.494818  0  2.308716  0
