# generated using pymatgen
data_CuH19C24SNO6
_symmetry_space_group_name_H-M   'P 1'
_cell_length_a   12.93565043
_cell_length_b   13.29927797
_cell_length_c   24.57330509
_cell_angle_alpha   90.00000885
_cell_angle_beta   89.99972766
_cell_angle_gamma   89.99992698
_symmetry_Int_Tables_number   1
_chemical_formula_structural   CuH19C24SNO6
_chemical_formula_sum   'Cu8 H152 C192 S8 N8 O48'
_cell_volume   4227.46389276
_cell_formula_units_Z   8
loop_
 _symmetry_equiv_pos_site_id
 _symmetry_equiv_pos_as_xyz
  1  'x, y, z'
loop_
 _atom_site_type_symbol
 _atom_site_label
 _atom_site_symmetry_multiplicity
 _atom_site_fract_x
 _atom_site_fract_y
 _atom_site_fract_z
 _atom_site_occupancy
 _atom_site_pbe_bader_charge
 _atom_site_pbe_bader_spin_density
 _atom_site_pbe_cm5_charge
 _atom_site_pbe_ddec_charge
 _atom_site_pbe_ddec_spin_density
 _atom_site_pbe_ddec_sum_bond_order
 _atom_site_pbe_magmom
Cu  Cu0  1  0.48477060  0.05126946  0.45711251  1  1.103323  0.573519  0.692031  0.860148  0.730053  2.23434  0.574
Cu  Cu1  1  0.01523725  0.55126608  0.54288953  1  1.103817  0.573533  0.692078  0.860288  0.73005  2.234051  0.574
Cu  Cu2  1  0.51523273  0.44873545  0.95711523  1  1.103313  0.573509  0.692071  0.860151  0.730047  2.234306  0.574
Cu  Cu3  1  0.98476219  0.94873361  0.04288966  1  1.103773  0.573537  0.692099  0.86024  0.730055  2.234237  0.574
Cu  Cu4  1  0.51523581  0.94873246  0.54289055  1  1.103826  0.573537  0.692056  0.860145  0.730052  2.23432  0.574
Cu  Cu5  1  0.98476529  0.44873208  0.45711190  1  1.103299  0.573517  0.692062  0.860129  0.730051  2.2343  0.574
Cu  Cu6  1  0.48476363  0.55126798  0.04288823  1  1.103828  0.573531  0.692075  0.86012  0.730046  2.234328  0.574
Cu  Cu7  1  0.01523417  0.05126756  0.95711340  1  1.103305  0.573514  0.692071  0.860105  0.730049  2.234369  0.574
H  H8  1  0.70411909  0.30187842  0.49961568  1  0.12553  0.000629  0.117191  0.125863  0.000483  0.992133  0.0
H  H9  1  0.79587989  0.80187995  0.50038635  1  0.125497  0.000629  0.117193  0.125812  0.000483  0.992076  0.0
H  H10  1  0.29587922  0.19811672  0.99961487  1  0.125521  0.000629  0.11722  0.125865  0.000483  0.992065  0.0
H  H11  1  0.20411838  0.69812048  0.00038556  1  0.125523  0.000629  0.117202  0.125823  0.000483  0.99216  0.0
H  H12  1  0.29588346  0.69812350  0.50038697  1  0.125453  0.000629  0.117231  0.125824  0.000483  0.992077  0.0
H  H13  1  0.20411879  0.19812197  0.49961509  1  0.125541  0.000629  0.117193  0.125828  0.000483  0.992087  0.0
H  H14  1  0.70411714  0.80187543  0.00038738  1  0.125429  0.000629  0.11722  0.125812  0.000483  0.992096  0.0
H  H15  1  0.79588184  0.30188370  0.99961506  1  0.125509  0.000629  0.117214  0.125838  0.000483  0.99213  0.0
H  H16  1  0.77085868  0.45787108  0.64908675  1  0.126811  0.000384  0.11255  0.124228  0.000314  1.016815  0.0
H  H17  1  0.72914242  0.95787114  0.35091570  1  0.126814  0.000384  0.112496  0.124183  0.000314  1.016814  0.0
H  H18  1  0.22914047  0.04213149  0.14908955  1  0.126776  0.000383  0.112554  0.124218  0.000314  1.016876  0.0
H  H19  1  0.27085734  0.54212862  0.85091412  1  0.126807  0.000384  0.112529  0.124202  0.000314  1.016789  0.0
H  H20  1  0.22914310  0.54213310  0.35091590  1  0.126876  0.000384  0.1125  0.124184  0.000314  1.016823  0.0
H  H21  1  0.27085703  0.04213303  0.64908777  1  0.127055  0.000384  0.112539  0.124171  0.000314  1.016834  0.0
H  H22  1  0.77085667  0.95786968  0.85091758  1  0.126897  0.000384  0.112484  0.124117  0.000314  1.016883  0.0
H  H23  1  0.72914056  0.45786879  0.14909016  1  0.126761  0.000384  0.112539  0.12414  0.000314  1.01683  0.0
H  H24  1  0.55866541  0.20925245  0.64901538  1  0.109791  0.000234  0.111984  0.117745  0.000162  1.02526  0.0
H  H25  1  0.94132596  0.70924323  0.35098704  1  0.109767  0.000234  0.111967  0.117764  0.000162  1.0254  0.0
H  H26  1  0.44132445  0.29075463  0.14901279  1  0.109795  0.000234  0.111969  0.11772  0.000162  1.025434  0.0
H  H27  1  0.05867303  0.79075203  0.85098805  1  0.109823  0.000234  0.111971  0.117849  0.000162  1.025352  0.0
H  H28  1  0.44132863  0.79075699  0.35098768  1  0.10975  0.000234  0.111994  0.117816  0.000162  1.025422  0.0
H  H29  1  0.05866885  0.29075268  0.64901520  1  0.109769  0.000234  0.111977  0.117712  0.000162  1.025308  0.0
H  H30  1  0.55867345  0.70924428  0.85098661  1  0.109804  0.000234  0.11196  0.117719  0.000162  1.025411  0.0
H  H31  1  0.94132256  0.20924689  0.14901338  1  0.10981  0.000234  0.111958  0.11774  0.000162  1.025469  0.0
H  H32  1  0.76340239  0.26067169  0.88268618  1  0.113996  -4e-06  0.116711  0.12085  -5e-06  0.977881  0.0
H  H33  1  0.73658505  0.76066717  0.11731463  1  0.11419  -4e-06  0.116744  0.121  -5e-06  0.977865  0.0
H  H34  1  0.23659774  0.23933245  0.38269060  1  0.113826  -4e-06  0.116771  0.12092  -5e-06  0.977776  0.0
H  H35  1  0.26341140  0.73933329  0.61731512  1  0.114078  -4e-06  0.11676  0.121049  -5e-06  0.977787  0.0
H  H36  1  0.23658006  0.73932873  0.11731647  1  0.114206  -4e-06  0.116778  0.121024  -5e-06  0.977867  0.0
H  H37  1  0.26341054  0.23932949  0.88268680  1  0.114214  -4e-06  0.116761  0.120969  -5e-06  0.977734  0.0
H  H38  1  0.76340867  0.76066346  0.61731408  1  0.114053  -4e-06  0.116749  0.121002  -5e-06  0.977843  0.0
H  H39  1  0.73659269  0.26066487  0.38268957  1  0.114083  -4e-06  0.116731  0.120942  -5e-06  0.977754  0.0
H  H40  1  0.85627467  0.11173948  0.84593113  1  0.130319  5.5e-05  0.102842  0.115775  6.2e-05  1.031082  0.0
H  H41  1  0.64371760  0.61173358  0.15407048  1  0.127445  5.5e-05  0.102829  0.115776  6.2e-05  1.03102  0.0
H  H42  1  0.14372502  0.38826164  0.34593621  1  0.130491  5.5e-05  0.102798  0.115752  6.2e-05  1.031068  0.0
H  H43  1  0.35627929  0.88826688  0.65407115  1  0.127505  5.5e-05  0.102822  0.115757  6.2e-05  1.030972  0.0
H  H44  1  0.14371859  0.88826394  0.15407071  1  0.127476  5.5e-05  0.102811  0.115752  6.2e-05  1.031093  0.0
H  H45  1  0.35628494  0.38826007  0.84593055  1  0.127401  5.5e-05  0.102819  0.115741  6.2e-05  1.030997  0.0
H  H46  1  0.85627598  0.61173051  0.65407092  1  0.130302  5.5e-05  0.102825  0.115762  6.2e-05  1.031069  0.0
H  H47  1  0.64372170  0.11173353  0.34593435  1  0.130424  5.5e-05  0.102797  0.115705  6.2e-05  1.031089  0.0
H  H48  1  0.83433887  0.06873640  0.74665920  1  0.078178  -0.0  0.09682  0.093198  -4e-06  1.0468  0.0
H  H49  1  0.66566969  0.56872749  0.25334077  1  0.078322  -0.0  0.096879  0.093264  -4e-06  1.046855  0.0
H  H50  1  0.16566094  0.43126470  0.24666464  1  0.077622  -0.0  0.096844  0.093238  -4e-06  1.04674  0.0
H  H51  1  0.33433559  0.93126849  0.75334314  1  0.07811  -0.0  0.09682  0.093202  -4e-06  1.046885  0.0
H  H52  1  0.16567372  0.93127455  0.25333938  1  0.078295  -0.0  0.096853  0.093221  -4e-06  1.046919  0.0
H  H53  1  0.33434677  0.43126165  0.74665862  1  0.078153  -0.0  0.096764  0.093107  -4e-06  1.046823  0.0
H  H54  1  0.83433387  0.56873271  0.75334290  1  0.078158  -0.0  0.096834  0.093265  -4e-06  1.04679  0.0
H  H55  1  0.66566000  0.06873418  0.24666236  1  0.078185  -0.0  0.096844  0.093235  -4e-06  1.046763  0.0
H  H56  1  0.73452809  0.17691074  0.68668164  1  0.099825  -8e-06  0.104522  0.11573  -1.5e-05  1.059151  0.0
H  H57  1  0.76548265  0.67690248  0.31331630  1  0.099814  -8e-06  0.104549  0.115749  -1.5e-05  1.059051  0.0
H  H58  1  0.26547149  0.32309334  0.18668601  1  0.099869  -8e-06  0.104617  0.115859  -1.5e-05  1.059066  0.0
H  H59  1  0.23452286  0.82309277  0.81331891  1  0.099737  -8e-06  0.104539  0.11574  -1.5e-05  1.059037  0.0
H  H60  1  0.26548605  0.82310246  0.31331653  1  0.100221  -8e-06  0.104552  0.115751  -1.5e-05  1.05903  0.0
H  H61  1  0.23453380  0.32308891  0.68668146  1  0.099752  -8e-06  0.104515  0.115744  -1.5e-05  1.05916  0.0
H  H62  1  0.73452255  0.67690632  0.81331827  1  0.099766  -8e-06  0.104539  0.115743  -1.5e-05  1.059056  0.0
H  H63  1  0.76547118  0.17690690  0.18668415  1  0.099897  -8e-06  0.104574  0.115822  -1.5e-05  1.059048  0.0
H  H64  1  0.53178295  0.46845902  0.64744340  1  0.102856  6e-06  0.10459  0.110639  -8e-06  1.058016  0.0
H  H65  1  0.96821890  0.96844751  0.35255743  1  0.102803  6e-06  0.104578  0.110668  -8e-06  1.058022  0.0
H  H66  1  0.46821620  0.03155332  0.14743949  1  0.102749  6e-06  0.104594  0.110677  -8e-06  1.057873  0.0
H  H67  1  0.03178626  0.53154699  0.85255807  1  0.102793  6e-06  0.104555  0.110595  -8e-06  1.058059  0.0
H  H68  1  0.46821650  0.53155418  0.35255966  1  0.102744  6e-06  0.104554  0.110616  -8e-06  1.057993  0.0
H  H69  1  0.03178441  0.03154839  0.64744034  1  0.102772  6e-06  0.104606  0.110653  -8e-06  1.057981  0.0
H  H70  1  0.53178093  0.96844935  0.85255828  1  0.102804  6e-06  0.104585  0.110621  -8e-06  1.05807  0.0
H  H71  1  0.96821783  0.46844666  0.14744092  1  0.102765  6e-06  0.104565  0.110611  -8e-06  1.058034  0.0
H  H72  1  0.42271826  0.60961337  0.67421161  1  0.065814  1e-06  0.105313  0.103779  -2e-06  1.014903  0.0
H  H73  1  0.07728565  0.10960519  0.32578636  1  0.065943  1e-06  0.105258  0.103792  -2e-06  1.014858  0.0
H  H74  1  0.57728541  0.89039763  0.17420950  1  0.065922  1e-06  0.105241  0.10374  -2e-06  1.01476  0.0
H  H75  1  0.92271732  0.39039291  0.82578847  1  0.065882  1e-06  0.105276  0.103767  -2e-06  1.014809  0.0
H  H76  1  0.57728738  0.39040058  0.32578819  1  0.065966  1e-06  0.105252  0.103756  -2e-06  1.014836  0.0
H  H77  1  0.92271380  0.89039372  0.67421222  1  0.065948  1e-06  0.105263  0.103773  -2e-06  1.01479  0.0
H  H78  1  0.42271172  0.10960279  0.82578746  1  0.065985  1e-06  0.105239  0.103773  -2e-06  1.014825  0.0
H  H79  1  0.07728677  0.60960375  0.17421093  1  0.065944  1e-06  0.105266  0.103768  -2e-06  1.014792  0.0
H  H80  1  0.40420847  0.65829875  0.77200516  1  0.087353  -1e-06  0.096409  0.098752  -6e-06  1.031454  0.0
H  H81  1  0.09578377  0.15828751  0.22799567  1  0.085799  -1e-06  0.096422  0.098729  -6e-06  1.031441  0.0
H  H82  1  0.59578891  0.84171529  0.27200055  1  0.085823  -1e-06  0.096435  0.098767  -6e-06  1.031444  0.0
H  H83  1  0.90421311  0.34170831  0.72799538  1  0.087534  -1e-06  0.096432  0.098747  -6e-06  1.031421  0.0
H  H84  1  0.59578789  0.34171596  0.22799749  1  0.085811  -1e-06  0.096414  0.09872  -6e-06  1.031467  0.0
H  H85  1  0.90420872  0.84171591  0.77200413  1  0.085566  -1e-06  0.096411  0.098769  -6e-06  1.031379  0.0
H  H86  1  0.40421209  0.15828513  0.72799518  1  0.085606  -1e-06  0.096382  0.098663  -6e-06  1.03144  0.0
H  H87  1  0.09578788  0.65828534  0.27200239  1  0.085828  -1e-06  0.096402  0.09869  -6e-06  1.031495  0.0
H  H88  1  0.50117976  0.55923542  0.84258650  1  0.107942  -2e-05  0.107706  0.115917  -2.1e-05  1.039415  0.0
H  H89  1  0.99881258  0.05923645  0.15741428  1  0.107987  -2e-05  0.107751  0.115977  -2.1e-05  1.039393  0.0
H  H90  1  0.49882317  0.94076509  0.34258378  1  0.10785  -2e-05  0.107719  0.115921  -2.1e-05  1.039433  0.0
H  H91  1  0.00118726  0.44076537  0.65741382  1  0.107991  -2e-05  0.107758  0.115962  -2.1e-05  1.039406  0.0
H  H92  1  0.49881428  0.44076575  0.15741534  1  0.108015  -2e-05  0.107704  0.115895  -2.1e-05  1.039515  0.0
H  H93  1  0.00117605  0.94076848  0.84258674  1  0.107753  -2e-05  0.10772  0.115921  -2.1e-05  1.039516  0.0
H  H94  1  0.50118788  0.05923232  0.65741359  1  0.107978  -2e-05  0.107751  0.115946  -2.1e-05  1.039533  0.0
H  H95  1  0.99881760  0.55923580  0.34258435  1  0.108033  -2e-05  0.107726  0.115925  -2.1e-05  1.039455  0.0
H  H96  1  0.65452161  0.59443720  0.55412165  1  0.031466  6e-06  0.088641  0.119165  -6e-06  1.031776  0.0
H  H97  1  0.84548769  0.09443023  0.44587140  1  0.031697  6e-06  0.088617  0.119112  -6e-06  1.031706  0.0
H  H98  1  0.34547309  0.90556023  0.05412826  1  0.03157  6e-06  0.088634  0.119178  -6e-06  1.031645  0.0
H  H99  1  0.15453042  0.40555814  0.94587584  1  0.031522  6e-06  0.088639  0.119139  -6e-06  1.031715  0.0
H  H100  1  0.34548557  0.40556622  0.44587082  1  0.031723  6e-06  0.088641  0.119138  -6e-06  1.031708  0.0
H  H101  1  0.15452490  0.90556192  0.55411701  1  0.031556  6e-06  0.088628  0.119158  -6e-06  1.031728  0.0
H  H102  1  0.65452636  0.09444169  0.94587073  1  0.031617  6e-06  0.088638  0.119146  -6e-06  1.03167  0.0
H  H103  1  0.84547908  0.59443251  0.05412599  1  0.031527  6e-06  0.088599  0.119111  -6e-06  1.031772  0.0
H  H104  1  0.59826977  0.64307823  0.61814079  1  0.057068  -4e-06  0.086041  0.118546  -1.1e-05  1.052831  0.0
H  H105  1  0.90173329  0.14307192  0.38185227  1  0.057054  -4e-06  0.08601  0.118415  -1.1e-05  1.052856  0.0
H  H106  1  0.40172590  0.85691847  0.11814603  1  0.056892  -4e-06  0.086011  0.118512  -1.1e-05  1.052789  0.0
H  H107  1  0.09827536  0.35692018  0.88185685  1  0.056992  -4e-06  0.086029  0.118528  -1.1e-05  1.052759  0.0
H  H108  1  0.40173664  0.35692519  0.38185250  1  0.057042  -4e-06  0.086024  0.118451  -1.1e-05  1.052891  0.0
H  H109  1  0.09827312  0.85692023  0.61813614  1  0.057199  -4e-06  0.086097  0.118634  -1.1e-05  1.052854  0.0
H  H110  1  0.59827123  0.14307894  0.88185173  1  0.05685  -4e-06  0.085956  0.118393  -1.1e-05  1.052903  0.0
H  H111  1  0.90173105  0.64307271  0.11814458  1  0.057112  -4e-06  0.086017  0.11847  -1.1e-05  1.052814  0.0
H  H112  1  0.42227262  0.62836701  0.57892325  1  0.058357  8e-06  0.091778  0.121118  5e-06  1.021299  0.0
H  H113  1  0.07773049  0.12837615  0.42106903  1  0.058258  8e-06  0.09181  0.121203  5e-06  1.021288  0.0
H  H114  1  0.57772186  0.87163269  0.07892805  1  0.058498  8e-06  0.091791  0.121134  5e-06  1.021226  0.0
H  H115  1  0.92227935  0.37163100  0.92107357  1  0.058389  8e-06  0.091779  0.121123  5e-06  1.021194  0.0
H  H116  1  0.57773224  0.37162514  0.42107208  1  0.058197  8e-06  0.091781  0.121147  5e-06  1.021342  0.0
H  H117  1  0.92227515  0.87162577  0.57891938  1  0.05836  8e-06  0.091746  0.121087  5e-06  1.02133  0.0
H  H118  1  0.42227605  0.12836548  0.92107053  1  0.058536  8e-06  0.091756  0.121103  5e-06  1.02124  0.0
H  H119  1  0.07772706  0.62836265  0.07892623  1  0.058313  8e-06  0.09175  0.121114  5e-06  1.021339  0.0
H  H120  1  0.47819900  0.58058618  0.51451263  1  0.093233  -3e-06  0.089453  0.115943  -6e-06  1.048906  0.0
H  H121  1  0.02181035  0.08059240  0.48548168  1  0.093013  -3e-06  0.089458  0.115896  -6e-06  1.048847  0.0
H  H122  1  0.52179528  0.91941651  0.01451636  1  0.092895  -3e-06  0.089393  0.115847  -6e-06  1.048831  0.0
H  H123  1  0.97820354  0.41940951  0.98548649  1  0.092864  -3e-06  0.089423  0.11591  -6e-06  1.048843  0.0
H  H124  1  0.52180663  0.41940747  0.48548432  1  0.092918  -3e-06  0.089415  0.115838  -6e-06  1.048917  0.0
H  H125  1  0.97820147  0.91940802  0.51450876  1  0.093614  -3e-06  0.08943  0.115894  -6e-06  1.048919  0.0
H  H126  1  0.47820262  0.08058767  0.98548222  1  0.092991  -3e-06  0.089428  0.11587  -6e-06  1.048907  0.0
H  H127  1  0.02180286  0.58058263  0.01451616  1  0.092865  -3e-06  0.089449  0.11595  -6e-06  1.048868  0.0
H  H128  1  0.60907968  0.74235802  0.37649278  1  0.012035  -1.1e-05  0.082838  0.110734  -3.4e-05  1.038329  0.0
H  H129  1  0.89091552  0.24234051  0.62350029  1  0.012  -1.1e-05  0.082856  0.110709  -3.4e-05  1.038266  0.0
H  H130  1  0.39091754  0.75764928  0.87649824  1  0.011749  -1.1e-05  0.082843  0.110771  -3.4e-05  1.038141  0.0
H  H131  1  0.10907767  0.25764176  0.12350544  1  0.012103  -1.1e-05  0.082829  0.110672  -3.4e-05  1.038209  0.0
H  H132  1  0.39091591  0.25765593  0.62349644  1  0.011595  -1.1e-05  0.082882  0.110765  -3.4e-05  1.038254  0.0
H  H133  1  0.10907930  0.75763886  0.37648771  1  0.012002  -1.1e-05  0.082878  0.110798  -3.4e-05  1.038292  0.0
H  H134  1  0.60908192  0.24235114  0.12350278  1  0.011673  -1.1e-05  0.082871  0.110759  -3.4e-05  1.038282  0.0
H  H135  1  0.89091869  0.74234964  0.87649802  1  0.01173  -1.1e-05  0.082851  0.110752  -3.4e-05  1.038162  0.0
H  H136  1  0.63698878  0.61101854  0.35535517  1  0.046237  -1e-06  0.091074  0.129583  3e-06  1.046883  0.0
H  H137  1  0.86300118  0.11099655  0.64463545  1  0.046741  -1e-06  0.09101  0.129582  3e-06  1.046971  0.0
H  H138  1  0.36300785  0.88899025  0.85535868  1  0.046562  -1e-06  0.091075  0.129607  3e-06  1.04687  0.0
H  H139  1  0.13698950  0.38898346  0.14464787  1  0.046399  -1e-06  0.091055  0.129565  3e-06  1.046831  0.0
H  H140  1  0.36300604  0.38899917  0.64463324  1  0.046824  -1e-06  0.09104  0.129568  3e-06  1.047  0.0
H  H141  1  0.13698977  0.88897980  0.35534889  1  0.04607  -1e-06  0.091067  0.129538  3e-06  1.047006  0.0
H  H142  1  0.63699546  0.11101167  0.14463950  1  0.046427  -1e-06  0.091065  0.129553  3e-06  1.046958  0.0
H  H143  1  0.86301072  0.61100869  0.85535885  1  0.046547  -1e-06  0.091056  0.129583  3e-06  1.046898  0.0
H  H144  1  0.65762669  0.56108274  0.45073263  1  0.038286  -1.7e-05  0.094488  0.133125  -1.6e-05  1.008212  0.0
H  H145  1  0.84237492  0.06106903  0.54925636  1  0.03807  -1.7e-05  0.094506  0.133074  -1.6e-05  1.008189  0.0
H  H146  1  0.34236985  0.93892758  0.95073741  1  0.038262  -1.7e-05  0.094542  0.133158  -1.6e-05  1.008108  0.0
H  H147  1  0.15762976  0.43892449  0.04926914  1  0.038432  -1.7e-05  0.094544  0.133164  -1.6e-05  1.008047  0.0
H  H148  1  0.34237508  0.43892670  0.54925334  1  0.038102  -1.7e-05  0.094536  0.1331  -1.6e-05  1.00825  0.0
H  H149  1  0.15762762  0.93891409  0.45072757  1  0.038655  -1.7e-05  0.094475  0.133121  -1.6e-05  1.008242  0.0
H  H150  1  0.65762960  0.06107810  0.04926198  1  0.038291  -1.7e-05  0.09454  0.133164  -1.6e-05  1.008197  0.0
H  H151  1  0.84237202  0.56107217  0.95073758  1  0.038249  -1.7e-05  0.094532  0.133162  -1.6e-05  1.008134  0.0
H  H152  1  0.62689438  0.69145977  0.47317288  1  0.065634  -2.9e-05  0.090925  0.124725  -4.3e-05  1.035301  0.0
H  H153  1  0.87311170  0.19144752  0.52681897  1  0.065126  -2.9e-05  0.090965  0.12468  -4.3e-05  1.035266  0.0
H  H154  1  0.37310196  0.80854981  0.97317757  1  0.065236  -2.9e-05  0.090963  0.124726  -4.3e-05  1.035162  0.0
H  H155  1  0.12689473  0.30854825  0.02682693  1  0.065426  -2.9e-05  0.090995  0.124822  -4.3e-05  1.035013  0.0
H  H156  1  0.37310584  0.30854817  0.52681635  1  0.064996  -2.9e-05  0.090922  0.124696  -4.3e-05  1.035097  0.0
H  H157  1  0.12689626  0.80853636  0.47316659  1  0.064465  -2.9e-05  0.09092  0.12482  -4.3e-05  1.035146  0.0
H  H158  1  0.62689440  0.19145362  0.02682345  1  0.065164  -2.9e-05  0.090942  0.124719  -4.3e-05  1.035291  0.0
H  H159  1  0.87310395  0.69145066  0.97317735  1  0.065236  -2.9e-05  0.090976  0.12477  -4.3e-05  1.035263  0.0
C  C160  1  0.57602570  0.16000690  0.54244768  1  1.54692  -0.001509  0.22194  0.580911  -0.001954  4.14455  -0.004
C  C161  1  0.92397656  0.66000073  0.45755393  1  1.547108  -0.00151  0.221971  0.580847  -0.001955  4.144479  -0.004
C  C162  1  0.42397440  0.33999414  0.04244839  1  1.547083  -0.00151  0.221965  0.580905  -0.001953  4.144692  -0.004
C  C163  1  0.07602224  0.83999455  0.95755408  1  1.546942  -0.001508  0.221942  0.580897  -0.001952  4.14471  -0.004
C  C164  1  0.42397684  0.83999878  0.45755334  1  1.547006  -0.00151  0.221966  0.580914  -0.001954  4.144428  -0.004
C  C165  1  0.07602521  0.33999593  0.54244710  1  1.54703  -0.00151  0.222038  0.580939  -0.001954  4.144435  -0.004
C  C166  1  0.57602196  0.66000327  0.95755385  1  1.547105  -0.00151  0.221919  0.580741  -0.001954  4.144686  -0.004
C  C167  1  0.92397412  0.16000586  0.04244735  1  1.547001  -0.001509  0.221911  0.580817  -0.001954  4.144722  -0.004
C  C168  1  0.62390096  0.24804248  0.57087115  1  0.042995  0.017113  -0.00157  0.000451  0.012083  3.942998  0.014
C  C169  1  0.87609809  0.74803937  0.42913006  1  0.042382  0.017118  -0.001642  0.000238  0.012087  3.943149  0.014
C  C170  1  0.37609657  0.25195782  0.07086994  1  0.042444  0.017115  -0.001659  0.000222  0.012085  3.942986  0.014
C  C171  1  0.12389942  0.75195967  0.92913171  1  0.042336  0.017115  -0.001564  0.000325  0.012085  3.943021  0.014
C  C172  1  0.37609772  0.75196320  0.42913190  1  0.042332  0.017114  -0.001602  0.000248  0.012084  3.943074  0.014
C  C173  1  0.12390213  0.25195804  0.57087015  1  0.042455  0.017114  -0.001669  0.000218  0.012084  3.943085  0.014
C  C174  1  0.62389902  0.74804260  0.92913068  1  0.04239  0.017116  -0.001687  0.000187  0.012085  3.943264  0.014
C  C175  1  0.87609849  0.24804226  0.07086809  1  0.042468  0.017115  -0.00157  0.000349  0.012085  3.942864  0.014
C  C176  1  0.69017602  0.31251811  0.54288013  1  0.017131  0.002168  -0.060016  -0.088318  0.001311  3.896534  0.001
C  C177  1  0.80982604  0.81251585  0.45712149  1  0.018249  0.002165  -0.060087  -0.088251  0.00131  3.896467  0.001
C  C178  1  0.30982098  0.18747916  0.04287948  1  0.017566  0.002166  -0.059998  -0.088192  0.00131  3.896531  0.001
C  C179  1  0.19017200  0.68748320  0.95712379  1  0.018301  0.002165  -0.060022  -0.088192  0.001309  3.896508  0.001
C  C180  1  0.30982420  0.68748456  0.45712293  1  0.01838  0.002165  -0.060013  -0.088106  0.001309  3.89662  0.001
C  C181  1  0.19017573  0.18748081  0.54287994  1  0.018247  0.002165  -0.059989  -0.088194  0.00131  3.896554  0.001
C  C182  1  0.69017229  0.81251824  0.95712398  1  0.018398  0.002165  -0.060025  -0.088158  0.00131  3.896399  0.001
C  C183  1  0.80982436  0.31252249  0.04287845  1  0.018273  0.002166  -0.060038  -0.088245  0.00131  3.89652  0.001
C  C184  1  0.74486734  0.38669053  0.57122586  1  0.018098  0.017218  -0.009299  -0.016574  0.012097  3.955735  0.014
C  C185  1  0.75513540  0.88669058  0.42877617  1  0.017584  0.01722  -0.009252  -0.016523  0.012099  3.955698  0.014
C  C186  1  0.25513250  0.11331127  0.07122576  1  0.018255  0.017217  -0.009283  -0.0166  0.012097  3.95606  0.014
C  C187  1  0.24486366  0.61331221  0.92877710  1  0.01741  0.017219  -0.009311  -0.016429  0.012097  3.955551  0.014
C  C188  1  0.25513598  0.61331289  0.42877760  1  0.017366  0.017219  -0.009302  -0.016456  0.012097  3.955973  0.014
C  C189  1  0.24486637  0.11331059  0.57122404  1  0.017497  0.017216  -0.009285  -0.016528  0.012095  3.955951  0.014
C  C190  1  0.74486308  0.88668990  0.92877812  1  0.017321  0.017217  -0.009286  -0.016444  0.012096  3.955822  0.014
C  C191  1  0.75513501  0.38669121  0.07122555  1  0.017508  0.01722  -0.009257  -0.016562  0.012098  3.955994  0.014
C  C192  1  0.72858572  0.39989127  0.62713289  1  0.001068  0.001025  -0.068487  -0.153643  0.0006  3.898621  0.001
C  C193  1  0.77141468  0.89989053  0.37286833  1  0.001003  0.001024  -0.068428  -0.15356  0.000598  3.898604  0.001
C  C194  1  0.27140821  0.10011055  0.12713356  1  0.00091  0.001025  -0.068516  -0.153668  0.000598  3.898842  0.001
C  C195  1  0.22858566  0.60010924  0.87286808  1  0.001042  0.001023  -0.068467  -0.153698  0.000598  3.898474  0.001
C  C196  1  0.27141219  0.60011066  0.37286976  1  0.000994  0.001023  -0.06847  -0.153618  0.000598  3.898624  0.001
C  C197  1  0.22858709  0.10010763  0.62713229  1  0.000725  0.001024  -0.06848  -0.153601  0.000598  3.89866  0.001
C  C198  1  0.72858660  0.89989213  0.87287072  1  0.000953  0.001024  -0.068438  -0.153606  0.000598  3.898634  0.001
C  C199  1  0.77141070  0.39988892  0.12713335  1  0.000934  0.001025  -0.068503  -0.153569  0.000599  3.898712  0.001
C  C200  1  0.65943565  0.33731197  0.65458024  1  0.231985  0.001565  0.092601  0.167796  0.000929  4.011392  0.001
C  C201  1  0.84056483  0.83730889  0.34541853  1  0.231983  0.001566  0.092558  0.16766  0.000929  4.011145  0.001
C  C202  1  0.34056035  0.16269285  0.15458074  1  0.231952  0.001566  0.092565  0.167625  0.000929  4.011507  0.001
C  C203  1  0.15943653  0.66269163  0.84542050  1  0.231938  0.001566  0.092539  0.167728  0.000929  4.011189  0.001
C  C204  1  0.34056457  0.66269295  0.34542078  1  0.232025  0.001566  0.092546  0.16757  0.000929  4.011374  0.001
C  C205  1  0.15943540  0.16268927  0.65458127  1  0.232024  0.001566  0.092528  0.16763  0.000929  4.01141  0.001
C  C206  1  0.65943446  0.83730982  0.84541906  1  0.232064  0.001566  0.092607  0.167788  0.000929  4.011102  0.001
C  C207  1  0.84055983  0.33730954  0.15458134  1  0.231888  0.001566  0.09255  0.167713  0.000929  4.011385  0.001
C  C208  1  0.60860112  0.26058979  0.62684004  1  -0.03163  0.000913  -0.064807  -0.143184  0.000283  3.905675  0.001
C  C209  1  0.89139560  0.76058440  0.37316199  1  -0.031497  0.000912  -0.064726  -0.143047  0.000282  3.905729  0.001
C  C210  1  0.39139436  0.23941578  0.12684001  1  -0.031514  0.000913  -0.064767  -0.143015  0.000283  3.905801  0.001
C  C211  1  0.10860242  0.73941387  0.87316205  1  -0.031528  0.000912  -0.064816  -0.143376  0.000282  3.905924  0.001
C  C212  1  0.39139601  0.73941814  0.37316221  1  -0.031511  0.000912  -0.064819  -0.14322  0.000282  3.905964  0.001
C  C213  1  0.10860154  0.23941226  0.62683944  1  -0.031603  0.000912  -0.06473  -0.14299  0.000282  3.905599  0.001
C  C214  1  0.60860355  0.76058689  0.87316264  1  -0.031563  0.000912  -0.064718  -0.14304  0.000282  3.905853  0.001
C  C215  1  0.89139317  0.26058504  0.12684019  1  -0.031467  0.000913  -0.064812  -0.143196  0.000283  3.905884  0.001
C  C216  1  0.83016039  0.44272735  0.54328284  1  1.537935  -0.000603  0.216319  0.569576  -0.000895  4.164416  -0.004
C  C217  1  0.66983918  0.94272601  0.45671921  1  1.537961  -0.000603  0.216235  0.56936  -0.000896  4.164617  -0.004
C  C218  1  0.16983661  0.05727369  0.04328416  1  1.538278  -0.000601  0.21623  0.569507  -0.000894  4.16461  -0.004
C  C219  1  0.33015731  0.55727529  0.95671951  1  1.537978  -0.000603  0.216251  0.569393  -0.000895  4.164591  -0.004
C  C220  1  0.16984061  0.55727758  0.45671819  1  1.538165  -0.000602  0.216293  0.569481  -0.000895  4.164647  -0.004
C  C221  1  0.33015796  0.05727591  0.54328182  1  1.537927  -0.000602  0.216268  0.569481  -0.000893  4.164733  -0.004
C  C222  1  0.83015820  0.94272598  0.95671849  1  1.537901  -0.000603  0.216276  0.569405  -0.000895  4.164537  -0.004
C  C223  1  0.66983673  0.44272588  0.04328436  1  1.538399  -0.000602  0.216223  0.569402  -0.000896  4.16474  -0.004
C  C224  1  0.69358584  0.28577458  0.74854639  1  0.354801  -9.4e-05  0.105817  0.179265  -0.000105  4.012649  0.0
C  C225  1  0.80641470  0.78576926  0.25145278  1  0.35448  -9.4e-05  0.105961  0.179588  -0.000105  4.012422  0.0
C  C226  1  0.30641395  0.21422651  0.24854983  1  0.354349  -9.4e-05  0.10595  0.179535  -0.000105  4.012239  0.0
C  C227  1  0.19358441  0.71422898  0.75145426  1  0.354715  -9.4e-05  0.105933  0.179447  -0.000105  4.012473  0.0
C  C228  1  0.30641593  0.71423035  0.25145219  1  0.354546  -9.4e-05  0.105951  0.179544  -0.000105  4.012196  0.0
C  C229  1  0.19358398  0.21422665  0.74854661  1  0.354745  -9.4e-05  0.1059  0.179481  -0.000105  4.012533  0.0
C  C230  1  0.69358473  0.78577165  0.75145364  1  0.354824  -9.4e-05  0.105928  0.179538  -0.000105  4.012497  0.0
C  C231  1  0.80641427  0.28577294  0.24854961  1  0.354376  -9.4e-05  0.105941  0.179503  -0.000105  4.012361  0.0
C  C232  1  0.70072940  0.30423724  0.80501172  1  -0.216781  0.000145  -0.029236  -0.187603  7.2e-05  3.983686  0.0
C  C233  1  0.79927035  0.80423417  0.19498746  1  -0.216472  0.000145  -0.029286  -0.187748  7.2e-05  3.983809  0.0
C  C234  1  0.29927066  0.19576537  0.30501680  1  -0.216684  0.000145  -0.029273  -0.187772  7.2e-05  3.983743  0.0
C  C235  1  0.20073004  0.69576556  0.69498851  1  -0.216548  0.000145  -0.029274  -0.187659  7.2e-05  3.983738  0.0
C  C236  1  0.29926850  0.69576543  0.19498645  1  -0.21653  0.000145  -0.029216  -0.187684  7.2e-05  3.983682  0.0
C  C237  1  0.20073065  0.19576399  0.80501275  1  -0.21676  0.000145  -0.029199  -0.187635  7.2e-05  3.983613  0.0
C  C238  1  0.70072880  0.80423279  0.69498748  1  -0.216572  0.000145  -0.029322  -0.187756  7.2e-05  3.983776  0.0
C  C239  1  0.79927018  0.30423411  0.30501618  1  -0.216454  0.000145  -0.029231  -0.187727  7.2e-05  3.983778  0.0
C  C240  1  0.57266548  0.46208874  0.78396710  1  -0.168247  0.000198  -0.029595  -0.180823  0.000132  3.971045  0.0
C  C241  1  0.92732788  0.96208101  0.21603331  1  -0.168238  0.000198  -0.029633  -0.180775  0.000132  3.971124  0.0
C  C242  1  0.42733477  0.03791912  0.28396696  1  -0.168293  0.000198  -0.02966  -0.180757  0.000132  3.970974  0.0
C  C243  1  0.07267387  0.53791722  0.71603345  1  -0.168201  0.000198  -0.029596  -0.180787  0.000132  3.97109  0.0
C  C244  1  0.42732856  0.53791919  0.21603351  1  -0.168256  0.000198  -0.029685  -0.180875  0.000132  3.971027  0.0
C  C245  1  0.07266771  0.03792091  0.78396731  1  -0.168352  0.000198  -0.029614  -0.180829  0.000132  3.971147  0.0
C  C246  1  0.57267087  0.96207828  0.71603365  1  -0.168287  0.000198  -0.029626  -0.180863  0.000132  3.971022  0.0
C  C247  1  0.92733099  0.46207868  0.28396758  1  -0.168404  0.000198  -0.02956  -0.180703  0.000132  3.971054  0.0
C  C248  1  0.58316155  0.43264052  0.72905059  1  0.330041  -2.9e-05  0.109033  0.185031  -3.3e-05  4.003548  0.0
C  C249  1  0.91683417  0.93263506  0.27095023  1  0.32996  -2.9e-05  0.109127  0.185135  -3.3e-05  4.003416  0.0
C  C250  1  0.41683842  0.06736508  0.22905007  1  0.329952  -2.9e-05  0.109147  0.185046  -3.3e-05  4.003403  0.0
C  C251  1  0.08316631  0.56736093  0.77095035  1  0.329998  -2.9e-05  0.109068  0.185066  -3.3e-05  4.003335  0.0
C  C252  1  0.41683559  0.56736366  0.27095084  1  0.329989  -2.9e-05  0.10918  0.185216  -3.3e-05  4.003371  0.0
C  C253  1  0.08316374  0.06736009  0.72905120  1  0.329976  -2.9e-05  0.109122  0.185219  -3.3e-05  4.00329  0.0
C  C254  1  0.58316644  0.93263684  0.77095055  1  0.329957  -2.9e-05  0.109122  0.185189  -3.3e-05  4.003483  0.0
C  C255  1  0.91683469  0.43263648  0.22905108  1  0.329905  -2.9e-05  0.109165  0.18517  -3.3e-05  4.003179  0.0
C  C256  1  0.75880909  0.24190601  0.83954017  1  -0.002771  -7.1e-05  -0.075721  -0.066579  -8.2e-05  3.990661  0.0
C  C257  1  0.74118765  0.74190149  0.16046022  1  -0.003005  -7.1e-05  -0.075845  -0.067  -8.2e-05  3.990889  0.0
C  C258  1  0.24119298  0.25809586  0.33954459  1  -0.002647  -7.1e-05  -0.075729  -0.066653  -8.2e-05  3.990816  0.0
C  C259  1  0.25881228  0.75809823  0.66046194  1  -0.002807  -7.1e-05  -0.075897  -0.067121  -8.2e-05  3.990917  0.0
C  C260  1  0.24118573  0.75809591  0.16046044  1  -0.003096  -7.1e-05  -0.075899  -0.067035  -8.2e-05  3.990911  0.0
C  C261  1  0.25881257  0.25809516  0.83953877  1  -0.003075  -7.1e-05  -0.075852  -0.066829  -8.2e-05  3.990784  0.0
C  C262  1  0.75881034  0.74190004  0.66046009  1  -0.002858  -7.1e-05  -0.075815  -0.06697  -8.2e-05  3.990854  0.0
C  C263  1  0.74119027  0.24190294  0.33954274  1  -0.003009  -7.1e-05  -0.075763  -0.066744  -8.2e-05  3.990702  0.0
C  C264  1  0.80966713  0.15837963  0.81904551  1  -0.043027  0.000407  -0.096262  -0.100697  0.000272  3.986538  0.0
C  C265  1  0.69033126  0.65837519  0.18095569  1  -0.040109  0.000406  -0.096092  -0.100379  0.000272  3.986296  0.0
C  C266  1  0.19033512  0.34161997  0.31905047  1  -0.042964  0.000407  -0.096288  -0.100734  0.000272  3.98669  0.0
C  C267  1  0.30966694  0.84162454  0.68095770  1  -0.040056  0.000406  -0.096105  -0.100342  0.000272  3.986292  0.0
C  C268  1  0.19033386  0.84162454  0.18095511  1  -0.040136  0.000406  -0.096092  -0.10036  0.000272  3.986345  0.0
C  C269  1  0.30966974  0.34161846  0.81904492  1  -0.040076  0.000406  -0.096182  -0.100588  0.000272  3.986408  0.0
C  C270  1  0.80966433  0.65837292  0.68095625  1  -0.04291  0.000407  -0.09608  -0.100343  0.000272  3.986338  0.0
C  C271  1  0.69033174  0.15837663  0.31904861  1  -0.043238  0.000407  -0.096182  -0.100565  0.000272  3.986445  0.0
C  C272  1  0.79840395  0.13581375  0.76367650  1  -0.084023  -0.000126  -0.085695  -0.047516  -0.000149  3.995045  0.0
C  C273  1  0.70160220  0.63580705  0.23632430  1  -0.084307  -0.000126  -0.08572  -0.047608  -0.000149  3.995229  0.0
C  C274  1  0.20159802  0.36418735  0.26368143  1  -0.083775  -0.000126  -0.085593  -0.04738  -0.000149  3.995252  0.0
C  C275  1  0.29839859  0.86419119  0.73632674  1  -0.084196  -0.000126  -0.085688  -0.047619  -0.000149  3.995116  0.0
C  C276  1  0.20160478  0.86419344  0.23632331  1  -0.084232  -0.000126  -0.085674  -0.047583  -0.000149  3.995203  0.0
C  C277  1  0.29840498  0.36418510  0.76367510  1  -0.08401  -0.000126  -0.085635  -0.04737  -0.000149  3.994911  0.0
C  C278  1  0.79839834  0.63581006  0.73632529  1  -0.084176  -0.000126  -0.085749  -0.047698  -0.000149  3.995217  0.0
C  C279  1  0.70159777  0.13581148  0.26367916  1  -0.084064  -0.000126  -0.085683  -0.047523  -0.000149  3.995208  0.0
C  C280  1  0.74166011  0.19744344  0.72927786  1  0.00457  0.000249  -0.097794  -0.185411  0.000157  3.970305  0.0
C  C281  1  0.75834674  0.69743517  0.27072009  1  0.00449  0.000249  -0.0979  -0.185509  0.000157  3.970399  0.0
C  C282  1  0.25834063  0.30255990  0.22928264  1  0.004728  0.000249  -0.097975  -0.185649  0.000157  3.970493  0.0
C  C283  1  0.24165606  0.80256157  0.77072267  1  0.004501  0.000249  -0.097884  -0.185479  0.000157  3.970119  0.0
C  C284  1  0.25834785  0.80256600  0.27072072  1  0.004084  0.000249  -0.09797  -0.185553  0.000157  3.970203  0.0
C  C285  1  0.24165890  0.30255848  0.72927768  1  0.004571  0.000249  -0.097829  -0.185579  0.000157  3.970264  0.0
C  C286  1  0.74165650  0.69743976  0.77072204  1  0.004533  0.000249  -0.097883  -0.185536  0.000157  3.970271  0.0
C  C287  1  0.75834030  0.19743885  0.22928120  1  0.004554  0.000249  -0.097928  -0.185554  0.000157  3.97028  0.0
C  C288  1  0.52711502  0.48871953  0.69020403  1  0.001683  0.000229  -0.093009  -0.178759  0.000138  3.966388  0.0
C  C289  1  0.97288294  0.98870950  0.30979679  1  0.001685  0.000229  -0.093088  -0.178944  0.000138  3.966456  0.0
C  C290  1  0.47288529  0.01129132  0.19020133  1  0.001697  0.000229  -0.093088  -0.178883  0.000138  3.966341  0.0
C  C291  1  0.02711642  0.51128574  0.80979704  1  0.001678  0.000229  -0.093002  -0.178725  0.000138  3.96639  0.0
C  C292  1  0.47288365  0.51128991  0.30979821  1  0.001697  0.000229  -0.093046  -0.178866  0.000138  3.966464  0.0
C  C293  1  0.02711883  0.01128715  0.69020301  1  0.00171  0.000229  -0.093066  -0.178815  0.000138  3.96636  0.0
C  C294  1  0.52711802  0.98871210  0.80979684  1  0.001697  0.000229  -0.093085  -0.178874  0.000138  3.966466  0.0
C  C295  1  0.97288148  0.48870941  0.19020195  1  0.001724  0.000229  -0.093085  -0.178855  0.000138  3.966348  0.0
C  C296  1  0.46517832  0.56896678  0.70551138  1  -0.019109  -9.6e-05  -0.078695  -0.039406  -0.000109  3.98351  0.0
C  C297  1  0.03482100  0.06895714  0.29448985  1  -0.018489  -9.6e-05  -0.07869  -0.039462  -0.000109  3.983597  0.0
C  C298  1  0.53482198  0.93104272  0.20550856  1  -0.01861  -9.6e-05  -0.078714  -0.039468  -0.000109  3.983416  0.0
C  C299  1  0.96518147  0.43103870  0.79448941  1  -0.018519  -9.6e-05  -0.07871  -0.039504  -0.000109  3.983512  0.0
C  C300  1  0.53482113  0.43104266  0.29449046  1  -0.018576  -9.6e-05  -0.078712  -0.039433  -0.000109  3.983571  0.0
C  C301  1  0.96518000  0.93104027  0.70551076  1  -0.018677  -9.6e-05  -0.078631  -0.039413  -0.000109  3.983389  0.0
C  C302  1  0.46518057  0.06895770  0.79448921  1  -0.018609  -9.6e-05  -0.078618  -0.039353  -0.000109  3.983416  0.0
C  C303  1  0.03482030  0.56895721  0.20550917  1  -0.018587  -9.6e-05  -0.07869  -0.039454  -0.000109  3.983483  0.0
C  C304  1  0.45412797  0.59594871  0.76033145  1  -0.063517  0.000238  -0.102053  -0.10919  0.000148  4.010377  0.0
C  C305  1  0.04586513  0.09593754  0.23966897  1  -0.062988  0.000239  -0.102073  -0.109125  0.000148  4.010377  0.0
C  C306  1  0.54586797  0.90406306  0.26032901  1  -0.062897  0.000239  -0.101985  -0.109103  0.000148  4.010501  0.0
C  C307  1  0.95413552  0.40405828  0.73966937  1  -0.06409  0.000238  -0.102125  -0.109215  0.000148  4.010428  0.0
C  C308  1  0.54586452  0.40406223  0.23967039  1  -0.062925  0.000239  -0.102058  -0.109151  0.000148  4.010436  0.0
C  C309  1  0.95413046  0.90406438  0.76033205  1  -0.062553  0.000239  -0.102109  -0.109211  0.000148  4.010379  0.0
C  C310  1  0.45413458  0.09593510  0.73966876  1  -0.062692  0.000239  -0.102084  -0.109134  0.000148  4.010285  0.0
C  C311  1  0.04586702  0.59593612  0.26033044  1  -0.062833  0.000238  -0.102059  -0.10913  0.000148  4.010494  0.0
C  C312  1  0.50763732  0.54157430  0.79938107  1  -0.009552  -9.1e-05  -0.083879  -0.079179  -0.000101  3.992215  0.0
C  C313  1  0.99235582  0.04156558  0.20061809  1  -0.008901  -9.1e-05  -0.083892  -0.07935  -0.000101  3.992395  0.0
C  C314  1  0.49236368  0.95843447  0.29938121  1  -0.008786  -9.1e-05  -0.08388  -0.079198  -0.000101  3.992403  0.0
C  C315  1  0.00764363  0.45843174  0.70061883  1  -0.009517  -9.1e-05  -0.08385  -0.079198  -0.000101  3.992274  0.0
C  C316  1  0.49235749  0.45843363  0.20061873  1  -0.00892  -9.1e-05  -0.083843  -0.079196  -0.000101  3.992335  0.0
C  C317  1  0.00763590  0.95843709  0.79938294  1  -0.008677  -9.1e-05  -0.083877  -0.079249  -0.000101  3.992336  0.0
C  C318  1  0.50764196  0.04156444  0.70061737  1  -0.008853  -9.1e-05  -0.083904  -0.079295  -0.000101  3.992272  0.0
C  C319  1  0.99235968  0.54156341  0.29938057  1  -0.008912  -9.1e-05  -0.083905  -0.079259  -0.000101  3.992472  0.0
C  C320  1  0.58553540  0.61504137  0.57705598  1  -0.078245  0.000836  -0.185957  -0.238041  0.000541  3.932469  0.0
C  C321  1  0.91447079  0.11503506  0.42293830  1  -0.077908  0.000836  -0.185825  -0.237736  0.000541  3.932516  0.0
C  C322  1  0.41446451  0.88495907  0.07705956  1  -0.077861  0.000835  -0.185903  -0.238016  0.000541  3.932784  0.0
C  C323  1  0.08553594  0.38495781  0.92294332  1  -0.07794  0.000835  -0.185914  -0.237946  0.000541  3.932808  0.0
C  C324  1  0.41447333  0.38496205  0.42293894  1  -0.077917  0.000836  -0.185813  -0.237775  0.000541  3.932727  0.0
C  C325  1  0.08553485  0.88495859  0.57705255  1  -0.078468  0.000836  -0.185972  -0.238106  0.000541  3.932804  0.0
C  C326  1  0.58553494  0.11504285  0.92293780  1  -0.077842  0.000835  -0.185835  -0.237789  0.000541  3.932581  0.0
C  C327  1  0.91446428  0.61503810  0.07705933  1  -0.077894  0.000836  -0.185805  -0.237741  0.000541  3.932076  0.0
C  C328  1  0.49108335  0.60719890  0.55594131  1  -0.151687  0.000117  -0.178171  -0.224026  0.000123  3.935185  0.0
C  C329  1  0.00892211  0.10720211  0.44405015  1  -0.151862  0.000117  -0.178293  -0.224211  0.000123  3.935409  0.0
C  C330  1  0.50890593  0.89280154  0.05594792  1  -0.151761  0.000117  -0.17814  -0.223938  0.000123  3.935433  0.0
C  C331  1  0.99109680  0.39279903  0.94405493  1  -0.151613  0.000117  -0.178175  -0.224055  0.000123  3.935538  0.0
C  C332  1  0.50891920  0.39279851  0.44405238  1  -0.151702  0.000117  -0.178261  -0.224118  0.000123  3.935631  0.0
C  C333  1  0.99108971  0.89279830  0.55593785  1  -0.152072  0.000117  -0.178147  -0.223969  0.000123  3.935513  0.0
C  C334  1  0.49109198  0.10719962  0.94405188  1  -0.151914  0.000117  -0.178159  -0.224023  0.000123  3.935421  0.0
C  C335  1  0.00891889  0.60719612  0.05594406  1  -0.151691  0.000117  -0.178227  -0.224195  0.000123  3.93506  0.0
C  C336  1  0.62678269  0.66508690  0.38809437  1  -0.022872  5e-06  -0.192379  -0.249375  -4.3e-05  3.95829  0.0
C  C337  1  0.87320487  0.16506790  0.61189625  1  -0.022523  5e-06  -0.192294  -0.249395  -4.3e-05  3.95882  0.0
C  C338  1  0.37320978  0.83492190  0.88810151  1  -0.022536  5e-06  -0.192407  -0.24955  -4.3e-05  3.958743  0.0
C  C339  1  0.12678378  0.33491661  0.11190218  1  -0.022451  5e-06  -0.192355  -0.249271  -4.3e-05  3.958965  0.0
C  C340  1  0.37320671  0.33492630  0.61189526  1  -0.022145  5e-06  -0.19227  -0.249279  -4.3e-05  3.958572  0.0
C  C341  1  0.12677989  0.83491071  0.38808890  1  -0.022449  5e-06  -0.192353  -0.249317  -4.3e-05  3.9587  0.0
C  C342  1  0.62678735  0.16508152  0.11190317  1  -0.022404  5e-06  -0.192308  -0.249265  -4.3e-05  3.958127  0.0
C  C343  1  0.87321026  0.66507779  0.88810047  1  -0.022491  5e-06  -0.192312  -0.249344  -4.3e-05  3.958524  0.0
C  C344  1  0.63750633  0.63821175  0.43993394  1  -0.128301  4.5e-05  -0.181238  -0.224516  -2e-05  3.910975  0.0
C  C345  1  0.86248668  0.13820028  0.56005871  1  -0.128422  4.5e-05  -0.181335  -0.224354  -2e-05  3.911336  0.0
C  C346  1  0.36248568  0.86179631  0.93993582  1  -0.128281  4.5e-05  -0.181305  -0.224412  -2e-05  3.911351  0.0
C  C347  1  0.13750630  0.36179325  0.06007398  1  -0.128913  4.5e-05  -0.181354  -0.224634  -2e-05  3.911522  0.0
C  C348  1  0.36248617  0.36179693  0.56005446  1  -0.128362  4.5e-05  -0.181397  -0.22452  -2e-05  3.911159  0.0
C  C349  1  0.13750349  0.86178586  0.43992522  1  -0.127732  4.5e-05  -0.181274  -0.224685  -2e-05  3.911349  0.0
C  C350  1  0.63750991  0.13820561  0.06005991  1  -0.128144  4.5e-05  -0.181392  -0.224638  -2e-05  3.910847  0.0
C  C351  1  0.86248542  0.63820266  0.93993681  1  -0.128264  4.5e-05  -0.181392  -0.224615  -2e-05  3.911294  0.0
S  S352  1  0.64500567  0.40854896  0.83653381  1  2.463763  -0.000384  0.469899  1.003677  -0.000572  5.784852  0.0
S  S353  1  0.85499163  0.90854506  0.16346579  1  2.463664  -0.000384  0.469887  1.003741  -0.000573  5.784871  0.0
S  S354  1  0.35499642  0.09145366  0.33653426  1  2.463872  -0.000384  0.469971  1.003798  -0.000573  5.785054  0.0
S  S355  1  0.14501137  0.59145316  0.66346575  1  2.463552  -0.000384  0.469883  1.003691  -0.000573  5.784977  0.0
S  S356  1  0.35498914  0.59145447  0.16346640  1  2.463806  -0.000384  0.469863  1.003696  -0.000573  5.785071  0.0
S  S357  1  0.14500628  0.09145386  0.83653361  1  2.464042  -0.000384  0.469874  1.003699  -0.000572  5.785146  0.0
S  S358  1  0.64500921  0.90854450  0.66346635  1  2.463506  -0.000384  0.469914  1.003806  -0.000573  5.784913  0.0
S  S359  1  0.85499427  0.40854651  0.33653365  1  2.463844  -0.000384  0.469871  1.003698  -0.000573  5.784999  0.0
N  N360  1  0.64358229  0.35117665  0.71236940  1  -1.213701  0.000958  -0.240526  -0.133197  0.000569  3.667179  0.001
N  N361  1  0.85641508  0.85117128  0.28762979  1  -1.213719  0.000958  -0.240587  -0.133267  0.000569  3.66729  0.001
N  N362  1  0.35641473  0.14883120  0.21237107  1  -1.213555  0.000958  -0.24061  -0.133244  0.000569  3.667194  0.001
N  N363  1  0.14358448  0.64882847  0.78763057  1  -1.213662  0.000958  -0.240498  -0.133109  0.000569  3.667115  0.001
N  N364  1  0.35641638  0.64883128  0.28763041  1  -1.213635  0.000958  -0.240539  -0.13318  0.000569  3.667192  0.001
N  N365  1  0.14358515  0.14882839  0.71236961  1  -1.213692  0.000958  -0.240594  -0.133328  0.000569  3.667312  0.001
N  N366  1  0.64358704  0.85117373  0.78763076  1  -1.213823  0.000958  -0.240512  -0.133271  0.000569  3.667521  0.001
N  N367  1  0.85641265  0.35116894  0.21237208  1  -1.213495  0.000958  -0.240605  -0.133296  0.000569  3.667138  0.001
O  O368  1  0.55233016  0.16921793  0.49239299  1  -1.088104  0.103217  -0.298563  -0.49565  0.065255  2.31392  0.093
O  O369  1  0.94766513  0.66921325  0.50760984  1  -1.088074  0.103225  -0.298536  -0.495616  0.065261  2.313994  0.093
O  O370  1  0.44766589  0.33078698  0.99239384  1  -1.088092  0.103226  -0.29854  -0.495575  0.06526  2.314095  0.093
O  O371  1  0.05233541  0.83078718  0.00760986  1  -1.088073  0.103235  -0.298536  -0.495616  0.065266  2.313942  0.093
O  O372  1  0.44766465  0.83078850  0.50760926  1  -1.088069  0.103225  -0.298516  -0.495595  0.065261  2.313964  0.093
O  O373  1  0.05233510  0.33078566  0.49239159  1  -1.088048  0.103218  -0.298599  -0.495617  0.065256  2.313965  0.093
O  O374  1  0.55232970  0.66921569  0.00760881  1  -1.088132  0.103222  -0.298488  -0.495511  0.065258  2.314008  0.093
O  O375  1  0.94766868  0.16921926  0.99239320  1  -1.088081  0.103226  -0.298553  -0.495573  0.06526  2.313987  0.093
O  O376  1  0.56435245  0.08116503  0.57144135  1  -1.103463  0.090975  -0.30718  -0.535946  0.057696  2.411753  0.083
O  O377  1  0.93565455  0.58116411  0.42855699  1  -1.103506  0.090979  -0.307222  -0.5359  0.057698  2.411688  0.083
O  O378  1  0.43565202  0.41883300  0.07144245  1  -1.103473  0.090975  -0.307218  -0.535945  0.057695  2.411747  0.083
O  O379  1  0.06433756  0.91883117  0.92856126  1  -1.103349  0.09097  -0.307187  -0.535897  0.05769  2.412003  0.083
O  O380  1  0.43566169  0.91883689  0.42855723  1  -1.103379  0.090977  -0.307238  -0.535963  0.057695  2.411667  0.083
O  O381  1  0.06434800  0.41883556  0.57144281  1  -1.1035  0.090974  -0.307213  -0.535941  0.057695  2.411609  0.083
O  O382  1  0.56434434  0.58116441  0.92855817  1  -1.103456  0.090976  -0.307187  -0.535837  0.057696  2.411765  0.083
O  O383  1  0.93564798  0.08116775  0.07144262  1  -1.103404  0.090974  -0.30717  -0.535896  0.057695  2.411746  0.083
O  O384  1  0.85219817  0.41577023  0.49485058  1  -1.103829  0.085256  -0.308513  -0.524121  0.053982  2.349288  0.077
O  O385  1  0.64779988  0.91576818  0.50515146  1  -1.103936  0.085249  -0.308521  -0.524062  0.053977  2.349367  0.077
O  O386  1  0.14780095  0.08422566  0.99485175  1  -1.10412  0.085254  -0.30848  -0.524082  0.053982  2.34944  0.077
O  O387  1  0.35219603  0.58423300  0.00515274  1  -1.104006  0.085264  -0.308492  -0.524036  0.053987  2.349261  0.077
O  O388  1  0.14780205  0.58423320  0.50515045  1  -1.104256  0.085259  -0.308529  -0.524155  0.053984  2.349424  0.077
O  O389  1  0.35219802  0.08422622  0.49484875  1  -1.103896  0.085255  -0.308533  -0.524145  0.053981  2.34938  0.077
O  O390  1  0.85220005  0.91576874  0.00515090  1  -1.103892  0.085254  -0.308541  -0.524111  0.053981  2.349325  0.077
O  O391  1  0.64780110  0.41576967  0.99485236  1  -1.104219  0.085254  -0.308472  -0.524027  0.053982  2.349399  0.077
O  O392  1  0.87773031  0.50962118  0.57110850  1  -1.105962  0.106555  -0.308627  -0.517134  0.067597  2.35539  0.096
O  O393  1  0.62227679  0.00962275  0.42889065  1  -1.105955  0.106561  -0.308484  -0.516931  0.067601  2.355421  0.096
O  O394  1  0.12226269  0.99038302  0.07110917  1  -1.105983  0.10655  -0.308598  -0.517074  0.067594  2.355457  0.096
O  O395  1  0.37772757  0.49038065  0.92889372  1  -1.105823  0.106558  -0.308553  -0.517035  0.067599  2.355558  0.096
O  O396  1  0.12227301  0.49038299  0.42889293  1  -1.105793  0.106553  -0.308578  -0.517105  0.067596  2.355506  0.096
O  O397  1  0.37773194  0.99038594  0.57110875  1  -1.105888  0.10656  -0.308579  -0.517041  0.0676  2.355508  0.096
O  O398  1  0.87772748  0.00962191  0.92889267  1  -1.105878  0.106557  -0.308567  -0.517031  0.067598  2.355501  0.096
O  O399  1  0.62226802  0.50961977  0.07111055  1  -1.106035  0.106555  -0.308587  -0.517009  0.067597  2.355511  0.096
O  O400  1  0.57431636  0.37296061  0.87903530  1  -1.295304  -0.001235  -0.31931  -0.540763  -0.000889  2.25901  0.0
O  O401  1  0.92568098  0.87296112  0.12096429  1  -1.295324  -0.001235  -0.31928  -0.540708  -0.000889  2.259057  0.0
O  O402  1  0.42568612  0.12703676  0.37903599  1  -1.295531  -0.001235  -0.319332  -0.540726  -0.000889  2.259061  0.0
O  O403  1  0.07432240  0.62703934  0.62096484  1  -1.295232  -0.001235  -0.319235  -0.540648  -0.000889  2.259011  0.0
O  O404  1  0.42567536  0.62703454  0.12096328  1  -1.295576  -0.001235  -0.319222  -0.540647  -0.000889  2.259169  0.0
O  O405  1  0.07431770  0.12703855  0.87903429  1  -1.295669  -0.001235  -0.319236  -0.54066  -0.000889  2.259069  0.0
O  O406  1  0.57432183  0.87296065  0.62096463  1  -1.295286  -0.001235  -0.319254  -0.540655  -0.000889  2.25904  0.0
O  O407  1  0.92568247  0.37296408  0.37903659  1  -1.295473  -0.001235  -0.319299  -0.540722  -0.000889  2.259068  0.0
O  O408  1  0.72629872  0.47712105  0.85349846  1  -1.275262  4.9e-05  -0.302959  -0.502641  6.2e-05  2.159625  0.0
O  O409  1  0.77370003  0.97711800  0.14650317  1  -1.275229  4.9e-05  -0.302974  -0.502679  6.2e-05  2.159554  0.0
O  O410  1  0.27370322  0.02288157  0.35349830  1  -1.275171  4.9e-05  -0.302996  -0.502729  6.2e-05  2.15969  0.0
O  O411  1  0.22630311  0.52288096  0.64650252  1  -1.275346  4.9e-05  -0.302998  -0.502701  6.2e-05  2.159607  0.0
O  O412  1  0.27369842  0.52288012  0.14650582  1  -1.275061  4.9e-05  -0.302978  -0.502682  6.2e-05  2.159705  0.0
O  O413  1  0.22629787  0.02288317  0.85349785  1  -1.275194  4.9e-05  -0.302971  -0.502676  6.2e-05  2.159703  0.0
O  O414  1  0.72630241  0.97711509  0.64650272  1  -1.27523  4.9e-05  -0.302989  -0.502726  6.2e-05  2.159603  0.0
O  O415  1  0.77370252  0.47711945  0.35349729  1  -1.275198  4.9e-05  -0.302941  -0.502633  6.2e-05  2.159632  0.0
