# generated using pymatgen
data_CdH20C29(N3O2)2
_symmetry_space_group_name_H-M   'P 1'
_cell_length_a   21.91304234
_cell_length_b   21.92016578
_cell_length_c   22.64140846
_cell_angle_alpha   118.94264087
_cell_angle_beta   118.94066683
_cell_angle_gamma   90.01476809
_symmetry_Int_Tables_number   1
_chemical_formula_structural   CdH20C29(N3O2)2
_chemical_formula_sum   'Cd8 H160 C232 N48 O32'
_cell_volume   7928.87595518
_cell_formula_units_Z   8
loop_
 _symmetry_equiv_pos_site_id
 _symmetry_equiv_pos_as_xyz
  1  'x, y, z'
loop_
 _atom_site_type_symbol
 _atom_site_label
 _atom_site_symmetry_multiplicity
 _atom_site_fract_x
 _atom_site_fract_y
 _atom_site_fract_z
 _atom_site_occupancy
 _atom_site_pbe_bader_charge
 _atom_site_pbe_bader_spin_density
 _atom_site_pbe_cm5_charge
 _atom_site_pbe_ddec_charge
 _atom_site_pbe_ddec_spin_density
 _atom_site_pbe_ddec_sum_bond_order
 _atom_site_pbe_magmom
Cd  Cd0  1  0.08798515  0.64971637  0.50750319  1  1.252503  0  0.77003  0.828184  0  2.250694  0
Cd  Cd1  1  0.10764203  0.83773239  0.00731431  1  1.254022  0  0.769879  0.827882  0  2.251709  0
Cd  Cd2  1  0.41950438  0.85782371  0.50733568  1  1.253052  0  0.769872  0.827841  0  2.250186  0
Cd  Cd3  1  0.89979349  0.16962010  0.00756769  1  1.251512  0  0.770012  0.828558  0  2.248506  0
Cd  Cd4  1  0.43999501  0.47576042  0.20662898  1  1.256026  0  0.770809  0.829706  0  2.271322  0
Cd  Cd5  1  0.98106871  0.19020058  0.70672856  1  1.256426  0  0.770932  0.829322  0  2.272635  0
Cd  Cd6  1  0.76645496  0.73078223  0.20670012  1  1.254958  0  0.771263  0.829864  0  2.273023  0
Cd  Cd7  1  0.72580118  0.51669232  0.70693593  1  1.255981  0  0.771174  0.829829  0  2.27357  0
H  H8  1  0.10030883  0.46126849  0.88483074  1  0.058321  0  0.097388  0.094654  0  1.012713  0
H  H9  1  0.67371023  0.85013523  0.38524475  1  0.055727  0  0.097476  0.095264  0  1.011652  0
H  H10  1  0.78497150  0.42346310  0.88529727  1  0.060054  0  0.097581  0.094931  0  1.011889  0
H  H11  1  0.71124429  0.53493631  0.38513100  1  0.061155  0  0.097248  0.094944  0  1.011917  0
H  H12  1  0.36910536  0.55148976  0.02173149  1  0.033407  0  0.096065  0.096805  0  1.008397  0
H  H13  1  0.72052411  0.11880378  0.52170063  1  0.036294  0  0.096114  0.097141  0  1.009284  0
H  H14  1  0.65258915  0.47050113  0.02166772  1  0.046276  0  0.09613  0.097281  0  1.009381  0
H  H15  1  0.80102591  0.40291353  0.52179851  1  0.050862  0  0.096097  0.097077  0  1.009685  0
H  H16  1  0.28486525  0.56419846  0.90734241  1  0.004497  0  0.089176  0.08259  0  1.013036  0
H  H17  1  0.59330860  0.03458040  0.40766891  1  0.009764  0  0.089134  0.082299  0  1.012666  0
H  H18  1  0.62287231  0.34323575  0.90785004  1  0.017418  0  0.089005  0.082341  0  1.013  0
H  H19  1  0.81433641  0.37313554  0.40786680  1  0.022392  0  0.089056  0.082314  0  1.012926  0
H  H20  1  0.14977586  0.51786868  0.83840527  1  0.048284  0  0.083178  0.074437  0  1.060952  0
H  H21  1  0.57066038  0.89954620  0.33897747  1  0.057355  0  0.083175  0.073969  0  1.062031  0
H  H22  1  0.68929482  0.32044634  0.83920402  1  0.059003  0  0.083153  0.073996  0  1.061898  0
H  H23  1  0.76821048  0.43936947  0.33905839  1  0.043204  0  0.082965  0.073594  0  1.062335  0
H  H24  1  0.86337941  0.40368257  0.22615964  1  0.104532  0  0.122201  0.141853  0  1.001932  0
H  H25  1  0.07255187  0.61327679  0.72593034  1  0.10945  0  0.122172  0.141926  0  1.001449  0
H  H26  1  0.36261906  0.82239171  0.22595189  1  0.102026  0  0.122101  0.141923  0  1.001641  0
H  H27  1  0.65351146  0.11276756  0.72603453  1  0.108675  0  0.122115  0.141881  0  1.001597  0
H  H28  1  0.93512510  0.70596443  0.45043043  1  0.112894  0  0.121807  0.118737  0  1.022118  0
H  H29  1  0.99397928  0.68473708  0.94984601  1  0.126479  0  0.121775  0.118387  0  1.023491  0
H  H30  1  0.51525685  0.74446909  0.45033384  1  0.124573  0  0.121783  0.118598  0  1.022734  0
H  H31  1  0.95594110  0.26504453  0.95019871  1  0.09756  0  0.121929  0.118717  0  1.022231  0
H  H32  1  0.79885150  0.61545970  0.30884605  1  0.162363  0  0.136945  0.151238  0  0.980155  0
H  H33  1  0.94293221  0.54862876  0.80814518  1  0.129501  0  0.136697  0.151538  0  0.979184  0
H  H34  1  0.50958287  0.69307565  0.30851819  1  0.159582  0  0.136712  0.151266  0  0.980028  0
H  H35  1  0.86541245  0.25976833  0.80864792  1  0.153636  0  0.136913  0.151462  0  0.979875  0
H  H36  1  0.93580119  0.48789847  0.36426929  1  0.150197  0  0.140715  0.110542  0  0.982626  0
H  H37  1  0.12633582  0.68566911  0.86416171  1  0.152399  0  0.140745  0.110822  0  0.98281  0
H  H38  1  0.42844204  0.87631547  0.36407265  1  0.146828  0  0.140685  0.110625  0  0.982929  0
H  H39  1  0.73779302  0.17837093  0.86416327  1  0.130223  0  0.140764  0.110672  0  0.982918  0
H  H40  1  0.70712088  0.51633983  0.25105686  1  0.100893  0  0.12625  0.144615  0  0.984139  0
H  H41  1  0.98460873  0.45707371  0.75078251  1  0.097254  0  0.12622  0.144529  0  0.984697  0
H  H42  1  0.54372209  0.73453060  0.25084056  1  0.105859  0  0.126271  0.144515  0  0.984281  0
H  H43  1  0.76638253  0.29399561  0.75118776  1  0.093588  0  0.126085  0.144289  0  0.98462  0
H  H44  1  0.63114470  0.28934564  0.05810667  1  0.091473  0  0.113735  0.126352  0  1.012973  0
H  H45  1  0.01893758  0.38111926  0.55799483  1  0.093669  0  0.113985  0.127067  0  1.012354  0
H  H46  1  0.42674272  0.76855413  0.05786090  1  0.074205  0  0.113704  0.12675  0  1.012576  0
H  H47  1  0.53936407  0.17696426  0.55802539  1  0.087376  0  0.113755  0.12663  0  1.012292  0
H  H48  1  0.60329864  0.46560250  0.24515579  1  0.13694  0  0.139191  0.108419  0  1.02367  0
H  H49  1  0.02970535  0.35358612  0.74523092  1  0.187468  0  0.139305  0.10859  0  1.023542  0
H  H50  1  0.64169256  0.77951458  0.24509319  1  0.182479  0  0.139449  0.108812  0  1.023439  0
H  H51  1  0.71574820  0.39183730  0.74536723  1  0.180182  0  0.138847  0.10781  0  1.023884  0
H  H52  1  0.50371144  0.57621365  0.50962155  1  0.10328  0  0.120678  0.13598  0  1.015179  0
H  H53  1  0.18262821  0.25346288  0.00910342  1  0.088812  0  0.120525  0.13589  0  1.016109  0
H  H54  1  0.00567915  0.93282218  0.50923831  1  0.10119  0  0.120712  0.136273  0  1.015326  0
H  H55  1  0.82644258  0.75582889  0.00969720  1  0.091566  0  0.120586  0.135891  0  1.014974  0
H  H56  1  0.43045430  0.65610528  0.67246197  1  0.080405  0  0.112451  0.125948  0  1.013962  0
H  H57  1  0.26594668  0.18020918  0.17189534  1  0.084874  0  0.112305  0.125269  0  1.014978  0
H  H58  1  0.24179964  0.01609545  0.67201656  1  0.085824  0  0.11228  0.125222  0  1.014999  0
H  H59  1  0.90608533  0.99186531  0.17253279  1  0.090859  0  0.112457  0.125913  0  1.014243  0
H  H60  1  0.21955307  0.61879924  0.46901186  1  0.184091  0  0.141211  0.112834  0  1.006246  0
H  H61  1  0.10007842  0.96909853  0.96867649  1  0.165258  0  0.140826  0.112543  0  1.006751  0
H  H62  1  0.24966693  0.85017808  0.46885813  1  0.204012  0  0.141075  0.113035  0  1.006235  0
H  H63  1  0.86835290  0.99963283  0.96903637  1  0.182978  0  0.141072  0.113  0  1.006017  0
H  H64  1  0.32157938  0.66361051  0.46001543  1  0.076786  0  0.124042  0.144727  0  0.983686  0
H  H65  1  0.04594856  0.07100040  0.95941605  1  0.131823  0  0.123984  0.14451  0  0.983659  0
H  H66  1  0.13842781  0.79609864  0.45966597  1  0.112862  0  0.123865  0.144183  0  0.983994  0
H  H67  1  0.91352873  0.88857990  0.96005000  1  0.118431  0  0.12422  0.144985  0  0.983361  0
H  H68  1  0.24902828  0.53072235  0.12837319  1  0.051382  0  0.095051  0.088431  0  1.057438  0
H  H69  1  0.84829448  0.99901652  0.62854216  1  0.062233  0  0.095246  0.088699  0  1.056292  0
H  H70  1  0.87912121  0.59769891  0.12827280  1  0.05171  0  0.095032  0.088173  0  1.056988  0
H  H71  1  0.78025239  0.62962216  0.62844060  1  0.068165  0  0.095137  0.088668  0  1.055799  0
H  H72  1  0.93071262  0.55944366  0.26557351  1  0.073706  0  0.096946  0.095313  0  1.046001  0
H  H73  1  0.95615137  0.68085620  0.76565062  1  0.055842  0  0.096991  0.095657  0  1.045681  0
H  H74  1  0.33467301  0.70576993  0.26539838  1  0.080104  0  0.096944  0.09571  0  1.045516  0
H  H75  1  0.80980432  0.08508881  0.76575186  1  0.066933  0  0.096793  0.095081  0  1.046617  0
H  H76  1  0.83374555  0.48602571  0.11750619  1  0.074801  0  0.095042  0.095914  0  1.035099  0
H  H77  1  0.88139966  0.58387419  0.61760895  1  0.068961  0  0.094959  0.095789  0  1.035613  0
H  H78  1  0.28359247  0.63106747  0.11737669  1  0.062941  0  0.09522  0.096011  0  1.036094  0
H  H79  1  0.73640647  0.03420578  0.61777976  1  0.057749  0  0.095243  0.095976  0  1.035295  0
H  H80  1  0.97948442  0.36674171  0.07526902  1  0.058697  0  0.098253  0.095249  0  1.042941  0
H  H81  1  0.95879230  0.72924890  0.57517171  1  0.061095  0  0.098224  0.095385  0  1.04353  0
H  H82  1  0.09575691  0.70839314  0.07496244  1  0.069013  0  0.098513  0.095981  0  1.04266  0
H  H83  1  0.61660190  0.84623977  0.57514172  1  0.045845  0  0.098299  0.09551  0  1.04291  0
H  H84  1  0.86026163  0.38997875  0.02174919  1  0.095127  0  0.093087  0.091398  0  1.023105  0
H  H85  1  0.88192009  0.61014997  0.52176870  1  0.050601  0  0.09313  0.091731  0  1.022827  0
H  H86  1  0.16145245  0.63153584  0.02153413  1  0.031737  0  0.09345  0.091901  0  1.023429  0
H  H87  1  0.64001363  0.91209870  0.52184878  1  0.035433  0  0.093077  0.091781  0  1.023059  0
H  H88  1  0.16142239  0.28422543  0.19164002  1  0.077377  0  0.088813  0.086262  0  1.03844  0
H  H89  1  0.15751250  0.91125551  0.69134236  1  0.045949  0  0.088936  0.086339  0  1.038454  0
H  H90  1  0.03008837  0.90718939  0.19121995  1  0.056549  0  0.088965  0.086003  0  1.038772  0
H  H91  1  0.53398344  0.78051386  0.69135430  1  0.066213  0  0.088956  0.086135  0  1.038398  0
H  H92  1  0.35005125  0.60247626  0.24394605  1  0.118804  0  0.118694  0.114055  0  1.036786  0
H  H93  1  0.89100902  0.09999541  0.74344604  1  0.144255  0  0.119154  0.114355  0  1.03617  0
H  H94  1  0.89366999  0.64098233  0.24377444  1  0.143224  0  0.119114  0.114338  0  1.036126  0
H  H95  1  0.85252035  0.64388498  0.74397859  1  0.134256  0  0.118715  0.114092  0  1.036206  0
H  H96  1  0.44535617  0.50725672  0.37560111  1  0.133209  0  0.140356  0.110124  0  0.991355  0
H  H97  1  0.11799569  0.19528343  0.87539800  1  0.146534  0  0.140392  0.110312  0  0.990871  0
H  H98  1  0.93001938  0.86785577  0.37542603  1  0.134796  0  0.140472  0.110436  0  0.990883  0
H  H99  1  0.75750438  0.68025148  0.87588208  1  0.133548  0  0.14033  0.109887  0  0.991507  0
H  H100  1  0.20600257  0.48667867  0.18760661  1  0.027131  0  0.091721  0.089111  0  1.038301  0
H  H101  1  0.95147612  0.95579776  0.68755825  1  0.029425  0  0.091814  0.089179  0  1.038898  0
H  H102  1  0.98140648  0.70110667  0.18771953  1  0.086911  0  0.091954  0.089507  0  1.037904  0
H  H103  1  0.73610236  0.73184745  0.68747611  1  0.076103  0  0.091561  0.088764  0  1.038839  0
H  H104  1  0.59910289  0.57462673  0.60122614  1  0.161634  0  0.142498  0.120595  0  1.000644  0
H  H105  1  0.27573605  0.34902312  0.10073137  1  0.168692  0  0.142896  0.1212  0  0.999682  0
H  H106  1  0.00185402  0.02607379  0.60099645  1  0.147689  0  0.142886  0.121353  0  1.000743  0
H  H107  1  0.82571578  0.75208251  0.10188133  1  0.178424  0  0.142389  0.120261  0  1.001107  0
H  H108  1  0.10265424  0.37026945  0.09644428  1  0.075828  0  0.090955  0.089104  0  1.066804  0
H  H109  1  0.97629671  0.85220831  0.59618533  1  0.067829  0  0.091048  0.089517  0  1.06645  0
H  H110  1  0.99388965  0.72631302  0.09668504  1  0.077355  0  0.090856  0.088871  0  1.067289  0
H  H111  1  0.61970458  0.74390654  0.59614821  1  0.06526  0  0.091251  0.090017  0  1.065939  0
H  H112  1  0.34860967  0.67800452  0.38222736  1  0.180503  0  0.122403  0.141897  0  1.051952  0
H  H113  1  0.95358192  0.09805187  0.88142689  1  0.189828  0  0.122405  0.142399  0  1.053615  0
H  H114  1  0.03352282  0.70377563  0.38188911  1  0.193039  0  0.122344  0.142302  0  1.05301  0
H  H115  1  0.92796991  0.78369647  0.88210073  1  0.194413  0  0.122477  0.141866  0  1.052044  0
H  H116  1  0.27647873  0.51545324  0.35651273  1  0.035225  0  0.086359  0.074994  0  1.068948  0
H  H117  1  0.09114958  0.02636620  0.85620116  1  0.042395  0  0.086161  0.074873  0  1.068912  0
H  H118  1  0.08025949  0.84124446  0.35648021  1  0.03497  0  0.086239  0.074877  0  1.068638  0
H  H119  1  0.76523092  0.82996032  0.85608777  1  0.048122  0  0.086192  0.074925  0  1.068624  0
H  H120  1  0.27948934  0.38630081  0.29719988  1  0.046323  0  0.091135  0.086352  0  1.01301  0
H  H121  1  0.16092121  0.02935096  0.79676567  1  0.044431  0  0.091156  0.086576  0  1.012772  0
H  H122  1  0.01772562  0.91087325  0.29694062  1  0.038163  0  0.091178  0.086486  0  1.01292  0
H  H123  1  0.63595824  0.76789332  0.79685867  1  0.041101  0  0.091202  0.086517  0  1.013543  0
H  H124  1  0.15768617  0.54139151  0.31056060  1  0.06486  0  0.100712  0.100702  0  1.001039  0
H  H125  1  0.01930943  0.90766188  0.81044656  1  0.054861  0  0.100742  0.100736  0  1.001057  0
H  H126  1  0.15302997  0.76927336  0.31051309  1  0.048397  0  0.100871  0.100794  0  1.001068  0
H  H127  1  0.79139107  0.90278946  0.81023606  1  0.049331  0  0.100871  0.100785  0  1.000878  0
H  H128  1  0.38955483  0.77151249  0.71553106  1  0.122655  0  0.125643  0.125068  0  0.998874  0
H  H129  1  0.19341622  0.13931726  0.21499515  1  0.144758  0  0.126023  0.126179  0  0.998192  0
H  H130  1  0.32573848  0.94371972  0.71520477  1  0.122838  0  0.126076  0.125742  0  0.998119  0
H  H131  1  0.02139892  0.07579191  0.21537108  1  0.116114  0  0.125772  0.125051  0  0.999007  0
H  H132  1  0.53048540  0.33455440  0.99708520  1  0.115827  0  0.124639  0.124325  0  1.003992  0
H  H133  1  0.91255973  0.28033229  0.49702255  1  0.095543  0  0.124623  0.124248  0  1.004013  0
H  H134  1  0.46653469  0.66239820  0.99695003  1  0.100563  0  0.124437  0.123679  0  1.004707  0
H  H135  1  0.58487031  0.21678699  0.49718799  1  0.100652  0  0.124462  0.124182  0  1.004427  0
H  H136  1  0.41138683  0.36068696  0.01133171  1  0.158314  0  0.126241  0.127844  0  0.987938  0
H  H137  1  0.90091286  0.16142591  0.51161946  1  0.16973  0  0.126385  0.128007  0  0.988094  0
H  H138  1  0.60001685  0.65091801  0.01137622  1  0.145574  0  0.126422  0.127982  0  0.988208  0
H  H139  1  0.61100225  0.35025260  0.51171430  1  0.153909  0  0.126197  0.127349  0  0.988646  0
H  H140  1  0.25239925  0.77501709  0.69358064  1  0.119353  0  0.123686  0.126453  0  0.994936  0
H  H141  1  0.16817712  0.00234781  0.19337484  1  0.128202  0  0.123643  0.126017  0  0.994853  0
H  H142  1  0.44114806  0.91845764  0.69362701  1  0.156455  0  0.123817  0.126571  0  0.994596  0
H  H143  1  0.02505228  0.19112702  0.19369728  1  0.174352  0  0.12364  0.12645  0  0.995001  0
H  H144  1  0.60830286  0.54833007  0.77692356  1  0.186279  0  0.124668  0.140461  0  1.006252  0
H  H145  1  0.47805510  0.35803295  0.27585346  1  0.150869  0  0.124463  0.140075  0  1.00755  0
H  H146  1  0.16826169  0.22818696  0.77603659  1  0.148912  0  0.124484  0.140447  0  1.007073  0
H  H147  1  0.79763133  0.91792490  0.27624740  1  0.18643  0  0.124579  0.140409  0  1.007833  0
H  H148  1  0.48744588  0.59543407  0.71729371  1  0.106311  0  0.121475  0.120446  0  1.015516  0
H  H149  1  0.37135899  0.23721938  0.21643132  1  0.090124  0  0.12114  0.119954  0  1.015422  0
H  H150  1  0.22940501  0.12144107  0.71629791  1  0.093159  0  0.121144  0.120105  0  1.015201  0
H  H151  1  0.84464203  0.97932086  0.21665807  1  0.093401  0  0.121168  0.120437  0  1.014714  0
H  H152  1  0.86795676  0.31657385  0.12045929  1  0.202661  0  0.139851  0.117242  0  1.014783  0
H  H153  1  0.05371400  0.61764873  0.61996547  1  0.178422  0  0.140044  0.117814  0  1.014831  0
H  H154  1  0.25215845  0.80369616  0.12000167  1  0.18408  0  0.139996  0.117899  0  1.014627  0
H  H155  1  0.56623638  0.00241577  0.62022554  1  0.182181  0  0.140014  0.117779  0  1.015019  0
H  H156  1  0.04255698  0.30339385  0.94697464  1  0.069493  0  0.093843  0.093868  0  1.03936  0
H  H157  1  0.89357542  0.79223947  0.44673590  1  0.058589  0  0.093942  0.093947  0  1.03874  0
H  H158  1  0.90478903  0.64358073  0.94716089  1  0.06625  0  0.093752  0.093643  0  1.040011  0
H  H159  1  0.55293733  0.65443057  0.44671029  1  0.05806  0  0.094044  0.094216  0  1.03852  0
H  H160  1  0.72971765  0.09985567  0.96990688  1  0.195999  0  0.125087  0.139431  0  1.00344  0
H  H161  1  0.12109174  0.47999287  0.47051037  1  0.137518  0  0.125179  0.13932  0  1.003159  0
H  H162  1  0.24037485  0.87032390  0.96998073  1  0.186034  0  0.125411  0.139837  0  1.0037  0
H  H163  1  0.34957452  0.99044317  0.46993183  1  0.178511  0  0.125474  0.139937  0  1.003244  0
H  H164  1  0.66520993  0.19151972  0.04285025  1  0.095898  0  0.123068  0.122794  0  1.009609  0
H  H165  1  0.10217683  0.41551830  0.54341241  1  0.106277  0  0.123297  0.12348  0  1.008479  0
H  H166  1  0.37770414  0.85133894  0.04293190  1  0.100366  0  0.123014  0.122514  0  1.009674  0
H  H167  1  0.44150575  0.12776075  0.54288848  1  0.090391  0  0.123176  0.122756  0  1.009744  0
C  C168  1  0.20572272  0.46960237  0.97538236  1  -0.043979  0  0.005323  0.067379  0  3.934527  0
C  C169  1  0.75602484  0.95552907  0.47549265  1  -0.078936  0  0.00532  0.067608  0  3.93344  0
C  C170  1  0.76967750  0.50582705  0.97532494  1  -0.058527  0  0.005592  0.067328  0  3.93478  0
C  C171  1  0.71925079  0.51989069  0.47545061  1  -0.016445  0  0.005653  0.068112  0  3.932582  0
C  C172  1  0.33685727  0.48727707  0.08047803  1  1.561749  0  0.184362  0.560505  0  4.257868  0
C  C173  1  0.84355446  0.08666131  0.58024099  1  1.556543  0  0.184748  0.560532  0  4.257538  0
C  C174  1  0.74326960  0.59349367  0.07992504  1  1.550897  0  0.184468  0.559927  0  4.258812  0
C  C175  1  0.73663644  0.49373804  0.58037256  1  1.5558  0  0.184469  0.560396  0  4.257718  0
C  C176  1  0.28220196  0.49577361  0.01380704  1  0.005396  0  -0.009394  -0.054403  0  3.904441  0
C  C177  1  0.76833039  0.03198510  0.51381409  1  0.032916  0  -0.009503  -0.054177  0  3.9034  0
C  C178  1  0.73146355  0.51821263  0.01359356  1  0.021024  0  -0.009282  -0.053742  0  3.903874  0
C  C179  1  0.74531214  0.48181314  0.51383191  1  0.023456  0  -0.009268  -0.054202  0  3.903076  0
C  C180  1  0.15928696  0.47877176  0.91257539  1  -0.031332  0  -0.090864  -0.122095  0  3.977992  0
C  C181  1  0.68398052  0.90910024  0.41291679  1  0.02706  0  -0.09122  -0.123602  0  3.979031  0
C  C182  1  0.75357792  0.43377852  0.91286673  1  0.020246  0  -0.091534  -0.122868  0  3.978623  0
C  C183  1  0.72866986  0.50367745  0.41283861  1  -0.00609  0  -0.091341  -0.124174  0  3.978114  0
C  C184  1  0.30977141  0.53046303  0.98960225  1  0.031387  0  -0.095812  -0.109323  0  4.014056  0
C  C185  1  0.70939053  0.05950775  0.48968867  1  -0.023892  0  -0.095601  -0.110187  0  4.015251  0
C  C186  1  0.67985554  0.45932301  0.98962364  1  -0.044132  0  -0.096013  -0.110643  0  4.015884  0
C  C187  1  0.78013710  0.43015853  0.48975485  1  -0.058826  0  -0.095931  -0.110027  0  4.014636  0
C  C188  1  0.26273044  0.53784800  0.92622646  1  -0.074396  0  -0.108684  -0.103532  0  4.079085  0
C  C189  1  0.63858146  0.01249005  0.42650620  1  -0.056471  0  -0.10887  -0.102792  0  4.077446  0
C  C190  1  0.66378719  0.38848731  0.92658877  1  -0.054387  0  -0.108659  -0.102808  0  4.079184  0
C  C191  1  0.78778290  0.41398720  0.42657960  1  -0.052045  0  -0.108507  -0.103185  0  4.078814  0
C  C192  1  0.18704805  0.51171473  0.88752422  1  -0.054963  0  -0.10857  -0.095972  0  4.064055  0
C  C193  1  0.62596503  0.93683415  0.38794269  1  -0.097755  0  -0.108112  -0.094748  0  4.063286  0
C  C194  1  0.70090455  0.37579446  0.88803323  1  -0.077628  0  -0.108255  -0.095309  0  4.064005  0
C  C195  1  0.76179103  0.45102255  0.38796110  1  -0.08114  0  -0.108109  -0.093977  0  4.063474  0
C  C196  1  0.80695976  0.40306032  0.20589540  1  0.066979  0  -0.084897  -0.266862  0  3.918313  0
C  C197  1  0.05284192  0.55687442  0.70565459  1  0.071003  0  -0.084689  -0.267064  0  3.918609  0
C  C198  1  0.39872794  0.80266186  0.20564875  1  0.071757  0  -0.084697  -0.266983  0  3.919108  0
C  C199  1  0.65295283  0.14889652  0.70577487  1  0.0704  0  -0.084336  -0.266144  0  3.918308  0
C  C200  1  0.91366633  0.64681292  0.41187223  1  0.395006  0  0.008451  -0.014827  0  3.990954  0
C  C201  1  0.01464541  0.66338962  0.91134551  1  0.388844  0  0.008536  -0.015143  0  3.99399  0
C  C202  1  0.49805599  0.76495323  0.41167148  1  0.385567  0  0.008344  -0.014779  0  3.991666  0
C  C203  1  0.89677429  0.24794868  0.91164441  1  0.461655  0  0.007951  -0.015292  0  3.991972  0
C  C204  1  0.74885010  0.33947231  0.13810875  1  0.312998  0  0.107698  0.217656  0  4.03347  0
C  C205  1  0.04873433  0.49879872  0.63793691  1  0.290005  0  0.10776  0.218809  0  4.034973  0
C  C206  1  0.38904103  0.79843233  0.13785497  1  0.321182  0  0.107915  0.21863  0  4.034454  0
C  C207  1  0.58939655  0.13922212  0.63797426  1  0.330983  0  0.107902  0.218097  0  4.034123  0
C  C208  1  0.79127597  0.46645656  0.24616666  1  0.353525  0  0.113035  0.220911  0  4.02308  0
C  C209  1  0.02959555  0.54119977  0.74585580  1  0.351202  0  0.113559  0.221622  0  4.022226  0
C  C210  1  0.45465628  0.77948885  0.24589323  1  0.338112  0  0.113368  0.221461  0  4.023263  0
C  C211  1  0.71639451  0.20487399  0.74612628  1  0.338916  0  0.113337  0.221265  0  4.023696  0
C  C212  1  0.84596373  0.60262577  0.34263162  1  0.310718  0  0.010031  -0.094937  0  3.86448  0
C  C213  1  0.98965179  0.59574549  0.84210081  1  0.324788  0  0.01025  -0.094919  0  3.865245  0
C  C214  1  0.49642386  0.73981191  0.34238352  1  0.301298  0  0.010264  -0.094844  0  3.865064  0
C  C215  1  0.85258158  0.24649586  0.84247467  1  0.264938  0  0.009905  -0.09539  0  3.865178  0
C  C216  1  0.91767250  0.53530886  0.36976447  1  0.950661  0  0.145328  0.097127  0  3.915227  0
C  C217  1  0.08431067  0.66751389  0.86952805  1  0.96604  0  0.144357  0.095545  0  3.916162  0
C  C218  1  0.45200101  0.83437459  0.36956823  1  0.941361  0  0.144831  0.096377  0  3.915294  0
C  C219  1  0.78522244  0.20196321  0.86963857  1  0.97783  0  0.145144  0.096694  0  3.914836  0
C  C220  1  0.71902805  0.46688818  0.21956459  1  0.037905  0  -0.081154  -0.255857  0  3.916889  0
C  C221  1  0.00256562  0.46896794  0.71926705  1  0.043228  0  -0.08073  -0.255661  0  3.917492  0
C  C222  1  0.50031152  0.75246856  0.21931472  1  0.033036  0  -0.080959  -0.255374  0  3.91707  0
C  C223  1  0.71691415  0.25055153  0.71960788  1  0.038939  0  -0.081002  -0.25585  0  3.917839  0
C  C224  1  0.66226358  0.40252323  0.15236799  1  0.347413  0  0.107238  0.215175  0  4.048873  0
C  C225  1  0.99983849  0.41223277  0.65215106  1  0.312836  0  0.107114  0.215538  0  4.048339  0
C  C226  1  0.48988211  0.74964379  0.15213043  1  0.307589  0  0.107415  0.215422  0  4.04848  0
C  C227  1  0.65258235  0.24010471  0.65238053  1  0.34437  0  0.107381  0.215675  0  4.04851  0
C  C228  1  0.67630065  0.33879877  0.11073382  1  0.010349  0  -0.093798  -0.270256  0  3.94857  0
C  C229  1  0.02202856  0.42626183  0.61056201  1  0.032955  0  -0.094127  -0.271442  0  3.948169  0
C  C230  1  0.43420049  0.77171122  0.11047142  1  0.035965  0  -0.093865  -0.271183  0  3.948517  0
C  C231  1  0.58880326  0.18442041  0.61066167  1  -0.006634  0  -0.093844  -0.270692  0  3.947852  0
C  C232  1  0.56704167  0.43483901  0.17967821  1  1.04791  0  0.153058  0.113566  0  3.882278  0
C  C233  1  0.99503229  0.31722304  0.67975960  1  0.980005  0  0.153023  0.113303  0  3.882967  0
C  C234  1  0.61250364  0.74486487  0.17961222  1  0.966886  0  0.1531  0.113144  0  3.882641  0
C  C235  1  0.68501579  0.36269429  0.67989866  1  0.965349  0  0.153602  0.114594  0  3.882731  0
C  C236  1  0.02580505  0.29019302  0.13353997  1  1.56088  0  0.186033  0.560995  0  4.259754  0
C  C237  1  0.09350851  0.77572884  0.63346254  1  1.556254  0  0.186041  0.561349  0  4.25981  0
C  C238  1  0.10742102  0.84302523  0.13303924  1  1.559771  0  0.185325  0.560539  0  4.259659  0
C  C239  1  0.54018450  0.85804045  0.63342572  1  1.567811  0  0.185475  0.560469  0  4.258788  0
C  C240  1  0.46660638  0.59999857  0.52628589  1  0.054341  0  -0.082971  -0.260207  0  3.905689  0
C  C241  1  0.17563253  0.21628540  0.02573468  1  0.046118  0  -0.083662  -0.26256  0  3.907059  0
C  C242  1  0.05948981  0.92579799  0.52586488  1  0.074644  0  -0.083466  -0.261935  0  3.90622  0
C  C243  1  0.85013372  0.80963314  0.02634791  1  0.060769  0  -0.082958  -0.259946  0  3.905931  0
C  C244  1  0.37225967  0.66297325  0.56849991  1  0.318834  0  0.104066  0.210104  0  4.047405  0
C  C245  1  0.15510466  0.12184261  0.06793183  1  0.333322  0  0.103727  0.210166  0  4.046581  0
C  C246  1  0.19615316  0.90528041  0.56810099  1  0.357068  0  0.103464  0.20961  0  4.048437  0
C  C247  1  0.91277929  0.94624037  0.06845294  1  0.309744  0  0.103526  0.209246  0  4.047462  0
C  C248  1  0.42667124  0.64600183  0.61864068  1  0.005484  0  -0.095877  -0.276103  0  3.951128  0
C  C249  1  0.22216874  0.17637327  0.11807049  1  0.01872  0  -0.095625  -0.275469  0  3.951784  0
C  C250  1  0.19178444  0.97233804  0.61819851  1  0.002095  0  -0.095454  -0.275335  0  3.952161  0
C  C251  1  0.89594506  0.94188987  0.11865598  1  -0.004388  0  -0.095788  -0.275672  0  3.95216  0
C  C252  1  0.24639303  0.66270358  0.53243345  1  0.956199  0  0.148339  0.103363  0  3.892107  0
C  C253  1  0.11954864  0.99603576  0.03209779  1  0.968322  0  0.1491  0.104618  0  3.891113  0
C  C254  1  0.28614744  0.86967756  0.53228941  1  0.932925  0  0.148833  0.103669  0  3.891464  0
C  C255  1  0.91233100  0.03614442  0.03245997  1  0.947083  0  0.148713  0.103108  0  3.891466  0
C  C256  1  0.36417514  0.64965939  0.49807451  1  0.097022  0  -0.082649  -0.254499  0  3.926232  0
C  C257  1  0.09792587  0.11366862  0.99747450  1  0.014926  0  -0.08255  -0.25395  0  3.924429  0
C  C258  1  0.13384898  0.84809252  0.49768267  1  0.05024  0  -0.082071  -0.25317  0  3.925238  0
C  C259  1  0.89954573  0.88395288  0.99804766  1  0.065706  0  -0.082575  -0.254123  0  3.926705  0
C  C260  1  0.41143197  0.61727570  0.47710517  1  0.350642  0  0.115707  0.229271  0  4.019418  0
C  C261  1  0.10924822  0.16098175  0.97653165  1  0.390837  0  0.11644  0.231621  0  4.019762  0
C  C262  1  0.06556993  0.85939635  0.47671949  1  0.323946  0  0.116035  0.230909  0  4.018233  0
C  C263  1  0.86733066  0.81570429  0.97713933  1  0.347289  0  0.115577  0.228921  0  4.019766  0
C  C264  1  0.47364158  0.61394275  0.59680187  1  0.321136  0  0.109425  0.221646  0  4.023899  0
C  C265  1  0.23226308  0.22338553  0.09622813  1  0.295388  0  0.109496  0.221918  0  4.024769  0
C  C266  1  0.12292734  0.98244813  0.59632771  1  0.309837  0  0.109589  0.221961  0  4.024371  0
C  C267  1  0.86404040  0.87304342  0.09686933  1  0.325287  0  0.109501  0.220884  0  4.02612  0
C  C268  1  0.17497584  0.43978931  0.00517014  1  -0.053726  0  -0.002802  0.052422  0  3.953583  0
C  C269  1  0.81570195  0.92482874  0.50523511  1  0.05126  0  -0.003072  0.052662  0  3.952105  0
C  C270  1  0.83024349  0.56543050  0.00512771  1  -0.003732  0  -0.002508  0.053469  0  3.952929  0
C  C271  1  0.68937397  0.58037553  0.50517702  1  0.00501  0  -0.003093  0.052748  0  3.952204  0
C  C272  1  0.20523412  0.47929967  0.08886644  1  -0.036744  0  -0.093818  -0.124346  0  3.979099  0
C  C273  1  0.86005647  0.95513725  0.58892901  1  -0.056353  0  -0.094308  -0.1252  0  3.979483  0
C  C274  1  0.88354715  0.60962687  0.08883868  1  -0.071151  0  -0.094074  -0.124337  0  3.978856  0
C  C275  1  0.72882025  0.63383784  0.58885088  1  -0.053885  0  -0.094301  -0.125377  0  3.980786  0
C  C276  1  0.94022418  0.51599292  0.22301032  1  -0.106592  0  -0.100126  -0.119421  0  4.006003  0
C  C277  1  0.95707201  0.69029240  0.72304527  1  -0.11023  0  -0.099815  -0.119022  0  4.004773  0
C  C278  1  0.28263202  0.70672584  0.22283127  1  -0.007296  0  -0.099749  -0.119365  0  4.005553  0
C  C279  1  0.76626957  0.03304660  0.72313268  1  -0.082394  0  -0.099683  -0.119029  0  4.005238  0
C  C280  1  0.00748993  0.50202978  0.25452379  1  0.043046  0  -0.015974  -0.063471  0  3.91424  0
C  C281  1  0.00262687  0.75749319  0.75447237  1  0.033116  0  -0.016519  -0.064174  0  3.915376  0
C  C282  1  0.24692494  0.75232107  0.25429200  1  -0.050598  0  -0.016185  -0.062871  0  3.9146  0
C  C283  1  0.75218625  0.99722677  0.75453150  1  -0.036393  0  -0.0159  -0.063255  0  3.913066  0
C  C284  1  0.05750448  0.54480079  0.34579657  1  1.526995  0  0.182662  0.553371  0  4.284304  0
C  C285  1  0.05120136  0.80752171  0.84574080  1  1.534213  0  0.182754  0.553089  0  4.285376  0
C  C286  1  0.28825684  0.80094440  0.34556950  1  1.571824  0  0.182719  0.55324  0  4.285663  0
C  C287  1  0.79492230  0.03838251  0.84580375  1  1.549255  0  0.18234  0.553074  0  4.284032  0
C  C288  1  0.88621903  0.47514797  0.14025810  1  -0.040983  0  -0.100499  -0.093035  0  4.031849  0
C  C289  1  0.91514019  0.63626095  0.64029760  1  -0.065277  0  -0.100413  -0.092795  0  4.031687  0
C  C290  1  0.25389286  0.66479281  0.14008584  1  -0.112039  0  -0.100922  -0.093624  0  4.033348  0
C  C291  1  0.72537126  0.00443818  0.64041610  1  0.004518  0  -0.100685  -0.092811  0  4.030887  0
C  C292  1  0.09400280  0.35520046  0.19580347  1  -0.105745  0  -0.010187  -0.055546  0  3.90641  0
C  C293  1  0.09077772  0.84390504  0.69570056  1  0.026868  0  -0.010188  -0.054338  0  3.907802  0
C  C294  1  0.10168724  0.84039850  0.19544035  1  -0.019561  0  -0.010187  -0.05512  0  3.909489  0
C  C295  1  0.60515241  0.85207799  0.69566796  1  -0.075315  0  -0.009948  -0.054632  0  3.909073  0
C  C296  1  0.02169230  0.44588885  0.20109041  1  0.001798  0  -0.001631  0.053546  0  3.943118  0
C  C297  1  0.00537626  0.77162000  0.70102420  1  -0.004569  0  -0.001606  0.054646  0  3.944396  0
C  C298  1  0.17932215  0.75502868  0.20080025  1  0.069829  0  -0.001074  0.054929  0  3.944652  0
C  C299  1  0.69594394  0.92964551  0.70100711  1  0.028448  0  -0.001673  0.054574  0  3.944936  0
C  C300  1  0.96797913  0.40770898  0.11747382  1  -0.059112  0  -0.090076  -0.121266  0  3.968033  0
C  C301  1  0.95996502  0.71785370  0.61741774  1  -0.018861  0  -0.090542  -0.122143  0  3.966997  0
C  C302  1  0.14942255  0.70958838  0.11720086  1  -0.124474  0  -0.0916  -0.12414  0  3.969065  0
C  C303  1  0.65768840  0.89989840  0.61743465  1  -0.017564  0  -0.090764  -0.122395  0  3.968181  0
C  C304  1  0.09174159  0.42820832  0.22935975  1  0.007662  0  0.00359  0.063987  0  3.928723  0
C  C305  1  0.05130182  0.84168787  0.72927883  1  0.034061  0  0.003649  0.060721  0  3.934387  0
C  C306  1  0.13757715  0.80103462  0.22908468  1  0.022826  0  0.004083  0.06232  0  3.934307  0
C  C307  1  0.67822118  0.88779243  0.72918989  1  0.020853  0  0.00427  0.061764  0  3.933862  0
C  C308  1  0.90083073  0.42109332  0.08697293  1  -0.083444  0  -0.096143  -0.080162  0  4.018612  0
C  C309  1  0.91600292  0.65075482  0.58697495  1  -0.026713  0  -0.096166  -0.080525  0  4.017581  0
C  C310  1  0.18605480  0.66560653  0.08673730  1  0.00804  0  -0.096084  -0.07961  0  4.018517  0
C  C311  1  0.67116182  0.93662549  0.58703405  1  -0.075253  0  -0.096201  -0.080577  0  4.017488  0
C  C312  1  0.16154268  0.34106856  0.22023870  1  -0.004084  0  -0.097755  -0.113064  0  4.015178  0
C  C313  1  0.12926908  0.91140996  0.71999137  1  -0.108824  0  -0.097682  -0.113131  0  4.017116  0
C  C314  1  0.05861846  0.87900855  0.21989774  1  -0.079617  0  -0.09811  -0.112983  0  4.016854  0
C  C315  1  0.59089882  0.80896478  0.72002443  1  -0.011235  0  -0.098119  -0.112986  0  4.017677  0
C  C316  1  0.36796678  0.59341720  0.29191941  1  0.409364  0  0.006127  -0.01895  0  3.99043  0
C  C317  1  0.94802591  0.11780274  0.79140217  1  0.365587  0  0.006589  -0.016933  0  3.987193  0
C  C318  1  0.92371082  0.69801099  0.29170105  1  0.398026  0  0.005847  -0.018462  0  3.9898  0
C  C319  1  0.84345857  0.67395368  0.79194849  1  0.428927  0  0.006194  -0.018953  0  3.989934  0
C  C320  1  0.41918098  0.54289969  0.35813986  1  0.972608  0  0.144813  0.094927  0  3.906662  0
C  C321  1  0.06483364  0.16904303  0.85781773  1  0.963832  0  0.14476  0.095164  0  3.906311  0
C  C322  1  0.93873422  0.81474842  0.35793892  1  0.993927  0  0.144577  0.09453  0  3.907175  0
C  C323  1  0.79308061  0.68895243  0.85832200  1  0.977164  0  0.145072  0.095091  0  3.907798  0
C  C324  1  0.18040751  0.45513037  0.12227151  1  -0.017579  0  -0.099352  -0.079838  0  4.018638  0
C  C325  1  0.91756696  0.93020720  0.62223226  1  -0.058718  0  -0.099007  -0.078824  0  4.018525  0
C  C326  1  0.94180807  0.66724659  0.12236416  1  -0.048518  0  -0.09954  -0.080601  0  4.017217  0
C  C327  1  0.70460701  0.69204608  0.62215741  1  -0.038656  0  -0.098836  -0.078195  0  4.018287  0
C  C328  1  0.58471708  0.57340527  0.64034693  1  0.97732  0  0.152427  0.113012  0  3.862851  0
C  C329  1  0.31618975  0.33456925  0.13968418  1  0.991386  0  0.153241  0.113062  0  3.861078  0
C  C330  1  0.05531980  0.06645371  0.63992681  1  1.009336  0  0.152814  0.112169  0  3.862354  0
C  C331  1  0.82398749  0.80542773  0.14065575  1  0.962782  0  0.152811  0.113458  0  3.862337  0
C  C332  1  0.12224573  0.39064876  0.07145725  1  -0.072216  0  -0.103346  -0.092626  0  4.033397  0
C  C333  1  0.93104540  0.87195426  0.57130194  1  -0.015537  0  -0.104137  -0.094689  0  4.033352  0
C  C334  1  0.94930604  0.68088875  0.07161170  1  -0.048038  0  -0.103005  -0.091635  0  4.032034  0
C  C335  1  0.64011329  0.69931092  0.57124706  1  -0.103983  0  -0.104273  -0.095188  0  4.033363  0
C  C336  1  0.36735628  0.63095732  0.36054746  1  0.291035  0  0.003557  -0.100833  0  3.872023  0
C  C337  1  0.97902863  0.11695368  0.85989753  1  0.312949  0  0.002265  -0.103392  0  3.873812  0
C  C338  1  0.99304754  0.72913005  0.36025437  1  0.27396  0  0.003203  -0.101481  0  3.873495  0
C  C339  1  0.88098420  0.74324152  0.86052199  1  0.235874  0  0.003657  -0.100508  0  3.871326  0
C  C340  1  0.22554318  0.47033883  0.31203217  1  -0.002155  0  -0.103186  -0.087997  0  4.045796  0
C  C341  1  0.09181693  0.97545029  0.81177588  1  -0.045746  0  -0.103165  -0.088005  0  4.044901  0
C  C342  1  0.08659308  0.84175413  0.31187873  1  -0.034644  0  -0.10319  -0.087661  0  4.046191  0
C  C343  1  0.72016590  0.83655452  0.81172039  1  -0.02862  0  -0.102945  -0.087727  0  4.045265  0
C  C344  1  0.22726886  0.39804103  0.27874094  1  -0.070516  0  -0.10373  -0.095352  0  4.055462  0
C  C345  1  0.13078382  0.97713277  0.77840234  1  -0.048892  0  -0.103842  -0.095662  0  4.056244  0
C  C346  1  0.05148188  0.88065416  0.27848257  1  -0.035699  0  -0.103698  -0.095512  0  4.057207  0
C  C347  1  0.64779826  0.80165178  0.77845474  1  -0.082757  0  -0.103821  -0.09557  0  4.056934  0
C  C348  1  0.15869072  0.48487058  0.28695175  1  -0.044478  0  -0.087012  -0.115816  0  3.963922  0
C  C349  1  0.05221979  0.90864068  0.78679712  1  -0.030989  0  -0.086704  -0.114509  0  3.966285  0
C  C350  1  0.12832885  0.80209959  0.28679066  1  -0.028078  0  -0.087239  -0.115602  0  3.965932  0
C  C351  1  0.73481982  0.87830727  0.78668394  1  -0.023474  0  -0.087561  -0.115766  0  3.966582  0
C  C352  1  0.33420525  0.74090614  0.66247471  1  0.260978  0  -0.004886  -0.120984  0  3.95041  0
C  C353  1  0.17115507  0.08396894  0.16204716  1  0.253253  0  -0.005603  -0.123078  0  3.951626  0
C  C354  1  0.32816113  0.92138595  0.66224984  1  0.252776  0  -0.005502  -0.121664  0  3.950397  0
C  C355  1  0.99074059  0.07820608  0.16241712  1  0.252834  0  -0.005011  -0.120406  0  3.951145  0
C  C356  1  0.52696908  0.36419871  0.04936979  1  0.281348  0  -0.008127  -0.128569  0  3.946986  0
C  C357  1  0.93527799  0.27691804  0.54937627  1  0.30939  0  -0.007722  -0.127728  0  3.947626  0
C  C358  1  0.52232307  0.68511899  0.04926052  1  0.310676  0  -0.007628  -0.127015  0  3.946923  0
C  C359  1  0.61446507  0.27255112  0.54953228  1  0.310014  0  -0.007626  -0.128323  0  3.947724  0
C  C360  1  0.46928748  0.37790880  0.05724640  1  0.383777  0  0.006242  -0.019787  0  4.002032  0
C  C361  1  0.92957837  0.21934176  0.55742259  1  0.362334  0  0.006053  -0.020129  0  4.003468  0
C  C362  1  0.58794749  0.67950191  0.05723163  1  0.373398  0  0.005764  -0.020578  0  4.003614  0
C  C363  1  0.62817270  0.33816063  0.55753746  1  0.367165  0  0.006567  -0.018354  0  4.003629  0
C  C364  1  0.26673375  0.74302403  0.65051505  1  0.436138  0  0.001778  -0.024845  0  4.008813  0
C  C365  1  0.15716606  0.01656678  0.15022911  1  0.434097  0  0.002339  -0.023126  0  4.010064  0
C  C366  1  0.38376589  0.90736681  0.65044916  1  0.405814  0  0.001674  -0.024821  0  4.00962  0
C  C367  1  0.99291152  0.13376617  0.15056562  1  0.391472  0  0.001685  -0.02569  0  4.010397  0
C  C368  1  0.58709978  0.56106955  0.73124573  1  0.418647  0  0.00176  -0.027525  0  4.000465  0
C  C369  1  0.41959022  0.33684408  0.23029334  1  0.431022  0  0.001676  -0.026991  0  4.001612  0
C  C370  1  0.14378291  0.16974897  0.73048312  1  0.425039  0  0.001433  -0.028286  0  4.003076  0
C  C371  1  0.81071046  0.89362258  0.23085701  1  0.426504  0  0.001596  -0.027698  0  4.002251  0
C  C372  1  0.52848795  0.58540047  0.70317787  1  0.237596  0  -0.013042  -0.132662  0  3.958103  0
C  C373  1  0.36721728  0.27826341  0.20233620  1  0.272804  0  -0.013017  -0.132539  0  3.957835  0
C  C374  1  0.17430952  0.11735336  0.70238503  1  0.266528  0  -0.012861  -0.132194  0  3.957839  0
C  C375  1  0.83500696  0.92425944  0.20283099  1  0.243605  0  -0.013009  -0.132951  0  3.959033  0
C  C376  1  0.11493596  0.37582174  0.95393979  1  0.010683  0  -0.016133  -0.058112  0  3.920739  0
C  C377  1  0.82824228  0.86469666  0.45387933  1  0.022487  0  -0.01582  -0.058684  0  3.921599  0
C  C378  1  0.83920772  0.57810668  0.95395727  1  -0.031016  0  -0.016328  -0.059193  0  3.922989  0
C  C379  1  0.62541537  0.58910188  0.45383065  1  -0.067468  0  -0.015621  -0.057794  0  3.919843  0
C  C380  1  0.07893908  0.32480850  0.86369237  1  1.542541  0  0.176916  0.547435  0  4.297173  0
C  C381  1  0.78869227  0.82864090  0.36359875  1  1.549152  0  0.176519  0.546604  0  4.29551  0
C  C382  1  0.78505670  0.53875597  0.86369639  1  1.560295  0  0.177097  0.547759  0  4.295785  0
C  C383  1  0.57455156  0.53485269  0.36356104  1  1.586255  0  0.176663  0.545893  0  4.296284  0
C  C384  1  0.82200416  0.26989048  0.08976306  1  0.961636  0  0.152581  0.11769  0  3.858741  0
C  C385  1  0.07001069  0.57187152  0.58958193  1  0.979285  0  0.152268  0.117025  0  3.860207  0
C  C386  1  0.26756449  0.81976630  0.08946756  1  0.963186  0  0.152177  0.116753  0  3.858366  0
C  C387  1  0.51963897  0.01777011  0.58959552  1  0.994916  0  0.151988  0.11658  0  3.858882  0
C  C388  1  0.08917051  0.35280602  0.98808188  1  -0.029293  0  -0.100731  -0.119903  0  4.015045  0
C  C389  1  0.88538210  0.83889503  0.48792446  1  -0.121007  0  -0.10036  -0.118429  0  4.014425  0
C  C390  1  0.89915204  0.63528724  0.98819825  1  -0.074156  0  -0.10069  -0.11953  0  4.015353  0
C  C391  1  0.60234084  0.64896992  0.48787708  1  -0.021325  0  -0.100348  -0.118824  0  4.014082  0
C  C392  1  0.74829491  0.15862264  0.01289995  1  0.401162  0  0.001957  -0.024425  0  4.004136  0
C  C393  1  0.10506064  0.49848013  0.51329182  1  0.487721  0  0.002122  -0.023593  0  4.004459  0
C  C394  1  0.26465146  0.85439955  0.01285396  1  0.395936  0  0.001525  -0.025113  0  4.0046  0
C  C395  1  0.40837263  0.01475338  0.51286232  1  0.424716  0  0.00154  -0.025469  0  4.005224  0
C  C396  1  0.71543395  0.20338904  0.04674011  1  0.257413  0  -0.012682  -0.132784  0  3.958295  0
C  C397  1  0.09404705  0.46562391  0.54709931  1  0.211122  0  -0.013035  -0.13385  0  3.959621  0
C  C398  1  0.33130297  0.84337944  0.04671585  1  0.268478  0  -0.012628  -0.132048  0  3.958695  0
C  C399  1  0.45326565  0.08139525  0.54669484  1  0.255518  0  -0.012875  -0.132448  0  3.958511  0
N  N400  1  0.49536336  0.42140577  0.13845871  1  -1.211064  0  -0.344615  -0.256724  0  3.512714  0
N  N401  1  0.96729884  0.24556936  0.63867367  1  -1.202363  0  -0.345032  -0.25646  0  3.514306  0
N  N402  1  0.64303417  0.71723707  0.13846178  1  -1.171816  0  -0.344849  -0.256648  0  3.5145  0
N  N403  1  0.67163294  0.39321459  0.63876701  1  -1.177161  0  -0.345302  -0.257718  0  3.516056  0
N  N404  1  0.58918092  0.40129334  0.12788624  1  -1.278187  0  -0.228163  0.003967  0  3.798143  0
N  N405  1  0.97668256  0.33920142  0.62782492  1  -1.266213  0  -0.228087  0.00326  0  3.799155  0
N  N406  1  0.53855225  0.72647458  0.12774048  1  -1.272081  0  -0.228551  0.003325  0  3.7981  0
N  N407  1  0.65145898  0.28876877  0.62800461  1  -1.263551  0  -0.228651  0.002975  0  3.797717  0
N  N408  1  0.95747811  0.60442921  0.42814206  1  -1.187057  0  -0.345322  -0.283004  0  3.489041  0
N  N409  1  0.07345799  0.70723402  0.92783988  1  -1.203468  0  -0.345189  -0.282397  0  3.487185  0
N  N410  1  0.47064123  0.82369515  0.42800378  1  -1.18266  0  -0.34552  -0.282541  0  3.488354  0
N  N411  1  0.85437022  0.22046080  0.92795239  1  -1.193224  0  -0.344942  -0.282203  0  3.488084  0
N  N412  1  0.84886442  0.53119990  0.31571587  1  -1.279393  0  -0.225781  -0.007386  0  3.79478  0
N  N413  1  0.03428312  0.59874175  0.81531936  1  -1.260099  0  -0.225721  -0.00681  0  3.794482  0
N  N414  1  0.46662196  0.78431548  0.31543813  1  -1.243837  0  -0.225698  -0.007706  0  3.795093  0
N  N415  1  0.78111901  0.21674554  0.81560137  1  -1.25602  0  -0.226045  -0.007459  0  3.795066  0
N  N416  1  0.39964307  0.53889810  0.29101905  1  -1.205226  0  -0.34818  -0.267558  0  3.513986  0
N  N417  1  0.00174635  0.14967713  0.79074830  1  -1.21585  0  -0.348346  -0.268041  0  3.514791  0
N  N418  1  0.89109900  0.75162644  0.29089476  1  -1.217639  0  -0.348121  -0.267691  0  3.514993  0
N  N419  1  0.78905136  0.64134943  0.79120393  1  -1.193226  0  -0.34846  -0.267733  0  3.515644  0
N  N420  1  0.40107745  0.59897117  0.40328374  1  -1.264371  0  -0.226033  -0.004128  0  3.787473  0
N  N421  1  0.05377707  0.15068058  0.90273497  1  -1.273037  0  -0.226651  -0.005385  0  3.793694  0
N  N422  1  0.00206491  0.80383634  0.40296805  1  -1.286919  0  -0.226465  -0.005734  0  3.791699  0
N  N423  1  0.84907554  0.75224871  0.90334616  1  -1.269976  0  -0.226115  -0.003842  0  3.788339  0
N  N424  1  0.32067873  0.68978684  0.58682922  1  -1.252111  0  -0.226562  0.00598  0  3.796103  0
N  N425  1  0.14671577  0.07031862  0.08636703  1  -1.245425  0  -0.226604  0.004977  0  3.796011  0
N  N426  1  0.26612340  0.89688993  0.58655496  1  -1.25115  0  -0.226553  0.005261  0  3.796123  0
N  N427  1  0.93948923  0.01617380  0.08676972  1  -1.25083  0  -0.226544  0.006  0  3.796083  0
N  N428  1  0.52692303  0.59326526  0.64493336  1  -1.248294  0  -0.225188  0.002032  0  3.776353  0
N  N429  1  0.30102045  0.27675863  0.14429026  1  -1.250369  0  -0.224535  0.004093  0  3.773531  0
N  N430  1  0.11767635  0.05121244  0.64437564  1  -1.274506  0  -0.225083  0.003214  0  3.77422  0
N  N431  1  0.84343531  0.86778116  0.14500932  1  -1.251666  0  -0.225159  0.002635  0  3.777363  0
N  N432  1  0.62122529  0.55396598  0.69149030  1  -1.199389  0  -0.341042  -0.264897  0  3.501931  0
N  N433  1  0.38681792  0.37103873  0.19067989  1  -1.208025  0  -0.341863  -0.266803  0  3.502391  0
N  N434  1  0.06994798  0.13706126  0.69096132  1  -1.179895  0  -0.341415  -0.265194  0  3.501474  0
N  N435  1  0.80421720  0.81988717  0.19151342  1  -1.201439  0  -0.341109  -0.265056  0  3.501154  0
N  N436  1  0.21303532  0.69410747  0.56952934  1  -1.199843  0  -0.348398  -0.26866  0  3.516904  0
N  N437  1  0.12523926  0.96279560  0.06930854  1  -1.222425  0  -0.348655  -0.269453  0  3.516581  0
N  N438  1  0.35661732  0.87540367  0.56951676  1  -1.19939  0  -0.34802  -0.268379  0  3.516635  0
N  N439  1  0.94385478  0.10659077  0.06963880  1  -1.187107  0  -0.348094  -0.26796  0  3.516398  0
N  N440  1  0.76261527  0.27446350  0.09565251  1  -1.269098  0  -0.227176  0.004623  0  3.784585  0
N  N441  1  0.07147692  0.51259453  0.59562575  1  -1.247517  0  -0.227231  0.003629  0  3.789522  0
N  N442  1  0.33287436  0.82104805  0.09543318  1  -1.250109  0  -0.227261  0.003868  0  3.78621  0
N  N443  1  0.52432510  0.08303264  0.59550174  1  -1.270817  0  -0.227288  0.004126  0  3.786355  0
N  N444  1  0.81425111  0.20090008  0.04022025  1  -1.207758  0  -0.346183  -0.266307  0  3.507952  0
N  N445  1  0.08972463  0.56422529  0.54025295  1  -1.198587  0  -0.3461  -0.265967  0  3.508224  0
N  N446  1  0.22589765  0.83936551  0.04002715  1  -1.190291  0  -0.346223  -0.265949  0  3.507237  0
N  N447  1  0.45058617  0.97607454  0.54011895  1  -1.216517  0  -0.345818  -0.265182  0  3.50772  0
O  O448  1  0.06832969  0.61483298  0.38374400  1  -1.173548  0  -0.355883  -0.592123  0  2.234733  0
O  O449  1  0.01913680  0.81837338  0.88373746  1  -1.170008  0  -0.356163  -0.592207  0  2.235222  0
O  O450  1  0.31528797  0.76896955  0.38366482  1  -1.177759  0  -0.356314  -0.592616  0  2.233918  0
O  O451  1  0.86502471  0.06537356  0.88389818  1  -1.169953  0  -0.355729  -0.592181  0  2.233782  0
O  O452  1  0.08150119  0.51113196  0.37984941  1  -1.19229  0  -0.339777  -0.574411  0  2.136728  0
O  O453  1  0.11892387  0.83145885  0.87970896  1  -1.196214  0  -0.33966  -0.573851  0  2.137926  0
O  O454  1  0.29848398  0.86868569  0.37946295  1  -1.198757  0  -0.339758  -0.574274  0  2.136435  0
O  O455  1  0.76113627  0.04855179  0.87977277  1  -1.188185  0  -0.339657  -0.57418  0  2.136882  0
O  O456  1  0.01806903  0.24418297  0.06578859  1  -1.17084  0  -0.347484  -0.56999  0  2.150949  0
O  O457  1  0.07176745  0.76797492  0.56569909  1  -1.164494  0  -0.347596  -0.570246  0  2.151183  0
O  O458  1  0.04733831  0.82137036  0.06538305  1  -1.172477  0  -0.347093  -0.569419  0  2.149424  0
O  O459  1  0.49419087  0.79800393  0.56565967  1  -1.174646  0  -0.347197  -0.569697  0  2.150943  0
O  O460  1  0.98027402  0.28302363  0.15062640  1  -1.16733  0  -0.340815  -0.570971  0  2.159044  0
O  O461  1  0.11771543  0.73020890  0.65055068  1  -1.172993  0  -0.340648  -0.570881  0  2.160168  0
O  O462  1  0.17001392  0.86714742  0.14996222  1  -1.167807  0  -0.340132  -0.570271  0  2.161739  0
O  O463  1  0.53300670  0.92062108  0.65051765  1  -1.17017  0  -0.340223  -0.570378  0  2.159032  0
O  O464  1  0.32946453  0.42426195  0.06900618  1  -1.1691  0  -0.342368  -0.567751  0  2.152236  0
O  O465  1  0.89510681  0.07914943  0.56876774  1  -1.171377  0  -0.342592  -0.568256  0  2.151286  0
O  O466  1  0.73965723  0.64502118  0.06849180  1  -1.172273  0  -0.342209  -0.567557  0  2.15075  0
O  O467  1  0.67368819  0.48997721  0.56907798  1  -1.167304  0  -0.342307  -0.568068  0  2.151692  0
O  O468  1  0.38934424  0.54465063  0.14539697  1  -1.175343  0  -0.353574  -0.579456  0  2.120253  0
O  O469  1  0.85109891  0.13932868  0.64506961  1  -1.169172  0  -0.353914  -0.579614  0  2.121699  0
O  O470  1  0.75519876  0.60109370  0.14472238  1  -1.160239  0  -0.354579  -0.579928  0  2.122692  0
O  O471  1  0.79396410  0.50586688  0.64516186  1  -1.175751  0  -0.353938  -0.579617  0  2.121335  0
O  O472  1  0.11816541  0.30166310  0.83634567  1  -1.192389  0  -0.346749  -0.58311  0  2.126291  0
O  O473  1  0.78380141  0.86783380  0.33608692  1  -1.190858  0  -0.346279  -0.58225  0  2.125434  0
O  O474  1  0.71833143  0.53388456  0.83613637  1  -1.187315  0  -0.34664  -0.582784  0  2.125658  0
O  O475  1  0.55155510  0.46824438  0.33615294  1  -1.191213  0  -0.346374  -0.581983  0  2.126382  0
O  O476  1  0.00834631  0.30363077  0.82030976  1  -1.14949  0  -0.36282  -0.589093  0  2.17397  0
O  O477  1  0.76681027  0.75806865  0.32032709  1  -1.158789  0  -0.363192  -0.589317  0  2.17453  0
O  O478  1  0.81239623  0.51704937  0.82045504  1  -1.167747  0  -0.363187  -0.589541  0  2.174918  0
O  O479  1  0.55337608  0.56205029  0.32018445  1  -1.162835  0  -0.362954  -0.588831  0  2.173975  0
