# generated using pymatgen
data_LaH40C40N6ClO10
_symmetry_space_group_name_H-M   'P 1'
_cell_length_a   15.75294167
_cell_length_b   17.97874421
_cell_length_c   17.93445097
_cell_angle_alpha   89.96528689
_cell_angle_beta   89.91989261
_cell_angle_gamma   89.95546914
_symmetry_Int_Tables_number   1
_chemical_formula_structural   LaH40C40N6ClO10
_chemical_formula_sum   'La4 H160 C160 N24 Cl4 O40'
_cell_volume   5079.35385831
_cell_formula_units_Z   4
loop_
 _symmetry_equiv_pos_site_id
 _symmetry_equiv_pos_as_xyz
  1  'x, y, z'
loop_
 _atom_site_type_symbol
 _atom_site_label
 _atom_site_symmetry_multiplicity
 _atom_site_fract_x
 _atom_site_fract_y
 _atom_site_fract_z
 _atom_site_occupancy
 _atom_site_pbe_bader_charge
 _atom_site_pbe_bader_spin_density
 _atom_site_pbe_cm5_charge
 _atom_site_pbe_ddec_charge
 _atom_site_pbe_ddec_spin_density
 _atom_site_pbe_ddec_sum_bond_order
 _atom_site_pbe_magmom
La  La0  1  0.25576593  0.71600847  0.28455462  1  2.224263  -0.001843  1.298988  1.741958  0.00215  2.484098  -0.003
La  La1  1  0.74305648  0.28505041  0.71560099  1  2.225072  0.001387  1.302533  1.741156  0.010926  2.490263  -0.001
La  La2  1  0.50175026  0.21457778  0.21461108  1  2.226691  -0.000459  1.307424  1.744214  0.005926  2.496987  -0.002
La  La3  1  0.00485184  0.78483318  0.78445913  1  2.222867  0.002184  1.299058  1.738708  0.012814  2.479147  0.0
H  H4  1  0.08179983  0.87572915  0.00219948  1  0.148147  0.041778  0.106997  0.096828  0.035239  1.029023  0.039
H  H5  1  0.29018848  0.72409965  0.89688224  1  0.120794  0.001007  0.099502  0.100294  0.000413  1.069042  0.001
H  H6  1  0.78801247  0.90802701  0.53475346  1  0.056487  0.001895  0.098184  0.088346  0.001243  1.03284  0.001
H  H7  1  0.50576663  0.04878860  0.79621752  1  0.030284  0.000301  0.083971  0.077293  0.000214  0.995539  0.0
H  H8  1  0.44139592  0.94108432  0.98316041  1  0.004315  -7.3e-05  0.088254  0.079694  -0.000127  1.019267  0.0
H  H9  1  0.41258517  0.63702477  0.90229838  1  0.071311  0.000617  0.10252  0.103583  0.000259  0.994106  -0.001
H  H10  1  0.35707366  0.13505394  0.35240167  1  0.103135  0.000902  0.105958  0.116633  0.000598  1.029448  0.0
H  H11  1  0.19033908  0.94581886  0.07142614  1  0.015491  0.000951  0.092885  0.088257  0.000515  1.013438  0.001
H  H12  1  0.56116874  0.29789944  0.54712044  1  0.161266  0.041995  0.132766  0.118014  0.033711  0.999256  0.031
H  H13  1  0.84270104  0.15809640  0.90552342  1  0.077141  0.001616  0.096672  0.099219  0.001573  1.023522  0.0
H  H14  1  0.80432464  0.51675567  0.34909856  1  0.045636  0.001394  0.091357  0.086085  0.001081  0.981234  0.001
H  H15  1  0.26991965  0.34941685  0.31336017  1  0.07828  0.015084  0.107158  0.064191  0.011884  1.000352  0.01
H  H16  1  0.64428570  0.35222959  0.13503733  1  0.110799  0.000706  0.105697  0.118439  0.000304  1.03627  0.0
H  H17  1  0.05928564  0.01747534  0.05506227  1  0.013478  -5e-06  0.088372  0.080775  -9.2e-05  1.014616  0.0
H  H18  1  0.69005582  0.05331577  0.93383226  1  0.04313  0.000772  0.093387  0.089921  0.000268  1.008562  0.001
H  H19  1  0.13158057  0.38926281  0.09371734  1  0.094936  0.000834  0.108223  0.110357  -0.000162  0.98687  0.001
H  H20  1  0.96613351  0.40531912  0.96498344  1  0.060091  0.00145  0.096856  0.086703  0.000922  1.033139  0.001
H  H21  1  0.64192680  0.63114006  0.61530453  1  0.051231  0.000346  0.092932  0.093476  0.000164  0.97234  0.0
H  H22  1  0.31234547  0.44250871  0.51720451  1  0.02725  -1.7e-05  0.088447  0.081009  -0.000108  1.013714  0.0
H  H23  1  0.30298325  0.48570881  0.65471072  1  0.004496  0.00153  0.091747  0.086669  0.00117  0.979045  0.001
H  H24  1  0.69010463  0.20185632  0.04862844  1  0.184695  0.041369  0.133855  0.121242  0.033595  1.005438  0.032
H  H25  1  0.16640022  0.40398174  0.86252872  1  0.096572  0.000749  0.105488  0.105987  0.000378  0.989036  -0.001
H  H26  1  0.54458595  0.60084764  0.22230816  1  0.14356  0.001099  0.10009  0.101888  0.000485  1.064133  0.001
H  H27  1  0.59328734  0.41062339  0.34274176  1  0.056999  0.005157  0.096716  0.098265  0.004245  1.025047  0.002
H  H28  1  0.00169308  0.95064716  0.20444463  1  0.027357  0.000128  0.084732  0.079386  5.1e-05  0.995398  0.0
H  H29  1  0.88310465  0.59387759  0.11398516  1  0.035061  0.000562  0.10938  0.112155  -0.000365  0.984883  0.0
H  H30  1  0.03995364  0.13119762  0.70189929  1  0.079969  0.020303  0.113681  0.078667  0.015634  1.003163  0.013
H  H31  1  0.45730331  0.29475834  0.87020496  1  0.102748  0.019785  0.113107  0.077526  0.015464  1.011413  0.013
H  H32  1  0.58505426  0.90323303  0.63774705  1  0.053083  0.000996  0.105457  0.105675  0.000369  0.989443  -0.001
H  H33  1  0.69786326  0.65530830  0.48629033  1  0.011944  0.001283  0.090834  0.085192  0.000984  0.979698  0.001
H  H34  1  0.81048525  0.55839997  0.48342137  1  0.035114  7.2e-05  0.088535  0.079892  -4e-05  1.015889  0.0
H  H35  1  0.33255340  0.13775952  0.59255715  1  0.060558  0.000605  0.101297  0.102063  0.000233  0.996234  0.0
H  H36  1  0.77480526  0.65107115  0.68717555  1  0.064816  0.012265  0.106162  0.061886  0.009521  1.004097  0.008
H  H37  1  0.19747846  0.10248755  0.27988849  1  0.081253  -0.001687  0.101283  0.105229  -0.001365  1.0446  -0.001
H  H38  1  0.11244194  0.83958729  0.61056616  1  0.144441  -0.00104  0.111137  0.126614  -0.001472  1.048306  -0.001
H  H39  1  0.74739378  0.45107822  0.29556780  1  0.021336  0.000241  0.084898  0.079276  0.000136  0.994554  0.0
H  H40  1  0.58027076  0.12494702  0.99975678  1  0.165768  0.042282  0.10887  0.098807  0.03576  1.02252  0.04
H  H41  1  0.28369593  0.09417859  0.46731470  1  0.060332  0.001531  0.097301  0.087304  0.001  1.035046  0.001
H  H42  1  0.38253917  0.40566527  0.88453268  1  0.07094  0.001055  0.10811  0.110319  8.6e-05  0.986414  0.001
H  H43  1  0.44733959  0.98317633  0.84878687  1  0.008767  0.001225  0.090885  0.08502  0.000933  0.980982  0.001
H  H44  1  0.06050488  0.55348643  0.56695575  1  0.013226  0.000612  0.093062  0.08909  0.00014  1.00952  0.0
H  H45  1  0.21444675  0.52822555  0.90813668  1  0.073444  0.001943  0.099598  0.090952  0.001249  1.031671  0.001
H  H46  1  0.64622004  0.53842196  0.35677733  1  0.038829  0.000278  0.089956  0.086908  0.000112  0.988668  0.0
H  H47  1  0.42514410  0.01012138  0.54003671  1  0.060183  0.001005  0.098871  0.091371  0.000764  1.040159  -0.001
H  H48  1  0.60509294  0.96142054  0.85977020  1  0.035288  0.000223  0.088835  0.08447  4.8e-05  0.991616  0.0
H  H49  1  0.86260064  0.86474099  0.64797825  1  0.109498  0.000849  0.107014  0.118153  0.000373  1.029024  0.0
H  H50  1  0.71026689  0.62971433  0.79754404  1  0.095097  0.020062  0.112824  0.076754  0.015617  1.005382  0.013
H  H51  1  0.10832244  0.13177916  0.88447049  1  0.033072  0.000413  0.092472  0.092544  0.000215  0.972567  0.0
H  H52  1  0.60537281  0.86702183  0.11849283  1  0.033568  0.000189  0.093772  0.094375  0.000122  0.971939  0.0
H  H53  1  0.17269501  0.90091003  0.49839217  1  0.096313  0.001779  0.102677  0.103056  0.000898  1.019323  0.001
H  H54  1  0.63522146  0.61585491  0.90843917  1  0.06168  0.000934  0.108171  0.110664  -5.9e-05  0.985994  0.001
H  H55  1  0.60692512  0.14286800  0.63370022  1  0.10506  0.00051  0.108793  0.124721  -8.4e-05  1.036076  0.0
H  H56  1  0.09066625  0.59136440  0.65361307  1  0.053842  0.002308  0.095439  0.096339  0.002214  1.030939  0.0
H  H57  1  0.03128089  0.95749299  0.40398503  1  0.068379  -0.001143  0.096597  0.086199  -0.000974  1.032717  -0.001
H  H58  1  0.45708538  0.22210924  0.60123976  1  0.139414  0.001063  0.099746  0.10132  0.000504  1.066491  0.001
H  H59  1  0.41783796  0.99834994  0.12345319  1  0.124493  -0.042023  0.114318  0.096882  -0.032558  0.992966  -0.033
H  H60  1  0.97517242  0.15238372  0.81252423  1  0.091462  0.011701  0.106466  0.062094  0.009203  0.999461  0.008
H  H61  1  0.83267107  0.86478050  0.40832543  1  0.085905  0.000694  0.103637  0.105445  0.000368  0.99388  0.0
H  H62  1  0.79382912  0.20582413  0.37023722  1  0.105334  0.019379  0.113976  0.079084  0.015103  1.00653  0.013
H  H63  1  0.54065559  0.87004975  0.29781294  1  0.101413  0.020656  0.113702  0.078649  0.016246  1.010438  0.014
H  H64  1  0.07648439  0.60533135  0.00147194  1  0.094906  0.002046  0.101372  0.100725  0.001261  1.019615  0.001
H  H65  1  0.55223802  0.84285136  0.98887085  1  0.042241  0.001344  0.091128  0.085764  0.001057  0.979852  0.001
H  H66  1  0.18626445  0.45561449  0.42604686  1  0.06543  -0.000141  0.090589  0.091124  -0.000341  1.003141  0.0
H  H67  1  0.43367197  0.07426033  0.95441899  1  0.054911  -5.1e-05  0.089514  0.092743  -0.000231  1.006503  0.0
H  H68  1  0.30797188  0.05199082  0.20352859  1  0.206123  -0.046283  0.136738  0.128432  -0.037623  1.010256  -0.036
H  H69  1  0.57504772  0.53871660  0.01114763  1  0.085897  0.000624  0.098877  0.092275  0.000675  1.039534  -0.001
H  H70  1  0.88870208  0.61290707  0.83623578  1  0.152673  -0.001026  0.109965  0.122799  -0.001358  1.056746  -0.001
H  H71  1  0.11538279  0.11655889  0.59073825  1  0.050149  0.000732  0.109147  0.112277  -0.000265  0.984412  0.001
H  H72  1  0.80910192  0.95213184  0.80323665  1  0.183628  0.037145  0.130734  0.116064  0.030249  1.004935  0.028
H  H73  1  0.95414331  0.77657434  0.39620584  1  0.109672  0.001446  0.102578  0.106343  0.000766  1.045153  0.001
H  H74  1  0.13711522  0.66608893  0.11390032  1  0.10244  -0.000532  0.10984  0.121732  -0.000755  1.057187  -0.001
H  H75  1  0.92147370  0.00179825  0.60209969  1  0.09573  0.001867  0.102051  0.101978  0.000993  1.019947  0.001
H  H76  1  0.93463786  0.92554923  0.04466965  1  0.065823  -0.000128  0.090747  0.091316  -0.000336  1.002396  0.0
H  H77  1  0.66912232  0.59169955  0.13751532  1  0.060141  0.000636  0.101776  0.102411  0.000251  0.996232  0.0
H  H78  1  0.33893636  0.84495984  0.09252475  1  0.047949  -0.001776  0.09686  0.098543  -0.001593  1.027754  -0.001
H  H79  1  0.38563048  0.38641084  0.16214017  1  0.109676  -0.000544  0.110262  0.124506  -0.000822  1.052863  -0.001
H  H80  1  0.17401763  0.03854592  0.48800850  1  0.084203  0.000344  0.099623  0.09229  0.00022  1.038872  -0.002
H  H81  1  0.02014946  0.81483612  0.15179101  1  0.076191  0.015141  0.107149  0.064769  0.011974  0.999588  0.01
H  H82  1  0.90771159  0.65681960  0.59427186  1  0.057119  0.001547  0.095784  0.097607  0.001498  1.027442  0.0
H  H83  1  0.72916056  0.31537354  0.34816214  1  0.097527  0.015677  0.107978  0.064347  0.012491  1.000058  0.01
H  H84  1  0.71793519  0.46649702  0.09402662  1  0.050795  0.001578  0.097139  0.08701  0.000986  1.032811  0.001
H  H85  1  0.68375127  0.54872264  0.57582956  1  0.076316  -3.4e-05  0.086715  0.094022  -0.000323  1.017249  0.0
H  H86  1  0.32496966  0.50891684  0.96237293  1  0.026677  0.001362  0.097743  0.09103  0.000799  1.042289  -0.001
H  H87  1  0.66713586  0.37565202  0.49795295  1  0.15524  0.04371  0.107021  0.099193  0.037174  1.034367  0.042
H  H88  1  0.20807936  0.37385013  0.20333494  1  0.093756  0.017913  0.112329  0.075127  0.013958  1.002337  0.012
H  H89  1  0.61510066  0.16128103  0.38759112  1  0.124522  -0.000583  0.110563  0.125674  -0.000878  1.050074  -0.001
H  H90  1  0.04494227  0.39597678  0.77416928  1  0.138114  0.001199  0.102545  0.106084  0.00036  1.049612  0.001
H  H91  1  0.85961319  0.11325217  0.66322756  1  0.16552  -0.001045  0.110055  0.123094  -0.001293  1.057266  -0.001
H  H92  1  0.46386633  0.59166441  0.02612087  1  0.06688  0.001714  0.097844  0.088242  0.001178  1.03588  0.001
H  H93  1  0.40523675  0.34044093  0.40666484  1  0.073529  0.004399  0.096878  0.098987  0.00369  1.02446  0.002
H  H94  1  0.82622581  0.49082952  0.03584271  1  0.071315  0.000735  0.099788  0.092735  0.000609  1.038317  -0.001
H  H95  1  0.86008972  0.38830042  0.37300258  1  0.041766  0.000209  0.093584  0.093815  3.1e-05  0.972016  0.0
H  H96  1  0.88899447  0.88814418  0.12680193  1  0.034986  0.000226  0.093283  0.093194  6e-05  0.971283  0.0
H  H97  1  0.75571326  0.70693819  0.55301339  1  0.033608  0.000215  0.083466  0.076532  0.00012  0.996702  0.0
H  H98  1  0.25160531  0.29521063  0.44900346  1  0.024851  0.000206  0.085193  0.079707  0.000105  0.99359  0.0
H  H99  1  0.39560302  0.63417296  0.14285048  1  0.098076  0.000709  0.106184  0.12166  0.000198  1.039228  0.0
H  H100  1  0.33372052  0.49711373  0.37614784  1  0.155949  0.041926  0.107087  0.097506  0.035626  1.025905  0.039
H  H101  1  0.53688533  0.02721612  0.59134442  1  0.074096  0.002011  0.099725  0.091271  0.001262  1.033756  0.001
H  H102  1  0.55864424  0.98231364  0.94703735  1  0.017943  -5e-05  0.088671  0.081761  -9.1e-05  1.016224  0.0
H  H103  1  0.42302604  0.00020533  0.40209419  1  0.103129  0.001798  0.102321  0.102213  0.000932  1.02002  0.001
H  H104  1  0.17070228  0.62407247  0.50092420  1  0.103292  0.037811  0.11499  0.091111  0.03063  0.98155  0.029
H  H105  1  0.31830682  0.57636892  0.54927658  1  0.048967  -9.1e-05  0.08782  0.095274  -0.000391  1.014813  0.0
H  H106  1  0.63465554  0.33894618  0.88893955  1  0.129231  -0.000715  0.111585  0.127256  -0.001035  1.046805  -0.001
H  H107  1  0.35474280  0.35341229  0.53607313  1  0.031152  0.000345  0.089277  0.08583  0.000167  0.99198  0.0
H  H108  1  0.87035335  0.09539935  0.38546480  1  0.031039  0.000654  0.10936  0.112193  -0.000264  0.984378  0.001
H  H109  1  0.22447715  0.68581197  0.65206915  1  0.053026  0.012154  0.107163  0.06143  0.009421  1.002509  0.008
H  H110  1  0.65891385  0.08917709  0.84653142  1  0.055446  0.004359  0.095697  0.096373  0.003721  1.02983  0.002
H  H111  1  0.05243634  0.15530582  0.01356974  1  0.006493  0.001462  0.090738  0.08503  0.001128  0.979757  0.001
H  H112  1  0.49178572  0.79232400  0.05479580  1  0.022706  0.000195  0.084375  0.078381  0.000223  0.996876  0.0
H  H113  1  0.15544690  0.90959913  0.15747072  1  0.065648  0.00441  0.096327  0.097781  0.003866  1.027536  0.002
H  H114  1  0.61743751  0.88439990  0.40741909  1  0.067454  0.00116  0.107979  0.11043  0.00019  0.986444  0.001
H  H115  1  0.07244855  0.46763060  0.99163607  1  0.080291  0.000997  0.097409  0.090273  0.001046  1.0403  -0.001
H  H116  1  0.47138997  0.84909612  0.18904335  1  0.076042  0.006577  0.10851  0.064453  0.005004  1.00255  0.005
H  H117  1  0.94483349  0.01642110  0.15071205  1  0.025704  0.001318  0.091307  0.086328  0.001016  0.981125  0.001
H  H118  1  0.30810863  0.93055490  0.05277573  1  0.036469  0.000906  0.093131  0.089215  0.000809  1.009692  0.001
H  H119  1  0.94164062  0.45142826  0.69792465  1  0.179154  0.037683  0.130465  0.115714  0.030539  1.009346  0.029
H  H120  1  0.06619288  0.04919527  0.92353244  1  0.051227  -2.3e-05  0.087045  0.093362  -0.00032  1.014977  0.0
H  H121  1  0.91802041  0.00324229  0.87672430  1  0.110517  0.031033  0.111071  0.083128  0.02551  0.987865  0.023
H  H122  1  0.67729605  0.09961159  0.49891937  1  0.083296  0.002222  0.10072  0.100277  0.001463  1.022536  0.001
H  H123  1  0.91832234  0.36267016  0.09097089  1  0.059276  0.000521  0.101759  0.103769  0.000201  0.996565  0.0
H  H124  1  0.13964598  0.37458730  0.38791272  1  0.026785  0.000216  0.093369  0.093352  4.5e-05  0.972807  0.0
H  H125  1  0.67902079  0.96184902  0.50898840  1  0.05498  0.001164  0.096668  0.089058  0.001051  1.04361  -0.001
H  H126  1  0.14556768  0.46306847  0.64269743  1  0.017795  0.000248  0.08871  0.084395  7.3e-05  0.993622  0.0
H  H127  1  0.44237929  0.42496694  0.44402479  1  0.004682  0.000757  0.093051  0.088912  0.000225  1.013984  0.001
H  H128  1  0.56551621  0.94977583  0.07797518  1  0.059993  0.000134  0.087856  0.093222  -0.000166  1.015118  0.0
H  H129  1  0.83249191  0.50208138  0.62306407  1  0.095321  0.031977  0.1133  0.084412  0.025955  0.980939  0.023
H  H130  1  0.24341856  0.55111367  0.70654785  1  0.030437  0.000293  0.083263  0.075995  0.000207  0.998148  0.0
H  H131  1  0.81479645  0.42583706  0.45522618  1  0.062417  -0.000134  0.090987  0.091451  -0.000351  1.001343  0.0
H  H132  1  0.19316084  0.48344305  0.55575884  1  0.047811  5.4e-05  0.088795  0.080616  -5e-05  1.018475  0.0
H  H133  1  0.85584090  0.64631624  0.46462687  1  0.022081  0.000468  0.088524  0.084326  0.000274  0.99467  0.0
H  H134  1  0.69017075  0.51777601  0.44507602  1  0.013046  -4.7e-05  0.088537  0.081616  -0.000124  1.014771  0.0
H  H135  1  0.92790220  0.99289637  0.46414440  1  0.079286  0.000914  0.098727  0.091037  0.00086  1.03919  -0.001
H  H136  1  0.18898880  0.80024621  0.95281039  1  0.15346  0.041259  0.132318  0.116511  0.033046  0.997664  0.03
H  H137  1  0.14351684  0.64359906  0.86574078  1  0.100383  0.000528  0.108195  0.123672  -8.3e-05  1.036922  0.0
H  H138  1  0.43991159  0.54684457  0.29827415  1  0.161974  0.042419  0.133216  0.118431  0.034104  0.998565  0.031
H  H139  1  0.89437882  0.14688226  0.03514702  1  0.014927  0.000497  0.089512  0.086447  0.000316  0.992134  0.0
H  H140  1  0.82926894  0.50055846  0.89783441  1  0.087224  0.001621  0.103009  0.10317  0.000736  1.018122  0.001
H  H141  1  0.93950561  0.05883251  0.01615967  1  0.039975  6.6e-05  0.088051  0.079836  -3.8e-05  1.015767  0.0
H  H142  1  0.39494056  0.85366200  0.96446278  1  0.034296  3.6e-05  0.089183  0.085631  4.6e-05  0.991683  0.0
H  H143  1  0.32633094  0.49885930  0.10036803  1  0.073808  0.001884  0.101699  0.101451  0.001093  1.018932  0.001
H  H144  1  0.70628764  0.89560009  0.72633721  1  0.136503  0.001201  0.102368  0.106359  0.00033  1.05383  0.001
H  H145  1  0.36736380  0.90726769  0.61833175  1  0.087768  0.001043  0.108725  0.112106  -4e-05  0.98515  0.001
H  H146  1  0.35821571  0.61496463  0.63298476  1  0.027917  0.000197  0.093896  0.094852  2.4e-05  0.97115  0.0
H  H147  1  0.57426084  0.40105018  0.00083389  1  0.088402  0.001822  0.101976  0.102024  0.000983  1.019213  0.001
H  H148  1  0.55906491  0.44670261  0.42908012  1  0.048971  0.000955  0.093912  0.090936  0.000391  1.008201  0.001
H  H149  1  0.80786908  0.07326293  0.94430389  1  0.028812  0.000628  0.092018  0.086589  0.000203  1.016845  0.0
H  H150  1  0.06040686  0.69992200  0.44958792  1  0.17928  0.042503  0.133672  0.121822  0.03443  1.010314  0.033
H  H151  1  0.99464579  0.20752916  0.94718046  1  0.029637  0.000191  0.084089  0.077617  9.8e-05  0.997385  0.0
H  H152  1  0.79438112  0.27757249  0.10134086  1  0.133966  0.00111  0.100808  0.102808  0.000581  1.056621  0.001
H  H153  1  0.29175681  0.79591074  0.63273532  1  0.116196  0.021129  0.113655  0.078932  0.016543  1.014036  0.014
H  H154  1  0.11070116  0.84769284  0.36049403  1  0.095897  -0.000251  0.105201  0.113845  -0.000176  1.033827  0.0
H  H155  1  0.07358240  0.08590487  0.36517888  1  0.074466  -0.000133  0.100107  0.101819  -0.000156  1.002133  0.0
H  H156  1  0.95715612  0.70454374  0.12901829  1  0.100798  0.01774  0.112694  0.076197  0.0138  1.002062  0.012
H  H157  1  0.19622081  0.34873487  0.51597954  1  0.012004  0.001142  0.090412  0.084496  0.000859  0.982492  0.001
H  H158  1  0.10304356  0.03778167  0.14350755  1  0.007579  0.000339  0.089591  0.086008  0.000224  0.990711  0.0
H  H159  1  0.94220789  0.57211193  0.55523477  1  0.013921  0.000513  0.091532  0.085961  9.7e-05  1.016552  0.0
H  H160  1  0.36088882  0.88918511  0.34059748  1  0.094664  -0.000189  0.111719  0.1277  -0.001143  1.04594  -0.001
H  H161  1  0.52208595  0.18460347  0.84891890  1  0.093543  0.015767  0.107982  0.063794  0.012585  1.002711  0.01
H  H162  1  0.89150579  0.36409667  0.85103942  1  0.089094  0.000887  0.10524  0.11601  0.000414  1.029366  0.0
H  H163  1  0.39082672  0.11164692  0.87116180  1  0.040198  0.000165  0.09358  0.094463  -1e-06  0.971392  0.0
C  C164  1  0.04669604  0.07170381  0.71684315  1  0.691346  -0.022245  0.078238  0.067066  -0.020776  3.983592  -0.018
C  C165  1  0.48662987  0.90379670  0.16424213  1  0.325204  0.00709  0.014977  0.071213  0.009836  3.877259  0.005
C  C166  1  0.41911337  0.33837471  0.97803897  1  -0.04039  0.125635  -0.006629  -0.023286  0.126634  3.930512  0.077
C  C167  1  0.57554504  0.05870482  0.33461456  1  0.797349  0.042912  0.128486  0.351209  0.040682  4.017958  0.008
C  C168  1  0.63483027  0.07069570  0.90092319  1  -0.041144  0.011552  -0.158744  -0.18987  0.013356  3.901116  0.008
C  C169  1  0.62292696  0.40673858  0.15392603  1  -0.103841  0.046893  -0.104307  -0.226332  0.048541  3.947943  0.031
C  C170  1  0.50877171  0.16087835  0.90463436  1  0.327676  0.013405  0.015756  0.073721  0.016767  3.873633  0.008
C  C171  1  0.97711851  0.77054007  0.51466558  1  -0.010377  0.084863  -0.014846  -0.048725  0.087652  3.973646  0.059
C  C172  1  0.35145545  0.45333118  0.06692742  1  -0.059751  -0.02271  -0.086485  -0.056558  -0.023429  4.017355  -0.02
C  C173  1  0.00808505  0.83864479  0.09589094  1  0.352217  0.012442  0.014405  0.071628  0.015947  3.872819  0.007
C  C174  1  0.93383798  0.79619816  0.45102866  1  -0.056082  -0.019961  -0.081644  -0.098783  -0.02009  3.980494  -0.015
C  C175  1  0.50681500  0.84899043  0.03514956  1  -0.026806  0.001784  -0.166016  -0.141545  0.00209  3.962893  0.001
C  C176  1  0.89984948  0.04182138  0.48999476  1  -0.031791  0.16551  -0.081826  -0.063739  0.169223  3.968847  0.097
C  C177  1  0.13370050  0.92856909  0.10256389  1  -0.021441  0.013568  -0.158429  -0.188097  0.015442  3.899036  0.01
C  C178  1  0.45273843  0.48986951  0.27771032  1  0.612121  -0.00673  0.099135  0.074928  -0.006133  3.938925  -0.009
C  C179  1  0.85408429  0.54610507  0.93131570  1  0.047125  -0.022642  -0.084839  -0.056049  -0.022716  4.010479  -0.02
C  C180  1  0.65408072  0.36146033  0.43744097  1  0.332355  0.073939  0.035877  0.070641  0.081268  3.841486  0.053
C  C181  1  0.30419381  0.70525452  0.08821595  1  0.75437  0.017568  0.114437  0.334083  0.017874  4.094757  0.002
C  C182  1  0.45067799  0.28003253  0.92985572  1  0.655261  -0.01912  0.078005  0.0711  -0.018431  3.987133  -0.016
C  C183  1  0.92037732  0.66136947  0.02076742  1  -0.022647  0.137575  -0.003178  -0.017869  0.139125  3.92058  0.084
C  C184  1  0.70332321  0.57026163  0.78260020  1  0.652337  -0.020202  0.077844  0.068385  -0.019332  3.989222  -0.017
C  C185  1  0.79911347  0.22025462  0.43003294  1  0.664415  -0.021369  0.078499  0.070184  -0.020253  3.982575  -0.018
C  C186  1  0.40207014  0.93953636  0.13899336  1  0.358331  -0.021084  0.036001  0.07295  -0.026122  3.8434  -0.013
C  C187  1  0.20161671  0.43313991  0.21908888  1  0.643434  -0.019262  0.077341  0.072429  -0.018584  3.988458  -0.016
C  C188  1  0.84084260  0.86924701  0.52923051  1  0.021899  -0.006547  -0.081839  -0.041662  -0.006428  4.039212  -0.006
C  C189  1  0.52354003  0.48236588  0.22720308  1  0.011384  0.07597  -0.01728  -0.053348  0.078038  3.97095  0.052
C  C190  1  0.69523034  0.08687969  0.70713499  1  0.736991  0.031314  0.120224  0.332012  0.030536  4.084121  0.006
C  C191  1  0.08526151  0.96542120  0.36673057  1  -0.049341  0.003408  -0.084302  -0.042675  0.003749  4.049621  0.002
C  C192  1  0.49164648  0.03021491  0.85359408  1  -0.021207  0.001712  -0.166412  -0.14094  0.001839  3.963865  0.001
C  C193  1  0.27268771  0.72862220  0.01608659  1  -0.042594  0.078898  -0.016357  -0.052917  0.08057  3.965623  0.054
C  C194  1  0.39718793  0.95502809  0.43560522  1  0.007758  -0.025639  -0.085539  -0.057843  -0.025457  4.013237  -0.022
C  C195  1  0.17408312  0.56290567  0.16742496  1  0.788286  0.04807  0.130446  0.35602  0.045506  4.012299  0.01
C  C196  1  0.19901804  0.91038621  0.29250893  1  0.668449  -0.008164  0.10886  0.322217  -0.008876  4.116082  -0.001
C  C197  1  0.86446293  0.10392571  0.92630719  1  -0.04965  0.013734  -0.15882  -0.189751  0.015494  3.900627  0.011
C  C198  1  0.94914330  0.90657117  0.10169140  1  -0.058839  0.004757  -0.158976  -0.187465  0.004859  3.918997  0.003
C  C199  1  0.13474082  0.45440047  0.84334186  1  -0.050721  0.093678  -0.093247  -0.099155  0.095663  4.000095  0.054
C  C200  1  0.75987169  0.46974908  0.35312356  1  -0.047773  0.001938  -0.165771  -0.142027  0.002021  3.964428  0.001
C  C201  1  0.88683475  0.60818837  0.89672755  1  -0.163859  0.110506  -0.089998  -0.198235  0.113304  3.893883  0.065
C  C202  1  0.41078447  0.63041030  0.02331755  1  -0.099586  -0.008283  -0.08474  -0.044922  -0.008686  4.048277  -0.008
C  C203  1  0.98927821  0.96933419  0.14685118  1  -0.013057  0.001766  -0.16659  -0.144406  0.001788  3.964987  0.001
C  C204  1  0.82463451  0.61302591  0.50821759  1  -0.018198  0.001243  -0.166152  -0.140824  0.001015  3.948754  0.001
C  C205  1  0.61544050  0.42923322  0.39763749  1  -0.038125  0.012873  -0.157638  -0.18894  0.014858  3.899162  0.009
C  C206  1  0.74116279  0.33908045  0.40407402  1  0.321944  0.01426  0.016067  0.074663  0.017807  3.871379  0.008
C  C207  1  0.63593091  0.55520085  0.90458417  1  0.034143  -0.027962  -0.084873  -0.122695  -0.027766  4.006774  -0.024
C  C208  1  0.29455759  0.99429449  0.22206515  1  0.59564  0.002319  0.099291  0.066864  0.003294  3.948124  0.006
C  C209  1  0.82346716  0.16725658  0.55969462  1  0.793179  0.050577  0.131135  0.354795  0.047159  4.013072  0.01
C  C210  1  0.38489256  0.39526067  0.42681576  1  -0.040671  0.013599  -0.158504  -0.189254  0.015523  3.899918  0.01
C  C211  1  0.20014751  0.39885741  0.40628357  1  -0.041219  0.003891  -0.160161  -0.190086  0.003941  3.920791  0.003
C  C212  1  0.36501850  0.90376269  0.55757241  1  -0.105273  -0.031714  -0.084615  -0.125307  -0.032214  4.005623  -0.027
C  C213  1  0.55302047  0.40952184  0.20452393  1  0.730724  0.016498  0.113016  0.331389  0.016784  4.101226  0.002
C  C214  1  0.35075567  0.45923951  0.98859379  1  -0.019882  0.150525  -0.086371  -0.074156  0.154127  3.982178  0.088
C  C215  1  0.98975818  0.09718388  0.83666103  1  0.332428  0.009647  0.014373  0.0731  0.012536  3.870803  0.005
C  C216  1  0.13342668  0.44986139  0.09779940  1  -0.129768  -0.026977  -0.084796  -0.121745  -0.02739  4.009197  -0.023
C  C217  1  0.54735612  0.89406156  0.09785947  1  -0.033401  0.004435  -0.161328  -0.191236  0.004762  3.917725  0.003
C  C218  1  0.10889366  0.03779667  0.34499499  1  -0.01009  -0.000521  -0.108455  -0.127808  -0.000383  4.045769  -0.001
C  C219  1  0.11379882  0.05593889  0.59468974  1  0.001467  -0.031375  -0.083035  -0.123578  -0.031669  4.003799  -0.027
C  C220  1  0.58930470  0.02389238  0.63073122  1  -0.053709  -0.009117  -0.081519  -0.045912  -0.009246  4.038723  -0.009
C  C221  1  0.91204768  0.36789028  0.96995878  1  -0.112038  -0.006351  -0.084282  -0.043882  -0.006456  4.050844  -0.006
C  C222  1  0.80090133  0.29492046  0.90941064  1  0.703937  0.013434  0.112122  0.332828  0.01359  4.103472  0.001
C  C223  1  0.45001962  0.09308221  0.89773351  1  -0.044388  0.003904  -0.159905  -0.190624  0.003926  3.918195  0.003
C  C224  1  0.29780861  0.78194627  0.57287729  1  0.646757  -0.021632  0.07879  0.068583  -0.02065  3.982447  -0.018
C  C225  1  0.09978658  0.49349027  0.04088563  1  -0.041072  0.155782  -0.085125  -0.07071  0.159165  3.979927  0.091
C  C226  1  0.67450298  0.44126690  0.83530105  1  0.785585  0.046296  0.130412  0.352851  0.043561  4.013092  0.008
C  C227  1  0.70213875  0.22166418  0.99108909  1  0.611952  -0.004702  0.099353  0.074433  -0.00455  3.940158  -0.008
C  C228  1  0.02509077  0.51461807  0.76954869  1  -0.069964  0.105449  -0.009595  -0.03922  0.10731  3.95212  0.069
C  C229  1  0.44808063  0.20462567  0.40951622  1  0.720724  0.013999  0.113071  0.332857  0.014143  4.103283  0.001
C  C230  1  0.30006825  0.59545710  0.60538631  1  -0.005428  0.005073  -0.161407  -0.193191  0.005223  3.915707  0.004
C  C231  1  0.37821242  0.15425216  0.40695994  1  0.001179  0.046022  -0.103675  -0.223869  0.047794  3.948845  0.03
C  C232  1  0.92550351  0.11360428  0.99151157  1  -0.009904  0.001211  -0.166099  -0.141966  0.000987  3.949318  0.001
C  C233  1  0.42566331  0.88691531  0.00821300  1  -0.027668  2.4e-05  -0.166262  -0.139459  0.00031  3.947613  0.0
C  C234  1  0.89661846  0.04721526  0.56839117  1  0.032643  -0.022186  -0.085843  -0.057753  -0.022048  4.01512  -0.019
C  C235  1  0.11367444  0.89986561  0.60572787  1  -0.09872  0.115537  -0.088407  -0.193842  0.118726  3.890452  0.069
C  C236  1  0.20208549  0.77943180  0.00977256  1  0.629589  -0.007342  0.098071  0.076359  -0.006501  3.935798  -0.009
C  C237  1  0.16978882  0.48193622  0.16118940  1  -0.037567  0.125888  -0.005457  -0.022483  0.126785  3.926456  0.077
C  C238  1  0.79665290  0.00848131  0.78087406  1  0.596359  -0.014454  0.092686  0.066918  -0.014173  3.943904  -0.015
C  C239  1  0.54796869  0.27814415  0.48982026  1  0.632185  -0.005557  0.100556  0.078189  -0.004998  3.935053  -0.008
C  C240  1  0.88569820  0.60285605  0.57335774  1  -0.016499  0.013396  -0.159145  -0.189917  0.015224  3.902787  0.01
C  C241  1  0.61637863  0.95375421  0.65688617  1  0.012048  0.095651  -0.093696  -0.0979  0.098009  4.002588  0.056
C  C242  1  0.57357950  0.00571387  0.89183504  1  -0.021367  0.000452  -0.167035  -0.141775  0.000259  3.95051  0.0
C  C243  1  0.80008876  0.40691319  0.39825343  1  -0.054987  0.004782  -0.158958  -0.189905  0.004868  3.921013  0.003
C  C244  1  0.86245311  0.10882806  0.60276641  1  -0.165945  0.108814  -0.09057  -0.198303  0.111654  3.896722  0.064
C  C245  1  0.07329813  0.94241700  0.66397127  1  0.755798  0.051333  0.132612  0.353739  0.046808  4.010122  0.009
C  C246  1  0.72534661  0.01431675  0.73091345  1  -0.098224  0.107445  -0.009492  -0.03631  0.109123  3.95199  0.07
C  C247  1  0.15553258  0.63878632  0.55988376  1  0.368439  0.040732  0.032187  0.074325  0.048752  3.836803  0.03
C  C248  1  0.24005143  0.66229036  0.59676700  1  0.346883  0.009791  0.014937  0.072921  0.013064  3.876565  0.005
C  C249  1  0.07804114  0.02354298  0.65825572  1  -0.07881  0.142035  -0.00236  -0.016408  0.144077  3.921871  0.087
C  C250  1  0.31323706  0.70403999  0.95053292  1  -0.056643  -0.01797  -0.085117  -0.10115  -0.017944  3.989504  -0.014
C  C251  1  0.39837242  0.96081699  0.51400438  1  -0.027637  0.168248  -0.081385  -0.063666  0.172033  3.9679  0.098
C  C252  1  0.87069753  0.34531807  0.90591938  1  -0.039234  0.0406  -0.1047  -0.227094  0.042007  3.952741  0.027
C  C253  1  0.88515518  0.34414337  0.04104108  1  -0.068164  0.053417  -0.104719  -0.120138  0.054352  4.032009  0.031
C  C254  1  0.38402793  0.39120529  0.10167338  1  -0.042804  0.105664  -0.090697  -0.198838  0.108786  3.896272  0.064
C  C255  1  0.68417562  0.94951878  0.70612694  1  -0.025406  -0.026166  -0.08294  -0.107318  -0.026354  3.982289  -0.02
C  C256  1  0.66385627  0.47097281  0.13169445  1  -0.055156  -0.00736  -0.083571  -0.042476  -0.007579  4.04743  -0.007
C  C257  1  0.43496436  0.20291240  0.54695419  1  -0.044231  -0.016091  -0.084595  -0.09936  -0.016002  3.985943  -0.013
C  C258  1  0.13511613  0.60579495  0.10884193  1  -0.075526  0.109098  -0.091391  -0.198906  0.112  3.896804  0.065
C  C259  1  0.74212137  0.64999943  0.53343152  1  -0.04069  0.0018  -0.166224  -0.13999  0.001888  3.962125  0.001
C  C260  1  0.32275044  0.83561812  0.44371705  1  0.780859  0.047732  0.131781  0.351656  0.043801  4.013957  0.008
C  C261  1  0.56661970  0.54663722  0.20299519  1  -0.101896  -0.017048  -0.084407  -0.100019  -0.01701  3.984721  -0.013
C  C262  1  0.36310175  0.89848067  0.07212445  1  -0.020582  -0.007329  -0.159132  -0.192654  -0.008762  3.904211  -0.006
C  C263  1  0.10156598  0.57159454  0.04682865  1  0.00822  -0.023598  -0.086589  -0.056873  -0.023645  4.017774  -0.02
C  C264  1  0.17814339  0.04700727  0.29801258  1  -0.097984  0.007471  -0.083328  -0.095302  0.00727  3.985837  0.005
C  C265  1  0.83014358  0.16192630  0.47846186  1  -0.027974  0.138057  -0.003586  -0.01781  0.139238  3.921567  0.084
C  C266  1  0.84582483  0.56064872  0.63932741  1  0.341816  0.03358  0.027524  0.075102  0.040062  3.84058  0.024
C  C267  1  0.32422379  0.38734455  0.49264003  1  -0.01393  0.000594  -0.166608  -0.140434  0.000364  3.950585  0.0
C  C268  1  0.38384331  0.40189315  0.94531215  1  -0.01741  -0.027785  -0.085564  -0.121881  -0.027368  4.011022  -0.023
C  C269  1  0.12190203  0.58929384  0.84671561  1  -0.091026  0.064017  -0.099376  -0.218108  0.066382  3.930793  0.041
C  C270  1  0.16165231  0.52464727  0.86913026  1  -0.043427  -0.008812  -0.080657  -0.044445  -0.008953  4.035884  -0.009
C  C271  1  0.61643144  0.10098510  0.39249921  1  -0.041975  0.107701  -0.089969  -0.195536  0.110508  3.894808  0.065
C  C272  1  0.95379881  0.50810214  0.71963690  1  0.609235  -0.013679  0.092973  0.068065  -0.013182  3.943154  -0.014
C  C273  1  0.42317470  0.33247547  0.05920530  1  0.782875  0.046032  0.129436  0.354409  0.043435  4.015463  0.009
C  C274  1  0.63388392  0.39923955  0.89373200  1  0.006626  0.111785  -0.088539  -0.194259  0.115118  3.891702  0.067
C  C275  1  0.54614567  0.92963820  0.28301431  1  0.654101  -0.018363  0.079227  0.070563  -0.017662  3.988487  -0.016
C  C276  1  0.67685846  0.49426410  0.38963605  1  -0.01891  0.000483  -0.166205  -0.141578  0.000243  3.950002  0.0
C  C277  1  0.65145426  0.98816013  0.46004239  1  -0.043079  0.147326  -0.08762  -0.074141  0.150565  3.989302  0.086
C  C278  1  0.63641009  0.54154186  0.15593818  1  -0.027385  0.062654  -0.101774  -0.113809  0.064014  4.025413  0.037
C  C279  1  0.11532483  0.57175597  0.59984811  1  -0.021513  0.012212  -0.159346  -0.191441  0.013913  3.904562  0.009
C  C280  1  0.05485008  0.58730076  0.79309756  1  0.724565  0.030841  0.119665  0.333155  0.030123  4.081179  0.006
C  C281  1  0.17709932  0.50726145  0.61053428  1  -0.026629  0.000812  -0.165436  -0.1408  0.000604  3.948544  0.0
C  C282  1  0.85267576  0.54031761  0.00973311  1  -0.048755  0.171626  -0.079639  -0.061195  0.175415  3.961636  0.1
C  C283  1  0.67137608  0.52231697  0.84114248  1  -0.116217  0.13219  -0.005269  -0.021071  0.132704  3.929163  0.081
C  C284  1  0.62854781  0.08866382  0.65313751  1  -0.072687  0.064674  -0.099081  -0.216859  0.06715  3.931026  0.042
C  C285  1  0.04936417  0.10535734  0.90391262  1  -0.035827  0.005123  -0.160622  -0.191774  0.005245  3.915671  0.004
C  C286  1  0.94994359  0.79308406  0.58838498  1  0.676762  0.022042  0.115696  0.328848  0.021517  4.098858  0.003
C  C287  1  0.24025193  0.35259155  0.46844775  1  -0.019095  0.001553  -0.166279  -0.142452  0.001621  3.964031  0.001
C  C288  1  0.36319594  0.89359241  0.40099972  1  -0.050914  0.112857  -0.087908  -0.191987  0.116534  3.888642  0.068
C  C289  1  0.60131725  0.51230409  0.96167460  1  -0.066113  0.160534  -0.08341  -0.067711  0.163873  3.972051  0.094
C  C290  1  0.60068505  0.43418555  0.95560096  1  -0.106597  -0.024929  -0.086042  -0.057518  -0.025442  4.015296  -0.021
C  C291  1  0.25858076  0.40503693  0.33787121  1  0.342723  0.012009  0.014626  0.072524  0.015231  3.874746  0.007
C  C292  1  0.95121534  0.71968336  0.06937123  1  0.653164  -0.021171  0.077838  0.070947  -0.020254  3.985118  -0.018
C  C293  1  0.25834663  0.53250977  0.64938393  1  -0.022844  0.002123  -0.166521  -0.14048  0.002264  3.960742  0.002
C  C294  1  0.00811814  0.15042461  0.96643749  1  -0.035126  0.001954  -0.165937  -0.139684  0.002051  3.960314  0.001
C  C295  1  0.76039679  0.59596681  0.66290321  1  0.36248  0.009175  0.014535  0.071621  0.012181  3.877954  0.005
C  C296  1  0.86721649  0.09895246  0.44620240  1  -0.06873  -0.030547  -0.083183  -0.122468  -0.031286  4.005561  -0.026
C  C297  1  0.90438117  0.06175281  0.86035031  1  0.331086  0.035717  0.028844  0.075619  0.042043  3.837799  0.025
C  C298  1  0.32867300  0.84076762  0.52497000  1  -0.035859  0.142361  -0.002729  -0.0152  0.143728  3.921396  0.087
C  C299  1  0.38182987  0.65566054  0.95347908  1  0.00044  0.067102  -0.100861  -0.111874  0.068606  4.024547  0.039
C  C300  1  0.22388941  0.98487215  0.27194181  1  0.010581  -0.035604  -0.022672  -0.062376  -0.037458  4.002127  -0.03
C  C301  1  0.34599318  0.43721954  0.36034814  1  0.325047  0.065037  0.03504  0.070786  0.071662  3.842154  0.046
C  C302  1  0.09501097  0.86114412  0.06237997  1  0.34187  0.066129  0.034133  0.072687  0.073083  3.838329  0.048
C  C303  1  0.57911558  0.97774986  0.34080224  1  -0.053425  0.123644  -0.006583  -0.022849  0.124479  3.932591  0.076
C  C304  1  0.36522469  0.15598749  0.54215306  1  -0.054449  0.060183  -0.102566  -0.114627  0.061387  4.025585  0.035
C  C305  1  0.07242888  0.99379090  0.11051506  1  -0.007365  0.000569  -0.165854  -0.139884  0.000264  3.947856  0.0
C  C306  1  0.59504974  0.13870010  0.93949409  1  0.335507  0.063294  0.036247  0.072278  0.069704  3.84204  0.045
C  C307  1  0.12931991  0.90329287  0.34264691  1  -0.078671  -0.019894  -0.107253  -0.228154  -0.021952  3.956768  -0.018
C  C308  1  0.65073317  0.06625232  0.45401219  1  -0.083795  -0.023312  -0.087666  -0.058735  -0.02391  4.023401  -0.02
C  C309  1  0.88239486  0.84586722  0.59287003  1  -0.101396  0.04957  -0.102306  -0.223033  0.052083  3.944606  0.034
C  C310  1  0.70081506  0.60466613  0.59572909  1  -0.0799  0.004505  -0.161952  -0.193038  0.004559  3.918024  0.003
C  C311  1  0.33758964  0.13187950  0.47150889  1  -0.141088  -0.007775  -0.085524  -0.045696  -0.008007  4.049831  -0.007
C  C312  1  0.86587467  0.84492710  0.45776338  1  -0.065242  0.063859  -0.099794  -0.113426  0.065065  4.02004  0.037
C  C313  1  0.61629491  0.94504252  0.40357689  1  -0.019125  -0.026246  -0.085715  -0.122865  -0.025947  4.01209  -0.022
C  C314  1  0.77231765  0.27246528  0.98268848  1  0.002783  0.068886  -0.018523  -0.056919  0.071229  3.974953  0.049
C  C315  1  0.06674419  0.44996399  0.79435365  1  -0.033625  -0.025917  -0.081499  -0.102988  -0.025995  3.979013  -0.02
C  C316  1  0.88516492  0.59772195  0.05321642  1  -0.014661  -0.030377  -0.083403  -0.122834  -0.030635  4.004575  -0.026
C  C317  1  0.92561484  0.66691283  0.93944661  1  0.777814  0.054098  0.132071  0.356523  0.050377  4.010658  0.012
C  C318  1  0.14699807  0.93434159  0.54371730  1  -0.023278  -0.024815  -0.085031  -0.057101  -0.024982  4.011353  -0.021
C  C319  1  0.14749647  0.01252460  0.53758930  1  -0.033841  0.172768  -0.080482  -0.060261  0.176944  3.96182  0.101
C  C320  1  0.81567892  0.29703719  0.04676428  1  -0.043105  -0.015291  -0.083605  -0.098441  -0.015165  3.986647  -0.012
C  C321  1  0.47768879  0.22726055  0.48236767  1  -0.036851  0.072229  -0.018361  -0.057657  0.074163  3.973772  0.05
C  C322  1  0.37258693  0.65315478  0.08883321  1  -0.094135  0.050441  -0.102873  -0.222943  0.052099  3.941953  0.033
C  C323  1  0.04785905  0.72043173  0.50683957  1  0.606803  -0.009334  0.096723  0.069241  -0.009159  3.942849  -0.011
N  N324  1  0.65398585  0.19857579  0.93876891  1  -1.099649  0.411864  -0.218158  -0.077461  0.41512  3.242641  0.313
N  N325  1  0.90478943  0.56163783  0.70062703  1  -1.071474  0.371732  -0.22549  -0.097154  0.373032  3.206872  0.282
N  N326  1  0.40472306  0.43703903  0.29991548  1  -1.073112  0.41308  -0.218337  -0.076221  0.4159  3.230506  0.314
N  N327  1  0.54915947  0.26815328  0.72126546  1  0.787716  9e-05  0.087387  0.712059  0.000301  4.415423  0.0
N  N328  1  0.69687655  0.22651139  0.22001935  1  0.766952  -6.8e-05  0.088762  0.713621  0.000178  4.415315  0.0
N  N329  1  0.15420464  0.80117664  0.06308780  1  -1.108395  0.400304  -0.221654  -0.084917  0.402178  3.228154  0.303
N  N330  1  0.06006537  0.72128441  0.28240168  1  0.802752  -0.000622  0.087115  0.709341  -0.00045  4.423579  -0.001
N  N331  1  0.72193399  0.54736999  0.71708268  1  -1.086117  0.209863  -0.268503  -0.170136  0.209067  3.262174  0.159
N  N332  1  0.81023665  0.78164445  0.77771964  1  0.793909  -0.000272  0.087207  0.711002  -7.2e-05  4.416201  -0.001
N  N333  1  0.45026592  0.71984492  0.27163732  1  0.773942  0.000271  0.089401  0.714828  0.000368  4.413091  0.0
N  N334  1  0.22059149  0.45516107  0.28483671  1  -1.078901  0.187064  -0.274766  -0.187965  0.185644  3.265757  0.141
N  N335  1  0.09632391  0.69960010  0.56002657  1  -1.08191  0.415226  -0.216033  -0.078591  0.417865  3.212562  0.317
N  N336  1  0.46974414  0.21482180  0.95303765  1  -1.090641  0.204324  -0.271442  -0.179594  0.203303  3.265761  0.154
N  N337  1  0.59505108  0.30170301  0.43678839  1  -1.098177  0.415613  -0.218541  -0.076887  0.418119  3.237292  0.316
N  N338  1  0.97013860  0.78506023  0.04651438  1  -1.094189  0.195523  -0.272902  -0.184376  0.194012  3.264011  0.147
N  N339  1  0.19856183  0.77196086  0.77849604  1  0.822373  -0.000114  0.087749  0.714266  0.000101  4.412477  0.0
N  N340  1  0.77932047  0.28534816  0.45322370  1  -1.089857  0.20692  -0.27083  -0.180405  0.205577  3.258507  0.156
N  N341  1  0.02827872  0.04871562  0.78242579  1  -1.078269  0.215111  -0.26613  -0.167296  0.213921  3.257559  0.162
N  N342  1  0.34190541  0.94164544  0.19864235  1  -1.077177  -0.439645  -0.205484  -0.054156  -0.43859  3.233342  -0.342
N  N343  1  0.93836434  0.28311266  0.71885216  1  0.741635  -0.000351  0.088386  0.712684  -0.000124  4.418611  -0.001
N  N344  1  0.27882452  0.71699622  0.54904958  1  -1.079428  0.224025  -0.266081  -0.166646  0.223196  3.259527  0.17
N  N345  1  0.30598083  0.21766947  0.22360554  1  0.802918  9.9e-05  0.08976  0.712794  0.000106  4.418612  0.0
N  N346  1  0.52497426  0.95259121  0.21816415  1  -1.077112  0.20564  -0.268894  -0.173035  0.205777  3.266254  0.156
N  N347  1  0.84538724  0.06242732  0.79911822  1  -1.07789  0.368058  -0.226598  -0.098503  0.368794  3.205238  0.28
Cl  Cl348  1  0.51263031  0.09823772  0.10196494  1  -0.577383  0.098401  -0.246236  -0.486117  0.097112  1.014654  0.077
Cl  Cl349  1  0.27964629  0.60633473  0.39961725  1  -0.588282  0.197359  -0.262493  -0.499633  0.195491  1.001903  0.154
Cl  Cl350  1  0.02643536  0.89893903  0.89379233  1  -0.588745  0.193669  -0.263761  -0.499911  0.191414  1.010972  0.151
Cl  Cl351  1  0.71784552  0.39934864  0.60531629  1  -0.58149  0.204804  -0.25751  -0.493008  0.202647  1.008189  0.161
O  O352  1  0.65179002  0.23006643  0.27921145  1  -0.557761  0.013116  -0.203618  -0.461504  0.013664  2.06395  0.011
O  O353  1  0.27325258  0.73219442  0.14923508  1  -1.097556  0.184522  -0.347375  -0.50365  0.185325  2.294475  0.16
O  O354  1  0.28012820  0.78412360  0.41190176  1  -1.058765  0.274814  -0.285813  -0.453226  0.274244  2.21343  0.235
O  O355  1  0.98153091  0.71977042  0.28176281  1  -0.467512  0.000251  -0.162393  -0.389415  9.6e-05  1.891216  0.0
O  O356  1  0.59051546  0.26664063  0.65914101  1  -0.592535  0.014081  -0.223651  -0.495202  0.014176  2.062841  0.012
O  O357  1  0.77543336  0.22810954  0.22152570  1  -0.424252  0.002851  -0.162333  -0.38852  0.002612  1.884883  0.002
O  O358  1  0.71456990  0.40865853  0.78240765  1  -1.06216  0.264881  -0.299308  -0.4596  0.263801  2.234545  0.227
O  O359  1  0.03167877  0.91029136  0.71611248  1  -1.063036  0.269164  -0.291713  -0.456531  0.268112  2.21968  0.23
O  O360  1  0.40836751  0.65845296  0.26728237  1  -0.590688  0.010212  -0.221172  -0.491809  0.010559  2.05945  0.009
O  O361  1  0.98449859  0.76494202  0.64717478  1  -1.073154  0.228784  -0.31878  -0.475833  0.228939  2.274686  0.199
O  O362  1  0.59410823  0.27307872  0.78049939  1  -0.575342  0.012413  -0.210046  -0.46675  0.012874  2.064586  0.01
O  O363  1  0.22745490  0.21784931  0.22462785  1  -0.461077  0.003131  -0.162463  -0.389128  0.003006  1.888185  0.002
O  O364  1  0.96621103  0.71957539  0.90727252  1  -1.073833  0.252271  -0.302508  -0.4675  0.250191  2.224728  0.214
O  O365  1  0.46279226  0.27921607  0.09154550  1  -1.064039  0.257994  -0.301222  -0.466698  0.256162  2.222945  0.221
O  O366  1  0.15744100  0.76834293  0.84062413  1  -0.589163  0.013603  -0.22312  -0.493097  0.013637  2.059993  0.012
O  O367  1  0.10288020  0.70760503  0.34249178  1  -0.592994  0.021616  -0.228878  -0.498251  0.021977  2.014439  0.019
O  O368  1  0.51870212  0.34972659  0.23059745  1  -1.096925  0.190076  -0.343273  -0.498198  0.19102  2.29844  0.165
O  O369  1  0.72586104  0.14691351  0.73531792  1  -1.074629  0.239934  -0.310774  -0.466094  0.239276  2.259172  0.207
O  O370  1  0.85251116  0.84270117  0.78665838  1  -0.591684  0.016807  -0.229637  -0.498649  0.016903  2.014652  0.014
O  O371  1  0.89504180  0.22415264  0.73031272  1  -0.557652  0.013982  -0.202334  -0.459291  0.014176  2.065606  0.012
O  O372  1  0.01694845  0.28288841  0.71785724  1  -0.39843  0.003072  -0.162702  -0.389697  0.002864  1.890229  0.002
O  O373  1  0.52871687  0.72146520  0.26814887  1  -0.426438  0.002209  -0.159922  -0.384195  0.002098  1.880888  0.002
O  O374  1  0.73172129  0.78061115  0.77886832  1  -0.455844  0.003522  -0.158549  -0.383882  0.0033  1.889511  0.003
O  O375  1  0.89523895  0.34360288  0.70887392  1  -0.594927  0.019037  -0.228462  -0.49796  0.019175  2.012003  0.017
O  O376  1  0.65551725  0.22163947  0.15800195  1  -0.598532  0.016456  -0.227083  -0.499587  0.016331  2.045605  0.015
O  O377  1  0.02373771  0.64730496  0.76498941  1  -1.067075  0.232982  -0.315513  -0.471025  0.232535  2.262761  0.201
O  O378  1  0.27706198  0.77058667  0.77621062  1  -0.477345  0.004308  -0.156853  -0.380871  0.004058  1.885856  0.003
O  O379  1  0.47073144  0.26451102  0.72336333  1  -0.434472  0.003663  -0.158808  -0.382536  0.003361  1.884432  0.003
O  O380  1  0.40583528  0.77910219  0.27921195  1  -0.571653  0.002117  -0.213468  -0.471192  0.001649  2.06197  0.001
O  O381  1  0.34886200  0.15692230  0.21353879  1  -0.598096  -0.014372  -0.229466  -0.500273  -0.01478  2.025343  -0.013
O  O382  1  0.10387689  0.73692153  0.22450091  1  -0.549619  0.013133  -0.199365  -0.455193  0.013463  2.064763  0.012
O  O383  1  0.53511598  0.09109992  0.28182002  1  -1.06302  0.265779  -0.296788  -0.460976  0.264613  2.223671  0.228
O  O384  1  0.34985767  0.27659915  0.23278538  1  -0.549444  0.005086  -0.198097  -0.454732  0.005612  2.061967  0.005
O  O385  1  0.23830959  0.85332768  0.26505216  1  -1.071097  -0.181706  -0.324375  -0.485586  -0.180217  2.274414  -0.159
O  O386  1  0.76569142  0.26887673  0.84989221  1  -1.103612  0.176726  -0.350685  -0.50734  0.177429  2.308056  0.154
O  O387  1  0.85449108  0.72295717  0.76711167  1  -0.554042  0.014111  -0.20344  -0.459056  0.014429  2.069471  0.012
O  O388  1  0.21367547  0.59483274  0.22088687  1  -1.069634  0.251137  -0.3057  -0.467271  0.249603  2.231577  0.214
O  O389  1  0.48239165  0.23041657  0.34943080  1  -1.10332  0.183656  -0.347637  -0.502571  0.184725  2.308383  0.16
O  O390  1  0.15331184  0.77652281  0.71938096  1  -0.567859  0.011405  -0.212249  -0.469229  0.011575  2.072395  0.01
O  O391  1  0.78155581  0.21946627  0.59131686  1  -1.069935  0.260571  -0.295078  -0.463387  0.259692  2.214342  0.222
