# generated using pymatgen
data_CoH6(C3N2)2
_symmetry_space_group_name_H-M   'P 1'
_cell_length_a   9.41395153
_cell_length_b   24.17908883
_cell_length_c   24.65345555
_cell_angle_alpha   91.76399633
_cell_angle_beta   89.99989508
_cell_angle_gamma   90.00006925
_symmetry_Int_Tables_number   1
_chemical_formula_structural   CoH6(C3N2)2
_chemical_formula_sum   'Co20 H120 C120 N80'
_cell_volume   5608.97919369
_cell_formula_units_Z   20
loop_
 _symmetry_equiv_pos_site_id
 _symmetry_equiv_pos_as_xyz
  1  'x, y, z'
loop_
 _atom_site_type_symbol
 _atom_site_label
 _atom_site_symmetry_multiplicity
 _atom_site_fract_x
 _atom_site_fract_y
 _atom_site_fract_z
 _atom_site_occupancy
 _atom_site_pbe_bader_charge
 _atom_site_pbe_bader_spin_density
 _atom_site_pbe_cm5_charge
 _atom_site_pbe_ddec_charge
 _atom_site_pbe_ddec_spin_density
 _atom_site_pbe_ddec_sum_bond_order
 _atom_site_pbe_magmom
Co  Co0  1  0.04476107  0.26288010  0.67942110  1  1.129913  2.537989  0.710185  0.655833  2.764091  2.739362  2.462
Co  Co1  1  0.25831033  0.48449784  0.71620387  1  1.128317  2.536088  0.711973  0.655174  2.761256  2.76367  2.46
Co  Co2  1  0.76320528  0.46951706  0.85916869  1  1.128233  2.534665  0.713633  0.654867  2.755632  2.767798  2.459
Co  Co3  1  0.66761451  0.16009813  0.51703527  1  1.125713  2.535328  0.710263  0.650329  2.760206  2.759181  2.458
Co  Co4  1  0.46134878  0.71553189  0.68203545  1  1.130922  2.53956  0.710517  0.654536  2.766066  2.751659  2.463
Co  Co5  1  0.54476114  0.23711983  0.82057906  1  1.130072  2.537981  0.710196  0.655866  2.764091  2.739316  2.462
Co  Co6  1  0.75830776  0.01550302  0.78379495  1  1.128261  2.536092  0.712004  0.655208  2.761244  2.763686  2.46
Co  Co7  1  0.26320573  0.03048256  0.64083050  1  1.128328  2.534657  0.713635  0.654867  2.755626  2.767788  2.459
Co  Co8  1  0.16761429  0.33990268  0.98296524  1  1.125711  2.535327  0.710225  0.650224  2.760209  2.759283  2.458
Co  Co9  1  0.96134689  0.78447035  0.81796612  1  1.130703  2.539577  0.710501  0.654471  2.766078  2.751697  2.463
Co  Co10  1  0.95523899  0.73712003  0.32057881  1  1.12991  2.537988  0.71018  0.655816  2.764091  2.739368  2.462
Co  Co11  1  0.74168973  0.51550271  0.28379443  1  1.128264  2.536094  0.711967  0.655215  2.761247  2.763722  2.46
Co  Co12  1  0.23679478  0.53048348  0.14083083  1  1.128262  2.534658  0.713655  0.654839  2.755624  2.767866  2.459
Co  Co13  1  0.33238554  0.83990200  0.48296464  1  1.125691  2.535327  0.710254  0.650279  2.760207  2.759209  2.458
Co  Co14  1  0.53865340  0.28447031  0.31796574  1  1.130911  2.539568  0.710527  0.654518  2.766081  2.751661  2.463
Co  Co15  1  0.45523998  0.76287988  0.17942084  1  1.12989  2.53799  0.710185  0.655839  2.764089  2.739367  2.462
Co  Co16  1  0.24169229  0.98449628  0.21620574  1  1.128246  2.536088  0.711981  0.655222  2.761237  2.763763  2.46
Co  Co17  1  0.73679433  0.96951757  0.35916900  1  1.128296  2.534655  0.713607  0.654763  2.755627  2.767879  2.459
Co  Co18  1  0.83238364  0.66009703  0.01703465  1  1.125707  2.535325  0.710226  0.650215  2.760208  2.759267  2.458
Co  Co19  1  0.03865317  0.21552936  0.18203459  1  1.130872  2.53957  0.710509  0.654504  2.766082  2.751632  2.463
H  H20  1  0.79384198  0.35627751  0.67600186  1  0.082946  0.001996  0.115682  0.108788  0.000654  1.005058  0.001
H  H21  1  0.55782827  0.34547085  0.74229831  1  0.107228  0.001896  0.111513  0.107031  0.000596  1.028547  0.001
H  H22  1  0.84124565  0.21401758  0.76909303  1  0.115  0.001277  0.123368  0.080012  0.000284  1.034428  0.001
H  H23  1  0.29979450  0.30261334  0.60156912  1  0.078273  0.002305  0.109764  0.09834  0.000868  1.029622  0.001
H  H24  1  0.40099868  0.41012344  0.61476702  1  0.10124  0.00219  0.114572  0.105674  0.000804  1.004091  0.001
H  H25  1  0.04176563  0.39025993  0.71438897  1  0.108907  0.001347  0.122809  0.076025  0.0003  1.036386  0.001
H  H26  1  0.00486964  0.57377335  0.70180216  1  0.063181  0.002282  0.113117  0.106536  0.000739  1.01137  0.001
H  H27  1  0.77107907  0.56983294  0.77059086  1  0.092695  0.00203  0.10659  0.091158  0.000722  1.052359  0.001
H  H28  1  0.06342376  0.44685576  0.81305542  1  0.098089  0.001405  0.122547  0.076097  0.000273  1.044147  0.001
H  H29  1  0.27996791  0.53092949  0.59681872  1  0.070943  0.002061  0.113743  0.106513  0.000694  1.008993  0.001
H  H30  1  0.36651413  0.63968853  0.58264474  1  0.101674  0.001997  0.113179  0.108137  0.000571  1.01694  0.001
H  H31  1  0.39150743  0.60350523  0.74851861  1  0.082775  0.001441  0.126929  0.081943  0.000357  0.998147  0.001
H  H32  1  0.33041352  0.15612853  0.68512113  1  0.13614  0.002068  0.107789  0.100246  0.000673  1.071823  0.001
H  H33  1  0.52787705  0.21792208  0.62949469  1  0.089036  0.002054  0.11  0.102428  0.000706  1.02399  0.001
H  H34  1  0.46171776  0.06540636  0.54533183  1  0.118838  0.001355  0.126293  0.086482  0.00021  1.013546  0.001
H  H35  1  0.87759995  0.96626951  0.47635447  1  0.100566  0.002379  0.11124  0.100781  0.000932  1.027339  0.001
H  H36  1  0.83725292  0.05398197  0.55010952  1  0.094653  0.002181  0.110439  0.100193  0.00076  1.036071  0.001
H  H37  1  0.62901558  0.08872364  0.40346521  1  0.116618  0.00097  0.124533  0.082927  -3.4e-05  1.011627  0.001
H  H38  1  0.50061824  0.38689347  0.87570159  1  0.128068  0.002193  0.108359  0.099425  0.0008  1.068964  0.001
H  H39  1  0.26536864  0.39392331  0.80862166  1  0.093319  0.001924  0.109502  0.098208  0.00061  1.03113  0.001
H  H40  1  0.57144338  0.51062820  0.76196208  1  0.097591  0.001022  0.120754  0.072167  0.000132  1.03861  0.001
H  H41  1  0.39052165  0.23219894  0.51182234  1  0.090064  0.002123  0.107978  0.098206  0.000703  1.039317  0.001
H  H42  1  0.32299134  0.28893388  0.41887855  1  0.087856  0.002281  0.115255  0.108081  0.000788  1.003664  0.001
H  H43  1  0.71012306  0.20425391  0.39433913  1  0.096127  0.001538  0.12764  0.083944  0.000414  0.999864  0.001
H  H44  1  0.00662645  0.15341845  0.49497376  1  0.077846  0.00231  0.115909  0.109384  0.000804  1.003457  0.001
H  H45  1  0.19075517  0.19700484  0.57346580  1  0.112294  0.002028  0.109006  0.101673  0.000704  1.036655  0.001
H  H46  1  0.76884496  0.22605793  0.62333870  1  0.081609  0.001428  0.122216  0.076351  0.000342  1.040527  0.001
H  H47  1  0.43927842  0.83844450  0.73162321  1  0.060502  0.002366  0.108725  0.094396  0.000913  1.04244  0.001
H  H48  1  0.21360155  0.86806597  0.79907067  1  0.083459  0.002188  0.112385  0.10333  0.000759  1.018985  0.001
H  H49  1  0.15560348  0.70421369  0.74003116  1  0.105336  0.001047  0.123366  0.077348  0.000113  1.024941  0.001
H  H50  1  0.29384297  0.14372171  0.82399811  1  0.082939  0.001996  0.115664  0.108775  0.000654  1.005043  0.001
H  H51  1  0.05782855  0.15452826  0.75770182  1  0.107232  0.001896  0.111488  0.106972  0.000596  1.02854  0.001
H  H52  1  0.34124434  0.28598207  0.73090651  1  0.11491  0.001277  0.12338  0.080045  0.000284  1.0344  0.001
H  H53  1  0.79979513  0.19738712  0.89843088  1  0.078262  0.002305  0.109772  0.098384  0.000867  1.029623  0.001
H  H54  1  0.90099798  0.08987665  0.88523249  1  0.101259  0.00219  0.114568  0.105685  0.000804  1.004123  0.001
H  H55  1  0.54176547  0.10973999  0.78561160  1  0.108919  0.001347  0.122807  0.076039  0.0003  1.036404  0.001
H  H56  1  0.50486934  0.92622662  0.79819805  1  0.063194  0.002282  0.113128  0.106546  0.000739  1.011393  0.001
H  H57  1  0.27107821  0.93016632  0.72940914  1  0.092663  0.00203  0.10658  0.091177  0.000722  1.052373  0.001
H  H58  1  0.56342284  0.05314377  0.68694350  1  0.098075  0.001404  0.122548  0.076113  0.000273  1.044108  0.001
H  H59  1  0.77996618  0.96907474  0.90317574  1  0.070674  0.00206  0.113725  0.106515  0.000694  1.008993  0.001
H  H60  1  0.86650562  0.86031905  0.91735504  1  0.101764  0.001996  0.113206  0.108284  0.00057  1.017051  0.001
H  H61  1  0.89150832  0.89649533  0.75148093  1  0.082763  0.001442  0.12691  0.081859  0.000357  0.998202  0.001
H  H62  1  0.83041182  0.34387029  0.81488042  1  0.13622  0.002068  0.107813  0.100349  0.000673  1.071778  0.001
H  H63  1  0.02787400  0.28207784  0.87050670  1  0.088619  0.002054  0.11001  0.102417  0.000706  1.024048  0.001
H  H64  1  0.96171781  0.43459376  0.95466926  1  0.118804  0.001355  0.126283  0.086449  0.00021  1.013556  0.001
H  H65  1  0.37760629  0.53373120  0.02364526  1  0.100481  0.00238  0.111245  0.10077  0.000932  1.027395  0.001
H  H66  1  0.33725530  0.44601974  0.94989009  1  0.094623  0.002181  0.110439  0.100194  0.00076  1.036099  0.001
H  H67  1  0.12901849  0.41127814  0.09653390  1  0.116695  0.00097  0.124492  0.0829  -3.4e-05  1.011638  0.001
H  H68  1  0.00062010  0.11310603  0.62429738  1  0.128059  0.002193  0.108342  0.099358  0.0008  1.06901  0.001
H  H69  1  0.76536892  0.10607672  0.69137713  1  0.093338  0.001924  0.109512  0.098196  0.00061  1.031143  0.001
H  H70  1  0.07144161  0.98937180  0.73803808  1  0.097604  0.001022  0.120764  0.072188  0.000132  1.038619  0.001
H  H71  1  0.89052207  0.26780073  0.98817797  1  0.090046  0.002123  0.107973  0.0982  0.000703  1.039319  0.001
H  H72  1  0.82299141  0.21106550  0.08112115  1  0.087825  0.002281  0.115256  0.108066  0.000788  1.003667  0.001
H  H73  1  0.21012345  0.29574501  0.10566145  1  0.096158  0.001539  0.127633  0.08395  0.000414  0.999819  0.001
H  H74  1  0.50662519  0.34658120  0.00502699  1  0.077833  0.00231  0.115934  0.109433  0.000804  1.003435  0.001
H  H75  1  0.69075494  0.30299433  0.92653464  1  0.112302  0.002028  0.109008  0.101675  0.000704  1.036659  0.001
H  H76  1  0.26884398  0.27394376  0.87666136  1  0.081705  0.001428  0.122222  0.076356  0.000342  1.040538  0.001
H  H77  1  0.93928063  0.66155484  0.76837707  1  0.060464  0.002366  0.108749  0.094451  0.000913  1.04245  0.001
H  H78  1  0.71360293  0.63193450  0.70092981  1  0.083508  0.002188  0.11239  0.10334  0.000759  1.01898  0.001
H  H79  1  0.65560508  0.79578634  0.75996935  1  0.105313  0.001047  0.123357  0.077345  0.000113  1.024938  0.001
H  H80  1  0.20615807  0.64372179  0.32399803  1  0.082923  0.001996  0.11566  0.108747  0.000654  1.005039  0.001
H  H81  1  0.44217179  0.65452886  0.25770159  1  0.107223  0.001896  0.111505  0.107026  0.000596  1.028558  0.001
H  H82  1  0.15875441  0.78598213  0.23090687  1  0.115012  0.001277  0.123372  0.08002  0.000284  1.034409  0.001
H  H83  1  0.70020450  0.69738679  0.39843078  1  0.078277  0.002305  0.109753  0.098328  0.000868  1.02958  0.001
H  H84  1  0.59900138  0.58987628  0.38523288  1  0.101231  0.00219  0.114578  0.105663  0.000804  1.004067  0.001
H  H85  1  0.95823443  0.60973978  0.28561093  1  0.108891  0.001347  0.122819  0.076038  0.0003  1.036362  0.001
H  H86  1  0.99512935  0.42622512  0.29819729  1  0.06321  0.002283  0.113109  0.106528  0.000739  1.011199  0.001
H  H87  1  0.22892418  0.43016801  0.22940948  1  0.092707  0.00203  0.106575  0.091127  0.000722  1.052319  0.001
H  H88  1  0.93657630  0.55314396  0.18694407  1  0.098086  0.001405  0.122547  0.076112  0.000274  1.044104  0.001
H  H89  1  0.72003746  0.46907519  0.40317686  1  0.070613  0.00206  0.11372  0.10654  0.000693  1.009006  0.001
H  H90  1  0.63349974  0.36031904  0.41735662  1  0.101731  0.001996  0.113203  0.108288  0.00057  1.017028  0.001
H  H91  1  0.60849369  0.39649531  0.25148212  1  0.082824  0.001442  0.126907  0.081864  0.000358  0.998115  0.001
H  H92  1  0.66958442  0.84387119  0.31487998  1  0.136185  0.002068  0.107784  0.10024  0.000673  1.071878  0.001
H  H93  1  0.47212301  0.78207805  0.37050522  1  0.089025  0.002053  0.109972  0.102407  0.000706  1.024044  0.001
H  H94  1  0.53828229  0.93459335  0.45466847  1  0.118831  0.001355  0.126278  0.086443  0.00021  1.013602  0.001
H  H95  1  0.12239055  0.03373062  0.52364544  1  0.10055  0.00238  0.111261  0.100801  0.000932  1.027359  0.001
H  H96  1  0.16274289  0.94601940  0.44989002  1  0.094639  0.002181  0.110422  0.100164  0.00076  1.036121  0.001
H  H97  1  0.37098023  0.91127773  0.59653353  1  0.116689  0.000969  0.124485  0.082879  -3.4e-05  1.011671  0.001
H  H98  1  0.49937756  0.61310873  0.12429798  1  0.128  0.002194  0.10836  0.09941  0.0008  1.068954  0.001
H  H99  1  0.73463035  0.60607847  0.19137749  1  0.093321  0.001924  0.109516  0.098205  0.00061  1.031066  0.001
H  H100  1  0.42855668  0.48937276  0.23803664  1  0.097881  0.001022  0.120761  0.072212  0.000132  1.038598  0.001
H  H101  1  0.60947947  0.76779954  0.48817751  1  0.090065  0.002123  0.107963  0.098161  0.000703  1.039342  0.001
H  H102  1  0.67700872  0.71106583  0.58112297  1  0.087825  0.002281  0.115258  0.108067  0.000788  1.003629  0.001
H  H103  1  0.28987699  0.79574539  0.60566075  1  0.096171  0.001539  0.12764  0.083967  0.000414  0.999829  0.001
H  H104  1  0.99337361  0.84658085  0.50502653  1  0.077859  0.00231  0.115931  0.109416  0.000804  1.003446  0.001
H  H105  1  0.80924382  0.80299487  0.42653450  1  0.112305  0.002029  0.108989  0.101654  0.000705  1.036591  0.001
H  H106  1  0.23115615  0.77394261  0.37666162  1  0.081643  0.001428  0.122223  0.076359  0.000342  1.040576  0.001
H  H107  1  0.56071951  0.16155522  0.26837668  1  0.060474  0.002366  0.108741  0.094451  0.000913  1.042473  0.001
H  H108  1  0.78639638  0.13193415  0.20092965  1  0.083493  0.002188  0.112387  0.103327  0.000759  1.018956  0.001
H  H109  1  0.84439658  0.29578602  0.25996915  1  0.105344  0.001047  0.123366  0.077349  0.000113  1.02493  0.001
H  H110  1  0.70615815  0.85627759  0.17600177  1  0.082928  0.001996  0.115673  0.108781  0.000654  1.005037  0.001
H  H111  1  0.94217151  0.84547104  0.24229807  1  0.107229  0.001896  0.111507  0.107015  0.000596  1.028523  0.001
H  H112  1  0.65875465  0.71401723  0.26909337  1  0.114994  0.001277  0.123369  0.080015  0.000284  1.0344  0.001
H  H113  1  0.20020599  0.80261301  0.10156903  1  0.078267  0.002305  0.109771  0.098368  0.000868  1.029582  0.001
H  H114  1  0.09900208  0.91012306  0.11476740  1  0.101271  0.00219  0.114594  0.105711  0.000804  1.004061  0.001
H  H115  1  0.45823459  0.89026013  0.21438871  1  0.108898  0.001347  0.122815  0.076029  0.0003  1.036379  0.001
H  H116  1  0.49513071  0.07377310  0.20180226  1  0.063199  0.002283  0.113133  0.106547  0.000739  1.01136  0.001
H  H117  1  0.72892184  0.06983298  0.27059075  1  0.09268  0.00203  0.106589  0.09118  0.000722  1.052354  0.001
H  H118  1  0.43657828  0.94685595  0.31305640  1  0.098091  0.001404  0.122533  0.076089  0.000274  1.044142  0.001
H  H119  1  0.22003494  0.03092414  0.09682413  1  0.070642  0.00206  0.113735  0.106528  0.000693  1.008995  0.001
H  H120  1  0.13349444  0.13968025  0.08264525  1  0.1018  0.001996  0.113204  0.108271  0.00057  1.017049  0.001
H  H121  1  0.10849173  0.10350356  0.24851934  1  0.082756  0.001442  0.126896  0.081862  0.000357  0.998173  0.001
H  H122  1  0.16958824  0.65612901  0.18511906  1  0.136235  0.002068  0.107796  0.10032  0.000673  1.071826  0.001
H  H123  1  0.97212393  0.71792146  0.12949359  1  0.089148  0.002053  0.110007  0.102414  0.000706  1.024042  0.001
H  H124  1  0.03828119  0.56540596  0.04533064  1  0.11881  0.001355  0.126269  0.086445  0.00021  1.013545  0.001
H  H125  1  0.62239377  0.46626810  0.97635463  1  0.10046  0.00238  0.111235  0.10076  0.000932  1.027375  0.001
H  H126  1  0.66274475  0.55397997  0.05010981  1  0.094628  0.002181  0.110413  0.100147  0.00076  1.036106  0.001
H  H127  1  0.87098156  0.58872158  0.90346559  1  0.116695  0.00097  0.124492  0.082889  -3.4e-05  1.011635  0.001
H  H128  1  0.99937996  0.88689286  0.37570290  1  0.128022  0.002193  0.108344  0.099368  0.0008  1.068969  0.001
H  H129  1  0.23463113  0.89392258  0.30862275  1  0.093324  0.001924  0.109527  0.098239  0.00061  1.031097  0.001
H  H130  1  0.92855845  0.01062750  0.26196261  1  0.097635  0.001022  0.12074  0.072151  0.000132  1.038615  0.001
H  H131  1  0.10947799  0.73219898  0.01182192  1  0.090055  0.002123  0.10796  0.098182  0.000703  1.039358  0.001
H  H132  1  0.17700865  0.78893380  0.91887873  1  0.087857  0.002281  0.115261  0.108066  0.000788  1.003657  0.001
H  H133  1  0.78987661  0.70425429  0.89433843  1  0.096131  0.001538  0.127639  0.083947  0.000414  0.99983  0.001
H  H134  1  0.49337168  0.65341934  0.99497374  1  0.077501  0.00231  0.115931  0.109393  0.000804  1.003461  0.001
H  H135  1  0.30924406  0.69700621  0.07346569  1  0.112303  0.002028  0.109003  0.101687  0.000704  1.036629  0.001
H  H136  1  0.73115607  0.72605678  0.12333857  1  0.081635  0.001428  0.122217  0.076346  0.000342  1.040525  0.001
H  H137  1  0.06072155  0.33844405  0.23162320  1  0.060501  0.002366  0.108765  0.094464  0.000913  1.042485  0.001
H  H138  1  0.28639712  0.36806521  0.29907049  1  0.083504  0.002188  0.11239  0.103337  0.000759  1.018986  0.001
H  H139  1  0.34439710  0.20421337  0.24003095  1  0.105321  0.001047  0.123355  0.077344  0.000113  1.024957  0.001
C  C140  1  0.76862822  0.32483363  0.70495364  1  0.34625  0.014209  -0.019964  -0.065337  0.008117  4.031903  0.01
C  C141  1  0.65048646  0.31907968  0.73740727  1  0.313599  0.009338  -0.018177  -0.055714  0.005481  4.024972  0.007
C  C142  1  0.79597995  0.25103149  0.75225545  1  0.94371  0.016837  0.114015  0.128849  0.011097  3.999382  0.014
C  C143  1  0.26143546  0.33667967  0.62722691  1  0.301491  0.014299  -0.020327  -0.058753  0.008432  4.030653  0.01
C  C144  1  0.31120740  0.39013996  0.63355302  1  0.37657  0.012736  -0.019516  -0.056529  0.007515  4.036929  0.009
C  C145  1  0.12557533  0.38108443  0.68522450  1  0.935806  0.0174  0.111246  0.125421  0.011469  4.004002  0.015
C  C146  1  0.98211695  0.54667443  0.73499298  1  0.35438  0.016523  -0.021051  -0.058421  0.00945  4.025492  0.012
C  C147  1  0.86546872  0.54418776  0.76871005  1  0.340439  0.007611  -0.023971  -0.063626  0.004634  4.041596  0.006
C  C148  1  0.01533566  0.48062177  0.79168406  1  0.962948  0.016524  0.114127  0.13289  0.010722  4.00583  0.014
C  C149  1  0.31659437  0.56212009  0.62615882  1  0.340028  0.008688  -0.024334  -0.066391  0.005449  4.049205  0.007
C  C150  1  0.35855879  0.61600732  0.61916460  1  0.378508  0.011509  -0.023574  -0.061486  0.006762  4.038869  0.009
C  C151  1  0.37358625  0.59844936  0.70512463  1  0.941926  0.008842  0.110215  0.124304  0.006244  4.0151  0.008
C  C152  1  0.38704762  0.14655562  0.64773530  1  0.322608  0.014781  -0.019199  -0.052943  0.00863  4.019157  0.011
C  C153  1  0.48562908  0.17699781  0.61995863  1  0.296182  0.011004  -0.026279  -0.075971  0.006605  4.034526  0.008
C  C154  1  0.45253881  0.09871126  0.57566058  1  0.961114  0.016581  0.115643  0.129778  0.010862  3.998186  0.014
C  C155  1  0.81967274  0.00467492  0.47209801  1  0.320076  0.011133  -0.020832  -0.054327  0.006579  4.024563  0.008
C  C156  1  0.80014850  0.04821207  0.50864395  1  0.344101  0.012337  -0.021665  -0.06092  0.007117  4.026527  0.009
C  C157  1  0.69186900  0.06748168  0.43332522  1  0.946058  0.016601  0.112598  0.125273  0.010945  4.01512  0.015
C  C158  1  0.47961231  0.41417836  0.84253772  1  0.3342  0.014842  -0.017632  -0.046185  0.008636  4.005624  0.011
C  C159  1  0.36285484  0.41788118  0.80917012  1  0.28257  0.01133  -0.022144  -0.061938  0.006515  4.019877  0.009
C  C160  1  0.51919529  0.47848197  0.78434970  1  0.950314  0.018326  0.113321  0.130903  0.011871  4.016524  0.016
C  C161  1  0.44744045  0.23521122  0.47380664  1  0.367685  0.016347  -0.022923  -0.059822  0.009336  4.037926  0.012
C  C162  1  0.41383835  0.26314032  0.42771090  1  0.331696  0.00677  -0.021084  -0.060377  0.003951  4.037035  0.005
C  C163  1  0.61391477  0.21955675  0.41391403  1  0.955218  0.016701  0.115048  0.131337  0.010794  4.008488  0.014
C  C164  1  0.98424562  0.17558843  0.53291861  1  0.294551  0.017678  -0.016832  -0.056385  0.009962  4.02174  0.013
C  C165  1  0.07562180  0.19765012  0.57157870  1  0.366676  0.010185  -0.018006  -0.054256  0.006095  4.018214  0.008
C  C166  1  0.85824636  0.21270507  0.59851006  1  0.99668  0.022124  0.116366  0.133116  0.014078  4.005742  0.018
C  C167  1  0.34810941  0.81448219  0.74394949  1  0.341273  0.007853  -0.024588  -0.06447  0.004734  4.043353  0.006
C  C168  1  0.23545741  0.82956330  0.77687424  1  0.379452  0.015168  -0.023177  -0.064444  0.008726  4.040875  0.011
C  C169  1  0.20262522  0.74470434  0.74744650  1  0.961516  0.016101  0.115992  0.138629  0.010516  3.999748  0.014
C  C170  1  0.26862839  0.17516640  0.79504637  1  0.346214  0.014208  -0.01997  -0.0654  0.008116  4.03199  0.01
C  C171  1  0.15048892  0.18091988  0.76259362  1  0.313591  0.009338  -0.018094  -0.055514  0.005481  4.024976  0.007
C  C172  1  0.29598057  0.24896813  0.74774493  1  0.943838  0.016836  0.113993  0.128783  0.011097  3.999496  0.014
C  C173  1  0.76143718  0.16332077  0.87277231  1  0.301486  0.014299  -0.020339  -0.058809  0.008432  4.030682  0.01
C  C174  1  0.81120686  0.10986009  0.86644655  1  0.376569  0.012735  -0.019526  -0.056575  0.007514  4.037011  0.009
C  C175  1  0.62557507  0.11891554  0.81477602  1  0.9358  0.017399  0.111242  0.125387  0.011468  4.004009  0.015
C  C176  1  0.48211494  0.95332492  0.76500687  1  0.353995  0.016525  -0.021063  -0.058356  0.00945  4.025558  0.012
C  C177  1  0.36546794  0.95581154  0.73128988  1  0.340757  0.007611  -0.023992  -0.063739  0.004634  4.041761  0.006
C  C178  1  0.51533453  0.01937773  0.70831571  1  0.963001  0.016526  0.114066  0.132871  0.010723  4.005664  0.014
C  C179  1  0.81659375  0.93788871  0.87384022  1  0.340137  0.008689  -0.024265  -0.066385  0.005449  4.048722  0.007
C  C180  1  0.85855796  0.88399198  0.88083980  1  0.378401  0.011513  -0.023697  -0.061825  0.006765  4.038464  0.009
C  C181  1  0.87358589  0.90155201  0.79487495  1  0.942933  0.00883  0.110313  0.124417  0.006242  4.015178  0.008
C  C182  1  0.88704684  0.35344405  0.85226542  1  0.322545  0.014782  -0.019245  -0.053136  0.008631  4.019155  0.011
C  C183  1  0.98562913  0.32300190  0.88004244  1  0.296381  0.011002  -0.026279  -0.075934  0.006604  4.034455  0.008
C  C184  1  0.95253783  0.40128926  0.92434013  1  0.961095  0.016581  0.115669  0.129847  0.010861  3.998182  0.014
C  C185  1  0.31968049  0.49532611  0.02790216  1  0.31996  0.011133  -0.020859  -0.054419  0.006578  4.024615  0.008
C  C186  1  0.30015071  0.45178922  0.99135446  1  0.344456  0.012335  -0.0217  -0.060887  0.007118  4.026581  0.009
C  C187  1  0.19187318  0.43251971  0.06667424  1  0.94605  0.016601  0.112518  0.12512  0.010946  4.015259  0.015
C  C188  1  0.97961269  0.08582093  0.65746130  1  0.334187  0.014842  -0.017593  -0.046027  0.008636  4.005612  0.011
C  C189  1  0.86285505  0.08211848  0.69082900  1  0.282422  0.011332  -0.022171  -0.061991  0.006516  4.019998  0.009
C  C190  1  0.01919323  0.02151795  0.71565007  1  0.950384  0.018327  0.113308  0.130813  0.011872  4.016575  0.016
C  C191  1  0.94744202  0.26478822  0.02619298  1  0.367705  0.016346  -0.022944  -0.059852  0.009336  4.037906  0.012
C  C192  1  0.91383855  0.23685869  0.07228873  1  0.331705  0.006769  -0.021058  -0.060338  0.003951  4.036988  0.005
C  C193  1  0.11391414  0.28044253  0.08608582  1  0.955212  0.0167  0.115095  0.131388  0.010794  4.008382  0.014
C  C194  1  0.48424436  0.32441169  0.96708166  1  0.294561  0.017678  -0.016877  -0.056471  0.009962  4.021701  0.013
C  C195  1  0.57562156  0.30234982  0.92842144  1  0.366677  0.010185  -0.018009  -0.054244  0.006095  4.018223  0.008
C  C196  1  0.35824530  0.28729582  0.90149032  1  0.996596  0.022124  0.116393  0.133157  0.014078  4.005797  0.018
C  C197  1  0.84811176  0.68551793  0.75605129  1  0.341246  0.007851  -0.024639  -0.064577  0.004733  4.043428  0.006
C  C198  1  0.73545880  0.67043718  0.72312703  1  0.379465  0.015169  -0.02313  -0.064336  0.008726  4.040836  0.011
C  C199  1  0.70262674  0.75529572  0.75255397  1  0.961544  0.0161  0.115976  0.138626  0.010516  3.999709  0.014
C  C200  1  0.23137290  0.67516567  0.29504584  1  0.346059  0.014209  -0.019918  -0.065248  0.008116  4.031901  0.01
C  C201  1  0.34951359  0.68092003  0.26259303  1  0.313769  0.009338  -0.018203  -0.05578  0.005482  4.024983  0.007
C  C202  1  0.20402010  0.74896822  0.24774485  1  0.943741  0.016836  0.114014  0.128822  0.011097  3.999461  0.014
C  C203  1  0.73856353  0.66332046  0.37277219  1  0.30151  0.014299  -0.020335  -0.0588  0.008432  4.030591  0.01
C  C204  1  0.68879265  0.60985976  0.36644606  1  0.3766  0.012735  -0.019542  -0.056455  0.007514  4.036891  0.009
C  C205  1  0.87442472  0.61891570  0.31477541  1  0.935857  0.017399  0.111289  0.125509  0.011468  4.004019  0.015
C  C206  1  0.01788523  0.45332528  0.26500530  1  0.354364  0.016525  -0.02104  -0.058384  0.00945  4.025457  0.012
C  C207  1  0.13453133  0.45581320  0.23128988  1  0.340384  0.007609  -0.023982  -0.063647  0.004632  4.041809  0.006
C  C208  1  0.98466546  0.51937836  0.20831626  1  0.962955  0.016524  0.114077  0.132866  0.010722  4.005636  0.014
C  C209  1  0.68340781  0.43788955  0.37384179  1  0.340093  0.008689  -0.024239  -0.066353  0.005449  4.048862  0.007
C  C210  1  0.64144446  0.38399239  0.38084057  1  0.378416  0.011514  -0.023743  -0.061891  0.006766  4.038527  0.009
C  C211  1  0.62641593  0.40155242  0.29487655  1  0.942563  0.008834  0.110286  0.124427  0.006242  4.01511  0.008
C  C212  1  0.61295138  0.85344451  0.35226380  1  0.322424  0.014783  -0.019246  -0.053008  0.008631  4.019155  0.011
C  C213  1  0.51436779  0.82300190  0.38004127  1  0.296351  0.011003  -0.026268  -0.076013  0.006605  4.03453  0.008
C  C214  1  0.54746124  0.90128887  0.42433933  1  0.961123  0.016581  0.115669  0.129856  0.010862  3.998175  0.014
C  C215  1  0.18031988  0.99532562  0.52790191  1  0.319975  0.011134  -0.02087  -0.054453  0.006579  4.024644  0.008
C  C216  1  0.19984624  0.95178889  0.49135396  1  0.343991  0.012338  -0.021721  -0.060915  0.007118  4.026542  0.009
C  C217  1  0.30812681  0.93252051  0.56667516  1  0.946036  0.016602  0.112578  0.125221  0.010946  4.015266  0.015
C  C218  1  0.52038562  0.58582301  0.15746141  1  0.334171  0.014843  -0.01765  -0.046177  0.008637  4.005723  0.011
C  C219  1  0.63714416  0.58212019  0.19082902  1  0.282581  0.011331  -0.02217  -0.061934  0.006516  4.019988  0.009
C  C220  1  0.48080477  0.52151940  0.21564943  1  0.950171  0.018327  0.113252  0.130805  0.011872  4.016555  0.016
C  C221  1  0.55256066  0.76478808  0.52619365  1  0.367711  0.016346  -0.022998  -0.059909  0.009336  4.037965  0.012
C  C222  1  0.58616277  0.73686022  0.57228983  1  0.331723  0.006769  -0.021028  -0.06027  0.003951  4.037071  0.005
C  C223  1  0.38608741  0.78044337  0.58608548  1  0.955224  0.0167  0.115057  0.131341  0.010794  4.008361  0.014
C  C224  1  0.01575231  0.82441087  0.46708087  1  0.294519  0.017679  -0.016792  -0.056349  0.009962  4.021894  0.013
C  C225  1  0.92438144  0.80235001  0.42842162  1  0.3667  0.010184  -0.018015  -0.054269  0.006094  4.018392  0.008
C  C226  1  0.14175370  0.78729505  0.40148944  1  0.996246  0.022129  0.116355  0.133118  0.014078  4.005736  0.018
C  C227  1  0.65188852  0.18551794  0.25605083  1  0.341263  0.007852  -0.024619  -0.064564  0.004734  4.043368  0.006
C  C228  1  0.76454159  0.17043683  0.22312648  1  0.379453  0.015168  -0.023143  -0.064362  0.008726  4.040765  0.011
C  C229  1  0.79737483  0.25529537  0.25255380  1  0.961522  0.0161  0.115994  0.138617  0.010516  3.999806  0.014
C  C230  1  0.73137167  0.82483372  0.20495394  1  0.346271  0.014209  -0.019956  -0.065332  0.008117  4.03194  0.01
C  C231  1  0.84951326  0.81907983  0.23740709  1  0.313588  0.009338  -0.018187  -0.055719  0.005481  4.024968  0.007
C  C232  1  0.70401948  0.75103158  0.25225496  1  0.943727  0.016838  0.114015  0.128862  0.011098  3.999365  0.014
C  C233  1  0.23856500  0.83667936  0.12722720  1  0.30144  0.014298  -0.020355  -0.058789  0.008432  4.030615  0.01
C  C234  1  0.18879426  0.89013962  0.13355334  1  0.376619  0.012736  -0.019531  -0.056568  0.007515  4.036957  0.009
C  C235  1  0.37442605  0.88108417  0.18522388  1  0.935849  0.017399  0.111264  0.125464  0.011468  4.004074  0.015
C  C236  1  0.51788512  0.04667438  0.23499342  1  0.354027  0.016525  -0.021017  -0.058316  0.00945  4.025458  0.012
C  C237  1  0.63453212  0.04418776  0.26871000  1  0.340755  0.007611  -0.023979  -0.063731  0.004634  4.041733  0.006
C  C238  1  0.48466553  0.98062157  0.29168417  1  0.962947  0.016526  0.114034  0.132781  0.010723  4.005752  0.014
C  C239  1  0.18340737  0.06211018  0.12615965  1  0.339933  0.00869  -0.024291  -0.066381  0.005449  4.048667  0.007
C  C240  1  0.14144209  0.11600691  0.11916048  1  0.378427  0.011513  -0.023643  -0.061765  0.006765  4.038449  0.009
C  C241  1  0.12641416  0.09844687  0.20512532  1  0.942918  0.00883  0.110316  0.12441  0.006242  4.015211  0.008
C  C242  1  0.11295216  0.64655566  0.14773447  1  0.322558  0.014782  -0.019271  -0.05319  0.008631  4.019275  0.011
C  C243  1  0.01436986  0.67699781  0.11995746  1  0.295819  0.011004  -0.026289  -0.075902  0.006605  4.034503  0.008
C  C244  1  0.04746010  0.59871086  0.07565978  1  0.961121  0.016581  0.115709  0.129846  0.010862  3.99816  0.014
C  C245  1  0.68031957  0.50467360  0.97209774  1  0.319972  0.011132  -0.020863  -0.054418  0.006578  4.02462  0.008
C  C246  1  0.69984935  0.54821050  0.00864544  1  0.344449  0.012335  -0.021698  -0.06086  0.007118  4.026563  0.009
C  C247  1  0.80812688  0.56748000  0.93332566  1  0.946053  0.016601  0.112545  0.12518  0.010946  4.015188  0.015
C  C248  1  0.02038630  0.91417795  0.34253897  1  0.334158  0.014843  -0.01759  -0.046057  0.008637  4.005648  0.011
C  C249  1  0.13714395  0.91788041  0.30917087  1  0.282588  0.01133  -0.022187  -0.062028  0.006516  4.020043  0.009
C  C250  1  0.98080576  0.97848135  0.28435062  1  0.950398  0.018327  0.113272  0.130854  0.011872  4.016537  0.016
C  C251  1  0.05255803  0.73521067  0.97380648  1  0.367719  0.016347  -0.022983  -0.059949  0.009337  4.038081  0.012
C  C252  1  0.08616150  0.76314020  0.92771073  1  0.331717  0.00677  -0.021032  -0.060257  0.003951  4.036961  0.005
C  C253  1  0.88608592  0.71955677  0.91391406  1  0.955222  0.016702  0.115078  0.131368  0.010795  4.008373  0.014
C  C254  1  0.51575145  0.67558885  0.03291948  1  0.294732  0.017679  -0.016783  -0.056304  0.009962  4.021865  0.013
C  C255  1  0.42437956  0.69764989  0.07157805  1  0.36683  0.010185  -0.018047  -0.054314  0.006095  4.018407  0.008
C  C256  1  0.64175476  0.71270389  0.09851039  1  0.996269  0.022129  0.116387  0.133171  0.014078  4.005757  0.018
C  C257  1  0.15188936  0.31448178  0.24394901  1  0.341261  0.007852  -0.024617  -0.064525  0.004734  4.043377  0.006
C  C258  1  0.26454126  0.32956294  0.27687369  1  0.379452  0.015168  -0.023148  -0.064376  0.008726  4.040803  0.011
C  C259  1  0.29737544  0.24470399  0.24744633  1  0.96151  0.0161  0.115951  0.138559  0.010516  3.999774  0.014
N  N260  1  0.86085720  0.28161991  0.71467944  1  -1.228591  0.087217  -0.383153  -0.313493  0.043503  3.671077  0.055
N  N261  1  0.66838422  0.27204708  0.76724624  1  -1.249034  0.08969  -0.386958  -0.317263  0.045061  3.686995  0.054
N  N262  1  0.14402240  0.33116874  0.66039511  1  -1.233591  0.093379  -0.385951  -0.305256  0.046415  3.676164  0.059
N  N263  1  0.22438516  0.41816312  0.67028517  1  -1.232577  0.093384  -0.388757  -0.311671  0.046612  3.678324  0.056
N  N264  1  0.07686044  0.50616029  0.74992985  1  -1.217556  0.093069  -0.386871  -0.3085  0.046522  3.684002  0.058
N  N265  1  0.88700894  0.50206434  0.80443821  1  -1.257882  0.093691  -0.386815  -0.308433  0.046933  3.678488  0.06
N  N266  1  0.32650824  0.55113841  0.68077226  1  -1.250853  0.092513  -0.38696  -0.312504  0.046275  3.694942  0.056
N  N267  1  0.39462432  0.63892504  0.66945020  1  -1.238161  0.09216  -0.3848  -0.311447  0.046089  3.679934  0.057
N  N268  1  0.36630924  0.09706473  0.61928680  1  -1.259807  0.090773  -0.386909  -0.311479  0.045121  3.677466  0.056
N  N269  1  0.52732151  0.14627684  0.57431817  1  -1.229263  0.091748  -0.386674  -0.309294  0.045896  3.674806  0.058
N  N270  1  0.75084736  0.01712861  0.42443453  1  -1.248598  0.093564  -0.388508  -0.311858  0.046896  3.700871  0.056
N  N271  1  0.71915925  0.08797528  0.48375398  1  -1.236967  0.093785  -0.386337  -0.310402  0.046627  3.686429  0.059
N  N272  1  0.57850393  0.45266627  0.82649436  1  -1.230414  0.091115  -0.387441  -0.309474  0.045409  3.684122  0.053
N  N273  1  0.38835756  0.45901867  0.77249089  1  -1.219975  0.095011  -0.387644  -0.31398  0.047608  3.690565  0.059
N  N274  1  0.57457089  0.20761374  0.46484370  1  -1.255848  0.090364  -0.387636  -0.313004  0.045055  3.696007  0.052
N  N275  1  0.51980668  0.25298031  0.38985531  1  -1.231722  0.099147  -0.386335  -0.306413  0.049672  3.68913  0.062
N  N276  1  0.84637575  0.18533043  0.55032794  1  -1.22713  0.090249  -0.386754  -0.309661  0.044992  3.685403  0.053
N  N277  1  0.99477667  0.22114441  0.61310103  1  -1.255057  0.095589  -0.388462  -0.310548  0.047697  3.693131  0.057
N  N278  1  0.32688343  0.76052322  0.72554583  1  -1.25069  0.092915  -0.3858  -0.310962  0.046417  3.687143  0.058
N  N279  1  0.14315072  0.78518996  0.77878577  1  -1.250066  0.090965  -0.386272  -0.309089  0.045434  3.679371  0.055
N  N280  1  0.36085755  0.21837975  0.78532050  1  -1.228602  0.087214  -0.383133  -0.313477  0.043503  3.671146  0.055
N  N281  1  0.16838485  0.22795249  0.73275423  1  -1.24883  0.089677  -0.386998  -0.317308  0.045062  3.687028  0.054
N  N282  1  0.64402323  0.16883124  0.83960499  1  -1.233601  0.093379  -0.385944  -0.305212  0.046415  3.676137  0.059
N  N283  1  0.72438470  0.08183730  0.82971529  1  -1.232596  0.093382  -0.388764  -0.311671  0.046611  3.678363  0.056
N  N284  1  0.57685846  0.99383930  0.75006947  1  -1.217476  0.093061  -0.38685  -0.308585  0.046522  3.684127  0.058
N  N285  1  0.38700528  0.99793415  0.69556128  1  -1.257898  0.093691  -0.386737  -0.308333  0.046933  3.678342  0.06
N  N286  1  0.82651110  0.94886254  0.81922531  1  -1.250639  0.092511  -0.387009  -0.312421  0.046275  3.694946  0.056
N  N287  1  0.89462048  0.86107883  0.83054904  1  -1.239119  0.092172  -0.384765  -0.311324  0.046089  3.679881  0.057
N  N288  1  0.86630954  0.40293493  0.88071394  1  -1.259774  0.090773  -0.386906  -0.311471  0.045122  3.677515  0.056
N  N289  1  0.02732054  0.35372308  0.92568322  1  -1.229046  0.091751  -0.386668  -0.309241  0.045896  3.67478  0.058
N  N290  1  0.25085378  0.48287280  0.07556488  1  -1.248537  0.093559  -0.388439  -0.311714  0.046896  3.700802  0.056
N  N291  1  0.21916043  0.41202612  0.01624546  1  -1.237185  0.093787  -0.386269  -0.310295  0.046626  3.686547  0.059
N  N292  1  0.07850428  0.04733367  0.67350537  1  -1.230537  0.091124  -0.387442  -0.309461  0.045409  3.684037  0.053
N  N293  1  0.88835641  0.04098142  0.72750823  1  -1.219882  0.09501  -0.387655  -0.313947  0.047608  3.690698  0.059
N  N294  1  0.07457161  0.29238594  0.03515660  1  -1.255844  0.090363  -0.38761  -0.313  0.045054  3.696032  0.052
N  N295  1  0.01980689  0.24701894  0.11014461  1  -1.231726  0.099145  -0.386397  -0.306453  0.049672  3.689075  0.062
N  N296  1  0.34637561  0.31467005  0.94967243  1  -1.22717  0.090248  -0.386773  -0.309646  0.044991  3.685406  0.053
N  N297  1  0.49477672  0.27885614  0.88689965  1  -1.255026  0.095586  -0.388459  -0.310584  0.047697  3.693225  0.057
N  N298  1  0.82688585  0.73947607  0.77445494  1  -1.250719  0.092914  -0.38577  -0.310965  0.046416  3.687082  0.058
N  N299  1  0.64315226  0.71481049  0.72121516  1  -1.250043  0.090964  -0.386269  -0.309122  0.045433  3.679405  0.055
N  N300  1  0.13914285  0.71837939  0.28532045  1  -1.228591  0.087218  -0.383187  -0.313532  0.043503  3.671102  0.055
N  N301  1  0.33161477  0.72795263  0.23275406  1  -1.248848  0.089678  -0.386906  -0.317166  0.045061  3.686913  0.054
N  N302  1  0.85597659  0.66883139  0.33960440  1  -1.233601  0.093379  -0.385938  -0.305238  0.046415  3.676171  0.059
N  N303  1  0.77561490  0.58183701  0.32971434  1  -1.23264  0.093383  -0.388801  -0.311811  0.046613  3.678492  0.056
N  N304  1  0.92314068  0.49383860  0.25006880  1  -1.217484  0.093059  -0.386836  -0.308537  0.04652  3.684062  0.058
N  N305  1  0.11299430  0.49793455  0.19556248  1  -1.257922  0.093691  -0.386775  -0.308362  0.046933  3.678403  0.06
N  N306  1  0.67349076  0.44886338  0.31922689  1  -1.250285  0.092508  -0.387032  -0.312561  0.046277  3.695186  0.056
N  N307  1  0.60538211  0.36107840  0.33055021  1  -1.239048  0.09217  -0.384679  -0.311217  0.046088  3.679833  0.057
N  N308  1  0.63369082  0.90293581  0.38071353  1  -1.259803  0.090772  -0.386867  -0.311414  0.045121  3.677427  0.056
N  N309  1  0.47267748  0.85372288  0.42568214  1  -1.229272  0.091749  -0.386675  -0.309258  0.045897  3.674779  0.058
N  N310  1  0.24914526  0.98287234  0.57556459  1  -1.248553  0.093555  -0.388463  -0.311759  0.046895  3.700979  0.056
N  N311  1  0.28083762  0.91202526  0.51624473  1  -1.236772  0.093784  -0.386272  -0.310307  0.046627  3.686277  0.059
N  N312  1  0.42149400  0.54733427  0.17350475  1  -1.230504  0.091118  -0.387327  -0.309339  0.045409  3.684114  0.053
N  N313  1  0.61164143  0.54098270  0.22750825  1  -1.219988  0.095012  -0.387667  -0.314035  0.047608  3.690658  0.059
N  N314  1  0.42543023  0.79238556  0.53515618  1  -1.255893  0.090361  -0.387594  -0.312931  0.045053  3.695906  0.052
N  N315  1  0.48019550  0.74702023  0.61014542  1  -1.231737  0.099146  -0.386361  -0.306486  0.049672  3.689187  0.062
N  N316  1  0.15362537  0.81466970  0.44967237  1  -1.227104  0.09025  -0.386777  -0.309687  0.044993  3.685328  0.053
N  N317  1  0.00522232  0.77885613  0.38689889  1  -1.254703  0.095585  -0.388472  -0.310556  0.047697  3.693168  0.057
N  N318  1  0.67311557  0.23947691  0.27445449  1  -1.25069  0.092913  -0.385794  -0.310974  0.046416  3.687111  0.058
N  N319  1  0.85684934  0.21480976  0.22121453  1  -1.250056  0.090963  -0.386278  -0.309089  0.045432  3.679413  0.055
N  N320  1  0.63914251  0.78162038  0.21467941  1  -1.228608  0.087213  -0.383146  -0.313483  0.043502  3.671143  0.055
N  N321  1  0.83161627  0.77204723  0.26724607  1  -1.248837  0.089678  -0.386942  -0.317236  0.045061  3.686935  0.054
N  N322  1  0.35597788  0.83116889  0.16039452  1  -1.23362  0.09338  -0.385963  -0.305272  0.046416  3.67619  0.059
N  N323  1  0.27561642  0.91816241  0.17028501  1  -1.232618  0.093384  -0.388769  -0.31172  0.046612  3.678534  0.056
N  N324  1  0.42314159  0.00616000  0.24993041  1  -1.217491  0.093062  -0.386877  -0.308578  0.046523  3.684102  0.058
N  N325  1  0.61299478  0.00206515  0.30443820  1  -1.257903  0.093693  -0.386743  -0.308261  0.046933  3.678382  0.06
N  N326  1  0.17349002  0.05113635  0.18077496  1  -1.250499  0.092509  -0.387018  -0.312469  0.046276  3.694978  0.056
N  N327  1  0.10537957  0.13892088  0.16945127  1  -1.23904  0.092172  -0.384772  -0.311354  0.046089  3.679931  0.057
N  N328  1  0.13369052  0.59706437  0.11928594  1  -1.259775  0.090774  -0.386914  -0.311469  0.045122  3.67745  0.056
N  N329  1  0.97267739  0.64627622  0.07431706  1  -1.229066  0.091749  -0.386651  -0.30921  0.045895  3.674792  0.058
N  N330  1  0.74914627  0.51712691  0.92443542  1  -1.248553  0.093559  -0.388445  -0.311745  0.046896  3.700815  0.056
N  N331  1  0.78083856  0.58797359  0.98375444  1  -1.237185  0.093788  -0.386254  -0.3103  0.046627  3.686521  0.059
N  N332  1  0.92149684  0.95266604  0.32649534  1  -1.23048  0.091118  -0.387375  -0.309339  0.045407  3.684087  0.053
N  N333  1  0.11164365  0.95901788  0.27249206  1  -1.220017  0.095012  -0.387654  -0.314028  0.047609  3.690681  0.059
N  N334  1  0.92542845  0.70761336  0.96484329  1  -1.255869  0.090362  -0.387574  -0.312905  0.045053  3.695983  0.052
N  N335  1  0.98019316  0.75298077  0.88985529  1  -1.231596  0.099137  -0.386411  -0.306477  0.049673  3.689092  0.062
N  N336  1  0.65362551  0.68532966  0.05032787  1  -1.227125  0.09025  -0.386763  -0.309666  0.044993  3.685391  0.053
N  N337  1  0.50522334  0.72114440  0.11310149  1  -1.254675  0.095587  -0.388489  -0.310615  0.047699  3.693211  0.057
N  N338  1  0.17311633  0.26052282  0.22554534  1  -1.250686  0.092912  -0.3858  -0.310979  0.046416  3.687107  0.058
N  N339  1  0.35684992  0.28519005  0.27878557  1  -1.250091  0.090965  -0.386285  -0.309114  0.045433  3.679363  0.055
