# generated using pymatgen
data_ZnH8C11N(ClO2)2
_symmetry_space_group_name_H-M   'P 1'
_cell_length_a   21.99144424
_cell_length_b   21.99141581
_cell_length_c   24.65412374
_cell_angle_alpha   63.51215722
_cell_angle_beta   63.51206160
_cell_angle_gamma   89.99715257
_symmetry_Int_Tables_number   1
_chemical_formula_structural   ZnH8C11N(ClO2)2
_chemical_formula_sum   'Zn16 H128 C176 N16 Cl32 O64'
_cell_volume   9252.45342569
_cell_formula_units_Z   16
loop_
 _symmetry_equiv_pos_site_id
 _symmetry_equiv_pos_as_xyz
  1  'x, y, z'
loop_
 _atom_site_type_symbol
 _atom_site_label
 _atom_site_symmetry_multiplicity
 _atom_site_fract_x
 _atom_site_fract_y
 _atom_site_fract_z
 _atom_site_occupancy
 _atom_site_pbe_bader_charge
 _atom_site_pbe_bader_spin_density
 _atom_site_pbe_cm5_charge
 _atom_site_pbe_ddec_charge
 _atom_site_pbe_ddec_spin_density
 _atom_site_pbe_ddec_sum_bond_order
 _atom_site_pbe_magmom
Zn  Zn0  1  0.02322301  0.02715151  0.42558112  1  1.277435  0  0.67628  0.825148  0  2.349082  0
Zn  Zn1  1  0.55118052  0.54726326  0.42560997  1  1.27823  0  0.676135  0.824269  0  2.349068  0
Zn  Zn2  1  0.27717562  0.30114734  0.92562371  1  1.278188  0  0.676101  0.824007  0  2.348651  0
Zn  Zn3  1  0.79725153  0.77320180  0.92561255  1  1.2759  0  0.676179  0.82436  0  2.349209  0
Zn  Zn4  1  0.72679539  0.70274549  0.07438937  1  1.27858  0  0.676206  0.824424  0  2.349158  0
Zn  Zn5  1  0.19885380  0.22282730  0.07437565  1  1.276489  0  0.676108  0.824109  0  2.348764  0
Zn  Zn6  1  0.47284924  0.47677962  0.57441904  1  1.277368  0  0.676281  0.825189  0  2.349002  0
Zn  Zn7  1  0.95273461  0.94881981  0.57439235  1  1.278215  0  0.676151  0.824356  0  2.349044  0
Zn  Zn8  1  0.22676727  0.72282495  0.07438672  1  1.277292  0  0.676156  0.824809  0  2.349045  0
Zn  Zn9  1  0.69886655  0.20273809  0.07439867  1  1.278757  0  0.676171  0.82452  0  2.349156  0
Zn  Zn10  1  0.97284399  0.44878955  0.57440499  1  1.276291  0  0.676311  0.824443  0  2.348451  0
Zn  Zn11  1  0.45273766  0.97681303  0.57439583  1  1.275677  0  0.676161  0.82433  0  2.34971  0
Zn  Zn12  1  0.52318939  0.04726626  0.42560088  1  1.278499  0  0.676231  0.824426  0  2.349508  0
Zn  Zn13  1  0.05120980  0.52715501  0.42559523  1  1.277862  0  0.676381  0.824471  0  2.348341  0
Zn  Zn14  1  0.77717598  0.27323239  0.92561395  1  1.277228  0  0.676097  0.824753  0  2.349125  0
Zn  Zn15  1  0.29726363  0.80113456  0.92560169  1  1.278744  0  0.676118  0.82446  0  2.349327  0
H  H16  1  0.21737655  0.21050443  0.19274941  1  0.07842  0  0.105315  0.097439  0  0.996544  0
H  H17  1  0.14754821  0.25111547  0.19475915  1  0.08748  0  0.103724  0.09473  0  1.006752  0
H  H18  1  0.15164959  0.06810142  0.18157419  1  0.056634  0  0.110436  0.099217  0  0.98052  0
H  H19  1  0.22098767  0.10688838  0.18339862  1  0.074544  0  0.11303  0.106114  0  0.971673  0
H  H20  1  0.35336093  0.01808506  0.40129838  1  0.093926  0  0.109152  0.124728  0  1.001925  0
H  H21  1  0.01646410  0.72112266  0.40263458  1  0.098236  0  0.108624  0.124764  0  1.000463  0
H  H22  1  0.05295426  0.19836295  0.19159610  1  0.081379  0  0.114642  0.105475  0  0.961709  0
H  H23  1  0.05594004  0.12134911  0.18507147  1  0.058557  0  0.114374  0.10059  0  0.962675  0
H  H24  1  0.58988632  0.59676449  0.19276982  1  0.069472  0  0.10577  0.097489  0  0.997694  0
H  H25  1  0.65768139  0.55412202  0.19481598  1  0.092096  0  0.103587  0.094557  0  1.006921  0
H  H26  1  0.66679596  0.75034756  0.18157582  1  0.05466  0  0.110401  0.099015  0  0.981662  0
H  H27  1  0.59561782  0.70972046  0.18343089  1  0.086477  0  0.113083  0.106873  0  0.969543  0
H  H28  1  0.24531460  0.58060033  0.40129733  1  0.132391  0  0.10942  0.124741  0  1.001415  0
H  H29  1  0.58083257  0.87624726  0.40264890  1  0.105746  0  0.109022  0.125617  0  0.999373  0
H  H30  1  0.75547401  0.61007874  0.19158522  1  0.086564  0  0.115047  0.105873  0  0.96152  0
H  H31  1  0.75899126  0.69359885  0.18508908  1  0.054125  0  0.114628  0.101268  0  0.962753  0
H  H32  1  0.46043775  0.33981161  0.69281175  1  0.070934  0  0.105383  0.097254  0  0.996941  0
H  H33  1  0.50103849  0.40761423  0.69483713  1  0.086649  0  0.103848  0.095073  0  1.006352  0
H  H34  1  0.31804198  0.41679192  0.68163374  1  0.064539  0  0.11059  0.09945  0  0.980674  0
H  H35  1  0.35677462  0.34559048  0.68347793  1  0.082972  0  0.113054  0.106463  0  0.970895  0
H  H36  1  0.26820685  0.99531290  0.90118591  1  0.087351  0  0.109561  0.124913  0  1.001906  0
H  H37  1  0.97116431  0.33092172  0.90262798  1  0.072799  0  0.10881  0.125086  0  0.999514  0
H  H38  1  0.44835822  0.50543910  0.69156582  1  0.098353  0  0.114717  0.105395  0  0.961958  0
H  H39  1  0.37135117  0.50897185  0.68503615  1  0.056358  0  0.114431  0.101077  0  0.962282  0
H  H40  1  0.84670242  0.96734150  0.69279696  1  0.07849  0  0.105605  0.097686  0  0.996736  0
H  H41  1  0.80410235  0.89749240  0.69482580  1  0.074552  0  0.103819  0.095038  0  1.007266  0
H  H42  1  0.00032502  0.90165324  0.68158224  1  0.059613  0  0.110456  0.099156  0  0.981051  0
H  H43  1  0.95967563  0.97097319  0.68346250  1  0.067445  0  0.112878  0.106311  0  0.971157  0
H  H44  1  0.83060973  0.10340931  0.90118244  1  0.066768  0  0.109173  0.124395  0  1.001667  0
H  H45  1  0.12626302  0.76651377  0.90257423  1  0.107549  0  0.10876  0.125168  0  1.000383  0
H  H46  1  0.86010815  0.80297468  0.69154935  1  0.07149  0  0.114857  0.105578  0  0.961798  0
H  H47  1  0.94363969  0.80597707  0.68503967  1  0.076183  0  0.11427  0.100536  0  0.962416  0
H  H48  1  0.53265874  0.65329654  0.30720134  1  0.078491  0  0.1056  0.097707  0  0.996695  0
H  H49  1  0.60250551  0.69589510  0.30517624  1  0.074539  0  0.103827  0.095027  0  1.007324  0
H  H50  1  0.59834761  0.49967523  0.31841745  1  0.059603  0  0.110459  0.099167  0  0.981056  0
H  H51  1  0.52902727  0.54032297  0.31653955  1  0.067412  0  0.112882  0.106328  0  0.971172  0
H  H52  1  0.39658963  0.66939008  0.09882010  1  0.067459  0  0.109152  0.124344  0  1.001699  0
H  H53  1  0.73348377  0.37373632  0.09742638  1  0.107535  0  0.108739  0.125101  0  1.00045  0
H  H54  1  0.69702456  0.63989386  0.30844944  1  0.071461  0  0.114872  0.105571  0  0.961721  0
H  H55  1  0.69402231  0.55636029  0.31496389  1  0.076165  0  0.114251  0.100463  0  0.962452  0
H  H56  1  0.16018954  0.03956223  0.30718422  1  0.071014  0  0.105404  0.097328  0  0.996974  0
H  H57  1  0.09238635  0.99896143  0.30515930  1  0.086758  0  0.103872  0.09514  0  1.006341  0
H  H58  1  0.08320766  0.18195892  0.31836595  1  0.06453  0  0.110591  0.099456  0  0.980633  0
H  H59  1  0.15441079  0.14322601  0.31651955  1  0.082953  0  0.113052  0.106432  0  0.970905  0
H  H60  1  0.50468658  0.23179569  0.09881318  1  0.087292  0  0.109539  0.124853  0  1.001922  0
H  H61  1  0.16907794  0.52883642  0.09737095  1  0.072814  0  0.108804  0.125107  0  0.999464  0
H  H62  1  0.99455806  0.05164397  0.30843417  1  0.098398  0  0.114731  0.105356  0  0.961944  0
H  H63  1  0.99103024  0.12865268  0.31496135  1  0.056379  0  0.114433  0.101053  0  0.962281  0
H  H64  1  0.28949682  0.28262324  0.80724776  1  0.078389  0  0.105332  0.097473  0  0.996549  0
H  H65  1  0.24888690  0.35245094  0.80523866  1  0.087576  0  0.103747  0.094731  0  1.006699  0
H  H66  1  0.43189929  0.34834888  0.81842266  1  0.05673  0  0.110461  0.099279  0  0.980573  0
H  H67  1  0.39311209  0.27901323  0.81659645  1  0.074395  0  0.113009  0.106104  0  0.971691  0
H  H68  1  0.48191345  0.14664008  0.59869995  1  0.094042  0  0.10918  0.124778  0  1.0019  0
H  H69  1  0.77887835  0.48353576  0.59736432  1  0.098115  0  0.108643  0.124792  0  1.000443  0
H  H70  1  0.30163739  0.44704343  0.80840107  1  0.081389  0  0.114621  0.105392  0  0.961745  0
H  H71  1  0.37864894  0.44405958  0.81492746  1  0.058453  0  0.114404  0.100631  0  0.9627  0
H  H72  1  0.90323744  0.91011145  0.80723299  1  0.069523  0  0.105785  0.097547  0  0.997636  0
H  H73  1  0.94587747  0.84231461  0.80518519  1  0.09205  0  0.103569  0.094558  0  1.006962  0
H  H74  1  0.74964977  0.83320972  0.81842752  1  0.054614  0  0.110365  0.098947  0  0.981664  0
H  H75  1  0.79028417  0.90438778  0.81656773  1  0.086341  0  0.113112  0.106953  0  0.969518  0
H  H76  1  0.91939893  0.25468504  0.59870174  1  0.132276  0  0.109425  0.124715  0  1.001458  0
H  H77  1  0.62375177  0.91916844  0.59735093  1  0.105795  0  0.109038  0.125668  0  0.999329  0
H  H78  1  0.88991246  0.74452109  0.80842024  1  0.086725  0  0.115065  0.105843  0  0.96167  0
H  H79  1  0.80639347  0.74101106  0.81491213  1  0.053991  0  0.114578  0.101224  0  0.962672  0
H  H80  1  0.03264103  0.53952801  0.30720092  1  0.078833  0  0.105372  0.097461  0  0.996367  0
H  H81  1  0.10249440  0.49894944  0.30518529  1  0.08756  0  0.103887  0.094832  0  1.006792  0
H  H82  1  0.09837629  0.68196137  0.31837239  1  0.055852  0  0.110503  0.099267  0  0.980314  0
H  H83  1  0.02903766  0.64320238  0.31652500  1  0.074195  0  0.112997  0.106164  0  0.971731  0
H  H84  1  0.89662230  0.73182826  0.09877749  1  0.093523  0  0.10938  0.124958  0  1.002266  0
H  H85  1  0.23352847  0.02885683  0.09731702  1  0.097333  0  0.108826  0.125127  0  0.999995  0
H  H86  1  0.19701015  0.55166820  0.30846144  1  0.082297  0  0.114759  0.10569  0  0.961696  0
H  H87  1  0.19401290  0.62871059  0.31493513  1  0.058695  0  0.114374  0.100519  0  0.962551  0
H  H88  1  0.66016118  0.15322949  0.30721570  1  0.069272  0  0.105686  0.097176  0  0.997918  0
H  H89  1  0.59235211  0.19585747  0.30520734  1  0.092258  0  0.103669  0.094504  0  1.006886  0
H  H90  1  0.58317540  0.99966697  0.31838247  1  0.055202  0  0.110423  0.099138  0  0.981578  0
H  H91  1  0.65437200  0.04022669  0.31655499  1  0.086698  0  0.113098  0.106969  0  0.969607  0
H  H92  1  0.00466954  0.16939877  0.09879150  1  0.130688  0  0.109598  0.125045  0  1.001313  0
H  H93  1  0.66911260  0.87376954  0.09738404  1  0.105575  0  0.109047  0.125612  0  0.999629  0
H  H94  1  0.49457284  0.13997559  0.30842583  1  0.085605  0  0.115101  0.105871  0  0.961428  0
H  H95  1  0.49100207  0.05645056  0.31493008  1  0.055237  0  0.114727  0.101415  0  0.962832  0
H  H96  1  0.78951929  0.41012799  0.80724793  1  0.071435  0  0.10552  0.09736  0  0.997048  0
H  H97  1  0.74891704  0.34232392  0.80522192  1  0.086917  0  0.103768  0.094831  0  1.006717  0
H  H98  1  0.93191538  0.33320658  0.81842448  1  0.064545  0  0.110581  0.099392  0  0.98071  0
H  H99  1  0.89314762  0.40438175  0.81658202  1  0.086566  0  0.112935  0.106296  0  0.970851  0
H  H100  1  0.98188976  0.75469186  0.59872619  1  0.08538  0  0.109426  0.124928  0  1.001753  0
H  H101  1  0.27884740  0.41903962  0.59742505  1  0.071554  0  0.108777  0.125002  0  1.000014  0
H  H102  1  0.80165341  0.24453061  0.80843450  1  0.098326  0  0.114673  0.105327  0  0.961824  0
H  H103  1  0.87868713  0.24102690  0.81491222  1  0.056677  0  0.114479  0.1011  0  0.962355  0
H  H104  1  0.40326943  0.78265368  0.80720859  1  0.078853  0  0.105624  0.097828  0  0.9967  0
H  H105  1  0.44585901  0.85247899  0.80522060  1  0.074322  0  0.103903  0.095178  0  1.007315  0
H  H106  1  0.24967662  0.84840008  0.81838353  1  0.058701  0  0.110461  0.099231  0  0.981153  0
H  H107  1  0.29026217  0.77902835  0.81657193  1  0.067524  0  0.112804  0.106228  0  0.971431  0
H  H108  1  0.41936089  0.64658883  0.59878603  1  0.066589  0  0.10917  0.124436  0  1.001725  0
H  H109  1  0.12372092  0.98359692  0.59739477  1  0.108304  0  0.108793  0.125139  0  1.0006  0
H  H110  1  0.38989157  0.94704835  0.80841071  1  0.072259  0  0.114935  0.105787  0  0.961878  0
H  H111  1  0.30634771  0.94402840  0.81495444  1  0.075783  0  0.114345  0.100713  0  0.962468  0
H  H112  1  0.71734629  0.09672719  0.19279157  1  0.07881  0  0.105648  0.097847  0  0.996646  0
H  H113  1  0.64751959  0.05414019  0.19477971  1  0.074337  0  0.103886  0.095122  0  1.007329  0
H  H114  1  0.65160884  0.25032412  0.18161323  1  0.059153  0  0.110468  0.09928  0  0.98103  0
H  H115  1  0.72097673  0.20973264  0.18342857  1  0.067302  0  0.112875  0.106347  0  0.97141  0
H  H116  1  0.85341192  0.08063873  0.40121247  1  0.066574  0  0.109178  0.124446  0  1.001711  0
H  H117  1  0.51640468  0.37628080  0.40260377  1  0.108294  0  0.108782  0.125102  0  1.000482  0
H  H118  1  0.55295349  0.11010892  0.19158885  1  0.072384  0  0.114952  0.105793  0  0.961877  0
H  H119  1  0.55597437  0.19365457  0.18504272  1  0.075781  0  0.114407  0.100745  0  0.962358  0
H  H120  1  0.08987046  0.71047925  0.19275382  1  0.071596  0  0.105509  0.097345  0  0.997059  0
H  H121  1  0.15767607  0.75108215  0.19477752  1  0.086886  0  0.103792  0.094866  0  1.006705  0
H  H122  1  0.16678870  0.56808101  0.18157892  1  0.064573  0  0.110598  0.099384  0  0.980727  0
H  H123  1  0.09561374  0.60684868  0.18342292  1  0.086794  0  0.112962  0.106322  0  0.970778  0
H  H124  1  0.74530668  0.51810709  0.40127543  1  0.085483  0  0.109424  0.124915  0  1.001782  0
H  H125  1  0.08096118  0.22115198  0.40257429  1  0.071533  0  0.108824  0.125033  0  1.000032  0
H  H126  1  0.25547085  0.69834390  0.19156279  1  0.098331  0  0.114692  0.105336  0  0.961821  0
H  H127  1  0.25896984  0.62130770  0.18508864  1  0.056638  0  0.114436  0.101054  0  0.962354  0
H  H128  1  0.96046969  0.46735673  0.69280386  1  0.078851  0  0.105372  0.097483  0  0.996405  0
H  H129  1  0.00104830  0.39750414  0.69481851  1  0.087334  0  0.103878  0.094808  0  1.006815  0
H  H130  1  0.81803924  0.40162424  0.68162797  1  0.055889  0  0.110516  0.099314  0  0.980302  0
H  H131  1  0.85679750  0.47096189  0.68347693  1  0.074265  0  0.113001  0.106187  0  0.971778  0
H  H132  1  0.76817551  0.60337761  0.90121981  1  0.093403  0  0.109379  0.124941  0  1.002236  0
H  H133  1  0.47114230  0.26647041  0.90268457  1  0.097276  0  0.108791  0.125061  0  0.999995  0
H  H134  1  0.94833183  0.30298983  0.69154092  1  0.082294  0  0.114747  0.105685  0  0.961685  0
H  H135  1  0.87129255  0.30598719  0.68506203  1  0.058656  0  0.114345  0.100473  0  0.962603  0
H  H136  1  0.34676985  0.83983909  0.69278547  1  0.069253  0  0.105694  0.097166  0  0.99786  0
H  H137  1  0.30414360  0.90765037  0.69479023  1  0.092339  0  0.103649  0.09445  0  1.006926  0
H  H138  1  0.50033383  0.91682451  0.68161713  1  0.055227  0  0.110393  0.099093  0  0.981594  0
H  H139  1  0.45977263  0.84562845  0.68344451  1  0.086692  0  0.113101  0.106971  0  0.969586  0
H  H140  1  0.33060357  0.49532966  0.90120998  1  0.130732  0  0.1096  0.125081  0  1.001278  0
H  H141  1  0.62623045  0.83088660  0.90261582  1  0.105601  0  0.109047  0.125623  0  0.99955  0
H  H142  1  0.36002956  0.00543090  0.69157162  1  0.085767  0  0.115088  0.105845  0  0.961537  0
H  H143  1  0.44355376  0.00899797  0.68506854  1  0.055197  0  0.114686  0.101379  0  0.962814  0
C  C144  1  0.00371790  0.67149271  0.50549798  1  0.034047  0  -0.010821  -0.058398  0  3.929935  0
C  C145  1  0.99496157  0.80431135  0.49582066  1  0.029968  0  -0.012294  -0.060872  0  3.92337  0
C  C146  1  0.99121944  0.87268659  0.49560020  1  1.610338  0  0.217023  0.606608  0  4.167665  0
C  C147  1  0.00779299  0.60311539  0.50582011  1  1.606744  0  0.216289  0.606234  0  4.169105  0
C  C148  1  0.16045426  0.20025769  0.21379815  1  0.228956  0  -0.071855  -0.089953  0  3.800703  0
C  C149  1  0.16391429  0.09447221  0.20548476  1  0.247768  0  -0.068783  -0.089519  0  3.803119  0
C  C150  1  0.30267401  0.01058937  0.44434107  1  0.021058  0  -0.086396  -0.151707  0  3.961392  0
C  C151  1  0.00912700  0.72869007  0.44568677  1  0.026101  0  -0.086994  -0.15487  0  3.96192  0
C  C152  1  0.00468948  0.79410259  0.44038813  1  0.073567  0  0.020175  0.134768  0  4.019079  0
C  C153  1  0.24260198  0.00631405  0.43900663  1  0.040928  0  0.01695  0.128966  0  4.026054  0
C  C154  1  0.06661700  0.14779916  0.20969560  1  0.224324  0  -0.065815  -0.087088  0  3.821654  0
C  C155  1  0.49073349  0.82302111  0.50550265  1  0.040417  0  -0.010992  -0.058948  0  3.929994  0
C  C156  1  0.50916950  0.69986791  0.49584673  1  0.059038  0  -0.011518  -0.059524  0  3.922984  0
C  C157  1  0.51315545  0.63170060  0.49566874  1  1.62916  0  0.217465  0.607138  0  4.166454  0
C  C158  1  0.48639825  0.89109880  0.50578690  1  1.591806  0  0.216889  0.608589  0  4.165624  0
C  C159  1  0.62575502  0.58596441  0.21383225  1  0.224709  0  -0.072358  -0.090179  0  3.803109  0
C  C160  1  0.63060984  0.70006850  0.20550453  1  0.232674  0  -0.068399  -0.089258  0  3.801831  0
C  C161  1  0.25296957  0.54507676  0.44434631  1  -0.026106  0  -0.086198  -0.150735  0  3.959748  0
C  C162  1  0.54511914  0.82562816  0.44569477  1  0.08272  0  -0.087063  -0.156202  0  3.963063  0
C  C163  1  0.55486323  0.76550397  0.44042044  1  -0.008681  0  0.019436  0.134956  0  4.018988  0
C  C164  1  0.31836802  0.55470401  0.43902515  1  0.030954  0  0.016521  0.128452  0  4.029439  0
C  C165  1  0.72369055  0.64252460  0.20970851  1  0.249909  0  -0.066877  -0.088686  0  3.823629  0
C  C166  1  0.92154766  0.24079904  0.00548069  1  0.041871  0  -0.010063  -0.057299  0  3.929135  0
C  C167  1  0.05430541  0.25923928  0.99589106  1  0.024816  0  -0.011903  -0.059111  0  3.921834  0
C  C168  1  0.12263993  0.26315788  0.99569774  1  1.604241  0  0.216162  0.605269  0  4.16787  0
C  C169  1  0.85320213  0.23645037  0.00576130  1  1.598095  0  0.217813  0.608556  0  4.167561  0
C  C170  1  0.45017673  0.37568679  0.71386545  1  0.234008  0  -0.072131  -0.089508  0  3.801439  0
C  C171  1  0.34440222  0.38059332  0.70553736  1  0.226519  0  -0.068512  -0.089022  0  3.801406  0
C  C172  1  0.26069065  0.00298617  0.94421731  1  0.038748  0  -0.086777  -0.152162  0  3.959968  0
C  C173  1  0.97873268  0.29521701  0.94569589  1  0.050134  0  -0.087342  -0.156247  0  3.961127  0
C  C174  1  0.04413349  0.30495805  0.94044636  1  0.030924  0  0.020064  0.13509  0  4.017399  0
C  C175  1  0.25633304  0.06836885  0.93891769  1  0.048276  0  0.016526  0.129337  0  4.026433  0
C  C176  1  0.39778572  0.47366824  0.70968951  1  0.234311  0  -0.06673  -0.087689  0  3.823555  0
C  C177  1  0.07304067  0.75376219  0.00544370  1  0.048067  0  -0.010867  -0.057353  0  3.927978  0
C  C178  1  0.94985733  0.74488586  0.99588163  1  0.070759  0  -0.011465  -0.058375  0  3.922088  0
C  C179  1  0.88167991  0.74110229  0.99574164  1  1.608904  0  0.216744  0.606115  0  4.167337  0
C  C180  1  0.14109265  0.75780426  0.00576387  1  1.597896  0  0.21665  0.606775  0  4.167624  0
C  C181  1  0.83593680  0.91041914  0.71384005  1  0.244367  0  -0.072225  -0.090361  0  3.803559  0
C  C182  1  0.95005316  0.91391655  0.70550468  1  0.240847  0  -0.068095  -0.088319  0  3.801052  0
C  C183  1  0.79507913  0.05271923  0.94426095  1  0.062241  0  -0.086158  -0.150498  0  3.95968  0
C  C184  1  0.07564708  0.75918510  0.94563174  1  0.062957  0  -0.08686  -0.156195  0  3.962549  0
C  C185  1  0.01547306  0.75463545  0.94044030  1  -0.006986  0  0.019699  0.134752  0  4.018415  0
C  C186  1  0.80470144  0.99264200  0.93893591  1  0.013805  0  0.016948  0.128762  0  4.025957  0
C  C187  1  0.89254543  0.81661380  0.70968770  1  0.213054  0  -0.066019  -0.086939  0  3.820747  0
C  C188  1  0.74623882  0.42695964  0.99455488  1  0.047997  0  -0.010859  -0.057397  0  3.927916  0
C  C189  1  0.75511675  0.55014191  0.00411645  1  0.070883  0  -0.011499  -0.058281  0  3.921897  0
C  C190  1  0.75889932  0.61832175  0.00425480  1  1.609103  0  0.216626  0.605879  0  4.16725  0
C  C191  1  0.74219484  0.35890391  0.99423860  1  1.597926  0  0.21659  0.606726  0  4.167558  0
C  C192  1  0.58958175  0.66406217  0.28615903  1  0.244306  0  -0.072222  -0.090448  0  3.80364  0
C  C193  1  0.58608384  0.54994688  0.29449540  1  0.240874  0  -0.068123  -0.088431  0  3.801199  0
C  C194  1  0.44727894  0.70492163  0.05574107  1  0.061455  0  -0.086161  -0.150494  0  3.959683  0
C  C195  1  0.74081430  0.42435137  0.05436870  1  0.062916  0  -0.086758  -0.155978  0  3.962593  0
C  C196  1  0.74536395  0.48452545  0.05955979  1  -0.006961  0  0.01959  0.134504  0  4.018727  0
C  C197  1  0.50735472  0.69529895  0.06106829  1  0.014789  0  0.016917  0.128706  0  4.025847  0
C  C198  1  0.68338581  0.60745370  0.29031267  1  0.213073  0  -0.065984  -0.086723  0  3.820555  0
C  C199  1  0.25920163  0.57845161  0.99451945  1  0.041844  0  -0.010057  -0.057295  0  3.929077  0
C  C200  1  0.24076422  0.44569340  0.00411014  1  0.02513  0  -0.011893  -0.059093  0  3.921827  0
C  C201  1  0.23684572  0.37736191  0.00430132  1  1.60427  0  0.21611  0.605294  0  4.168155  0
C  C202  1  0.26355063  0.64679620  0.99424074  1  1.597967  0  0.217785  0.608531  0  4.167405  0
C  C203  1  0.12431390  0.04982392  0.28613081  1  0.233829  0  -0.072248  -0.08987  0  3.801769  0
C  C204  1  0.11940731  0.15559872  0.29446079  1  0.226714  0  -0.06856  -0.08907  0  3.801304  0
C  C205  1  0.49701266  0.23930991  0.05578433  1  0.038719  0  -0.086708  -0.15198  0  3.959696  0
C  C206  1  0.20478435  0.52126708  0.05430340  1  0.050128  0  -0.087419  -0.15641  0  3.961188  0
C  C207  1  0.19504541  0.45586638  0.05955293  1  0.030911  0  0.020131  0.135141  0  4.017467  0
C  C208  1  0.43163016  0.24366761  0.06108345  1  0.048487  0  0.016507  0.129265  0  4.02648  0
C  C209  1  0.02633105  0.10221582  0.29030888  1  0.23446  0  -0.066744  -0.087581  0  3.823417  0
C  C210  1  0.82850769  0.49628084  0.49450221  1  0.034044  0  -0.010865  -0.05844  0  3.929832  0
C  C211  1  0.69568628  0.50503408  0.50418184  1  0.030304  0  -0.01241  -0.060961  0  3.92348  0
C  C212  1  0.62731233  0.50877394  0.50440392  1  1.61002  0  0.217172  0.606749  0  4.167554  0
C  C213  1  0.89688724  0.49221090  0.49417271  1  1.607177  0  0.216266  0.606181  0  4.169532  0
C  C214  1  0.29974504  0.33954539  0.78619910  1  0.229025  0  -0.071877  -0.089989  0  3.800921  0
C  C215  1  0.40552873  0.33608532  0.79451125  1  0.248217  0  -0.068835  -0.089727  0  3.803374  0
C  C216  1  0.48940999  0.19732822  0.55565756  1  0.021111  0  -0.086373  -0.151685  0  3.961385  0
C  C217  1  0.77130971  0.49087344  0.55431182  1  0.026297  0  -0.086981  -0.154861  0  3.961952  0
C  C218  1  0.70589854  0.49530986  0.55961106  1  0.073476  0  0.020218  0.134848  0  4.01907  0
C  C219  1  0.49368655  0.25739839  0.56099251  1  0.040787  0  0.016924  0.128929  0  4.02601  0
C  C220  1  0.35220184  0.43338176  0.79030208  1  0.224549  0  -0.065784  -0.086997  0  3.821714  0
C  C221  1  0.67697847  0.00926812  0.49449593  1  0.011938  0  -0.011019  -0.058946  0  3.929916  0
C  C222  1  0.80013227  0.99083162  0.50415319  1  0.059076  0  -0.011507  -0.059566  0  3.923187  0
C  C223  1  0.86829450  0.98684597  0.50433299  1  1.628475  0  0.217362  0.607012  0  4.166539  0
C  C224  1  0.60890180  0.01360485  0.49420949  1  1.59176  0  0.216921  0.608661  0  4.165617  0
C  C225  1  0.91403587  0.87424375  0.78616857  1  0.224717  0  -0.072429  -0.09037  0  3.803026  0
C  C226  1  0.79993166  0.86939357  0.79449594  1  0.232755  0  -0.068397  -0.089339  0  3.801718  0
C  C227  1  0.95492144  0.24703113  0.55565315  1  -0.025375  0  -0.086165  -0.150583  0  3.959666  0
C  C228  1  0.67437197  0.95488408  0.55430375  1  0.110912  0  -0.087033  -0.15627  0  3.963063  0
C  C229  1  0.73449579  0.94513846  0.55957956  1  -0.008534  0  0.019455  0.13503  0  4.018932  0
C  C230  1  0.94529504  0.18163191  0.56097442  1  0.03091  0  0.01648  0.128338  0  4.029381  0
C  C231  1  0.85747166  0.77630872  0.79029306  1  0.249743  0  -0.066857  -0.088534  0  3.823608  0
C  C232  1  0.24626509  0.07845874  0.99447433  1  0.036966  0  -0.01089  -0.058  0  3.930072  0
C  C233  1  0.25520221  0.94571665  0.00405765  1  0.026662  0  -0.012183  -0.059024  0  3.922016  0
C  C234  1  0.25893722  0.87736501  0.00425324  1  1.614585  0  0.216332  0.604973  0  4.168548  0
C  C235  1  0.24219878  0.14681878  0.99419282  1  1.60779  0  0.216661  0.607016  0  4.168494  0
C  C236  1  0.08956449  0.54979608  0.28615120  1  0.22912  0  -0.072171  -0.090057  0  3.801401  0
C  C237  1  0.08610598  0.65558636  0.29446607  1  0.249171  0  -0.068605  -0.089303  0  3.802598  0
C  C238  1  0.94730024  0.73937029  0.05572387  1  0.019732  0  -0.086427  -0.152121  0  3.961287  0
C  C239  1  0.24089000  0.02127403  0.05426508  1  0.026141  0  -0.087191  -0.155919  0  3.963108  0
C  C240  1  0.24541520  0.95588933  0.05951652  1  0.073288  0  0.02031  0.134949  0  4.019049  0
C  C241  1  0.00739783  0.74372557  0.06099599  1  0.040404  0  0.016733  0.128955  0  4.02526  0
C  C242  1  0.18337386  0.60224471  0.29030221  1  0.223487  0  -0.065938  -0.087124  0  3.821524  0
C  C243  1  0.75920419  0.92698619  0.99450015  1  0.04085  0  -0.010864  -0.058323  0  3.929373  0
C  C244  1  0.74077460  0.05015997  0.00411617  1  0.064407  0  -0.011521  -0.059284  0  3.922762  0
C  C245  1  0.73689941  0.11833981  0.00427257  1  1.627739  0  0.216854  0.606901  0  4.167041  0
C  C246  1  0.76357932  0.85892590  0.99418727  1  1.593015  0  0.216643  0.607827  0  4.166378  0
C  C247  1  0.62428378  0.16403431  0.28616534  1  0.224231  0  -0.072394  -0.089589  0  3.803148  0
C  C248  1  0.61938307  0.04992431  0.29447953  1  0.232382  0  -0.068449  -0.089697  0  3.802224  0
C  C249  1  0.99701259  0.20491855  0.05574799  1  0.0499  0  -0.08639  -0.151554  0  3.959238  0
C  C250  1  0.70481234  0.92438576  0.05430840  1  0.083841  0  -0.087308  -0.156556  0  3.96293  0
C  C251  1  0.69507609  0.98453475  0.05955560  1  -0.011435  0  0.019898  0.135208  0  4.018801  0
C  C252  1  0.93161787  0.19528642  0.06106090  1  0.029584  0  0.016185  0.128585  0  4.028073  0
C  C253  1  0.52632009  0.10751142  0.29029676  1  0.249772  0  -0.067095  -0.088971  0  3.823551  0
C  C254  1  0.32846898  0.50919015  0.49457658  1  0.036929  0  -0.010457  -0.057582  0  3.928453  0
C  C255  1  0.19568911  0.49073246  0.50419461  1  0.10139  0  -0.011764  -0.059661  0  3.922388  0
C  C256  1  0.12735955  0.48675965  0.50436360  1  1.604726  0  0.216652  0.605703  0  4.167595  0
C  C257  1  0.39684423  0.51358199  0.49424451  1  1.599697  0  0.217869  0.608856  0  4.166856  0
C  C258  1  0.79977589  0.37425856  0.78619213  1  0.232429  0  -0.072151  -0.089509  0  3.801813  0
C  C259  1  0.90555058  0.36938815  0.79450273  1  0.222759  0  -0.068393  -0.08869  0  3.801464  0
C  C260  1  0.98941291  0.74702826  0.55568150  1  0.042924  0  -0.086355  -0.151226  0  3.960154  0
C  C261  1  0.27128400  0.45475212  0.55437035  1  0.054123  0  -0.087228  -0.156083  0  3.960539  0
C  C262  1  0.20588956  0.44501214  0.55961979  1  0.028864  0  0.019985  0.135373  0  4.017327  0
C  C263  1  0.99368289  0.68162057  0.56102375  1  0.048166  0  0.0165  0.129282  0  4.026818  0
C  C264  1  0.85221216  0.27632190  0.79030759  1  0.234339  0  -0.06675  -0.087736  0  3.824258  0
C  C265  1  0.17696544  0.99634454  0.49452582  1  0.04541  0  -0.010836  -0.056936  0  3.927771  0
C  C266  1  0.30011065  0.00505917  0.50418785  1  0.069217  0  -0.011523  -0.059364  0  3.922991  0
C  C267  1  0.36825987  0.00880774  0.50438161  1  1.630889  0  0.217293  0.607205  0  4.167741  0
C  C268  1  0.10889601  0.99223176  0.49424064  1  1.597939  0  0.216553  0.606673  0  4.167403  0
C  C269  1  0.41404470  0.83957497  0.78617658  1  0.243706  0  -0.072255  -0.090617  0  3.803565  0
C  C270  1  0.29992929  0.83609164  0.79449038  1  0.242584  0  -0.067971  -0.088607  0  3.802008  0
C  C271  1  0.45486274  0.69729365  0.55570898  1  0.06504  0  -0.08619  -0.150531  0  3.959962  0
C  C272  1  0.17434176  0.99092680  0.55434289  1  0.064157  0  -0.086949  -0.15645  0  3.963159  0
C  C273  1  0.23448755  0.99540979  0.55958631  1  -0.006831  0  0.019769  0.135083  0  4.018515  0
C  C274  1  0.44523470  0.75736500  0.56105297  1  0.013476  0  0.017142  0.129105  0  4.026189  0
C  C275  1  0.35743552  0.93338744  0.79030383  1  0.212923  0  -0.06626  -0.087451  0  3.821537  0
C  C276  1  0.50365735  0.32303603  0.50547299  1  0.045722  0  -0.010872  -0.056926  0  3.927612  0
C  C277  1  0.49494049  0.19988971  0.49581160  1  0.069409  0  -0.011609  -0.059479  0  3.923047  0
C  C278  1  0.49119629  0.13174303  0.49561502  1  1.630693  0  0.217211  0.607118  0  4.16807  0
C  C279  1  0.50777102  0.39110477  0.50575718  1  1.597742  0  0.216552  0.606737  0  4.167398  0
C  C280  1  0.66042513  0.08595389  0.21382370  1  0.243708  0  -0.072293  -0.090554  0  3.80358  0
C  C281  1  0.66391400  0.20007012  0.20550851  1  0.242298  0  -0.068037  -0.088743  0  3.801976  0
C  C282  1  0.80270669  0.04513795  0.44429102  1  0.065051  0  -0.086203  -0.150552  0  3.959946  0
C  C283  1  0.50907570  0.32565832  0.44565629  1  0.063923  0  -0.086945  -0.156441  0  3.963042  0
C  C284  1  0.50459238  0.26551477  0.44041121  1  -0.006901  0  0.019803  0.135125  0  4.01854  0
C  C285  1  0.74263652  0.05476761  0.43894463  1  0.013752  0  0.017155  0.129111  0  4.025936  0
C  C286  1  0.56661377  0.14256601  0.20969588  1  0.212758  0  -0.066328  -0.087486  0  3.821398  0
C  C287  1  0.99081073  0.17153017  0.50542338  1  0.036746  0  -0.010432  -0.057554  0  3.928351  0
C  C288  1  0.00926565  0.30431168  0.49580510  1  0.100902  0  -0.011831  -0.05973  0  3.92246  0
C  C289  1  0.01323783  0.37264054  0.49563290  1  1.604597  0  0.216611  0.605553  0  4.167727  0
C  C290  1  0.98641894  0.10315194  0.50575817  1  1.599499  0  0.217933  0.608912  0  4.166966  0
C  C291  1  0.12573962  0.70022303  0.21380963  1  0.23234  0  -0.072165  -0.089557  0  3.801831  0
C  C292  1  0.13060868  0.59444628  0.20550005  1  0.222556  0  -0.068408  -0.088709  0  3.801315  0
C  C293  1  0.75297159  0.51058325  0.44431926  1  0.042244  0  -0.086336  -0.151268  0  3.960231  0
C  C294  1  0.04524790  0.22871661  0.44562920  1  0.054203  0  -0.087276  -0.156127  0  3.960541  0
C  C295  1  0.05498720  0.29411033  0.44038092  1  0.028917  0  0.020004  0.135391  0  4.017219  0
C  C296  1  0.81837809  0.50631391  0.43897629  1  0.04838  0  0.016536  0.129346  0  4.026576  0
C  C297  1  0.22367696  0.64778438  0.20969295  1  0.234554  0  -0.066689  -0.087572  0  3.824068  0
C  C298  1  0.42154087  0.25373433  0.00552780  1  0.036687  0  -0.010894  -0.057961  0  3.930029  0
C  C299  1  0.55428228  0.24479868  0.99594351  1  0.02669  0  -0.012214  -0.059072  0  3.921893  0
C  C300  1  0.62262999  0.24105913  0.99575536  1  1.61461  0  0.216352  0.604934  0  4.168656  0
C  C301  1  0.35318416  0.25780369  0.00580465  1  1.60771  0  0.216569  0.606865  0  4.16848  0
C  C302  1  0.95020248  0.41043417  0.71385189  1  0.229322  0  -0.072169  -0.090065  0  3.801659  0
C  C303  1  0.84441237  0.41389411  0.70553512  1  0.249177  0  -0.068613  -0.089374  0  3.802594  0
C  C304  1  0.76063073  0.55269829  0.94427648  1  0.019975  0  -0.086426  -0.152103  0  3.961275  0
C  C305  1  0.47872472  0.25910930  0.94573701  1  0.026173  0  -0.087135  -0.155801  0  3.962932  0
C  C306  1  0.54410882  0.25458424  0.94048611  1  0.073515  0  0.020304  0.134906  0  4.01898  0
C  C307  1  0.75627638  0.49260172  0.93900296  1  0.040545  0  0.016764  0.12902  0  4.025301  0
C  C308  1  0.89775562  0.31662594  0.70969784  1  0.223595  0  -0.065924  -0.087024  0  3.821551  0
C  C309  1  0.57301302  0.74079652  0.00550154  1  0.040055  0  -0.010842  -0.05815  0  3.929077  0
C  C310  1  0.44983836  0.75922473  0.99588547  1  0.064252  0  -0.011454  -0.059242  0  3.922675  0
C  C311  1  0.38165680  0.76309930  0.99573241  1  1.627641  0  0.216912  0.607057  0  4.167092  0
C  C312  1  0.64107359  0.73641955  0.00581647  1  1.593098  0  0.216587  0.607636  0  4.166414  0
C  C313  1  0.33596534  0.87571832  0.71383456  1  0.224179  0  -0.072325  -0.089373  0  3.802912  0
C  C314  1  0.45007597  0.88061747  0.70551942  1  0.232268  0  -0.068453  -0.089629  0  3.802066  0
C  C315  1  0.29508454  0.50298553  0.94425290  1  0.049401  0  -0.086451  -0.151704  0  3.959152  0
C  C316  1  0.57561179  0.79518645  0.94569480  1  0.083871  0  -0.087282  -0.156612  0  3.962873  0
C  C317  1  0.51546316  0.80492308  0.94044596  1  -0.0114  0  0.019876  0.135222  0  4.018853  0
C  C318  1  0.30471568  0.56837964  0.93893996  1  0.029591  0  0.016233  0.128711  0  4.027814  0
C  C319  1  0.39249050  0.97368175  0.70970301  1  0.249591  0  -0.067048  -0.088905  0  3.823531  0
N  N320  1  0.14353467  0.16242398  0.18300403  1  -1.006186  0  -0.340645  -0.102603  0  3.456165  0
N  N321  1  0.67346343  0.65458345  0.18303018  1  -0.981377  0  -0.34084  -0.103314  0  3.456381  0
N  N322  1  0.41237518  0.42341029  0.68304359  1  -0.993046  0  -0.340785  -0.104396  0  3.45775  0
N  N323  1  0.90457303  0.89353093  0.68302424  1  -0.998283  0  -0.341175  -0.103799  0  3.454383  0
N  N324  1  0.60646998  0.59542635  0.31697334  1  -0.998288  0  -0.34114  -0.103737  0  3.454359  0
N  N325  1  0.07659037  0.08762492  0.31695422  1  -0.993215  0  -0.340727  -0.104273  0  3.457656  0
N  N326  1  0.33757948  0.35646557  0.81699150  1  -1.006637  0  -0.340709  -0.102596  0  3.456297  0
N  N327  1  0.84541348  0.82653521  0.81697385  1  -0.981346  0  -0.340722  -0.103147  0  3.45602  0
N  N328  1  0.10646180  0.58762757  0.31695968  1  -1.007377  0  -0.340792  -0.103354  0  3.456355  0
N  N329  1  0.57655835  0.09541751  0.31697254  1  -0.981313  0  -0.340752  -0.102714  0  3.455678  0
N  N330  1  0.83759835  0.32654663  0.81698386  1  -0.992398  0  -0.340617  -0.104011  0  3.458601  0
N  N331  1  0.34540493  0.85647034  0.81697727  1  -0.999053  0  -0.341246  -0.103895  0  3.454826  0
N  N332  1  0.64353300  0.15459496  0.18302201  1  -0.999009  0  -0.341254  -0.103937  0  3.454746  0
N  N333  1  0.17345136  0.66239959  0.18301676  1  -0.992462  0  -0.340681  -0.104132  0  3.458459  0
N  N334  1  0.91237328  0.39353881  0.68304075  1  -1.007338  0  -0.340805  -0.103422  0  3.456405  0
N  N335  1  0.40458485  0.92344319  0.68302703  1  -0.981202  0  -0.340814  -0.102883  0  3.455538  0
Cl  Cl336  1  0.22456168  0.99161492  0.63489225  1  -0.207369  0  -0.01656  -0.088499  0  1.475295  0
Cl  Cl337  1  0.25239912  0.01087492  0.36346990  1  -0.214477  0  -0.0151  -0.088136  0  1.484643  0
Cl  Cl338  1  0.14052935  0.37349131  0.63490924  1  -0.198076  0  -0.016615  -0.088704  0  1.475012  0
Cl  Cl339  1  0.38410390  0.62564843  0.36346116  1  -0.206952  0  -0.015361  -0.088379  0  1.485951  0
Cl  Cl340  1  0.24158353  0.89051343  0.13485362  1  -0.202344  0  -0.016331  -0.088199  0  1.475276  0
Cl  Cl341  1  0.26088055  0.13412082  0.86337022  1  -0.20672  0  -0.015012  -0.088337  0  1.483848  0
Cl  Cl342  1  0.62358152  0.97461773  0.13484937  1  -0.206232  0  -0.016577  -0.088595  0  1.476009  0
Cl  Cl343  1  0.87569261  0.00241637  0.86340636  1  -0.208916  0  -0.015353  -0.088432  0  1.485078  0
Cl  Cl344  1  0.52537600  0.87641415  0.86515370  1  -0.206144  0  -0.016577  -0.088603  0  1.476034  0
Cl  Cl345  1  0.49757765  0.62430802  0.13659825  1  -0.208965  0  -0.015384  -0.088472  0  1.485145  0
Cl  Cl346  1  0.60948540  0.25841625  0.86514815  1  -0.202426  0  -0.016342  -0.088199  0  1.475176  0
Cl  Cl347  1  0.36587985  0.23912422  0.13662503  1  -0.206654  0  -0.01502  -0.088337  0  1.483972  0
Cl  Cl348  1  0.50839150  0.27544197  0.36510349  1  -0.207319  0  -0.016533  -0.088476  0  1.47533  0
Cl  Cl349  1  0.48912955  0.24760607  0.63652559  1  -0.214507  0  -0.015056  -0.088088  0  1.484707  0
Cl  Cl350  1  0.12650760  0.35947274  0.36509009  1  -0.198171  0  -0.016626  -0.088719  0  1.474929  0
Cl  Cl351  1  0.87434889  0.11589314  0.63654071  1  -0.206972  0  -0.015342  -0.088349  0  1.485814  0
Cl  Cl352  1  0.02538310  0.75841883  0.86513384  1  -0.207629  0  -0.016535  -0.088584  0  1.474927  0
Cl  Cl353  1  0.99761716  0.73915874  0.13654355  1  -0.214311  0  -0.015143  -0.088192  0  1.484079  0
Cl  Cl354  1  0.10950039  0.37644851  0.86512486  1  -0.197544  0  -0.016413  -0.088381  0  1.475422  0
Cl  Cl355  1  0.86586742  0.12431087  0.13658940  1  -0.207811  0  -0.015194  -0.088292  0  1.485316  0
Cl  Cl356  1  0.00847041  0.85945854  0.36508907  1  -0.201063  0  -0.016274  -0.08799  0  1.475672  0
Cl  Cl357  1  0.98907968  0.61588544  0.63659955  1  -0.206913  0  -0.015113  -0.088351  0  1.484108  0
Cl  Cl358  1  0.62636472  0.77545942  0.36510633  1  -0.205514  0  -0.016564  -0.088648  0  1.475637  0
Cl  Cl359  1  0.37428257  0.74755024  0.63663767  1  -0.208155  0  -0.015331  -0.088403  0  1.484568  0
Cl  Cl360  1  0.72454225  0.87363615  0.63489160  1  -0.20544  0  -0.016537  -0.088611  0  1.475668  0
Cl  Cl361  1  0.75244833  0.12571921  0.36335793  1  -0.208248  0  -0.015365  -0.088435  0  1.484491  0
Cl  Cl362  1  0.64053995  0.49153197  0.63490758  1  -0.201056  0  -0.01628  -0.088007  0  1.475645  0
Cl  Cl363  1  0.88411899  0.51091552  0.36339967  1  -0.206813  0  -0.015133  -0.08838  0  1.484003  0
Cl  Cl364  1  0.74157601  0.47461268  0.13486560  1  -0.207735  0  -0.016482  -0.088499  0  1.475165  0
Cl  Cl365  1  0.76084654  0.50238344  0.86345581  1  -0.214486  0  -0.015151  -0.088226  0  1.484211  0
Cl  Cl366  1  0.12355769  0.39049559  0.13487330  1  -0.197473  0  -0.016439  -0.088368  0  1.475486  0
Cl  Cl367  1  0.37569219  0.63413031  0.86341118  1  -0.207758  0  -0.015176  -0.088288  0  1.485197  0
O  O368  1  0.94970666  0.86798139  0.55417564  1  -1.169594  0  -0.313518  -0.547953  0  2.337765  0
O  O369  1  0.03060234  0.92859360  0.43864328  1  -1.165547  0  -0.310779  -0.54181  0  2.362953  0
O  O370  1  0.96546736  0.54761782  0.56176693  1  -1.16427  0  -0.311457  -0.545519  0  2.352562  0
O  O371  1  0.05567210  0.94756459  0.55157106  1  -1.166645  0  -0.314819  -0.548069  0  2.315427  0
O  O372  1  0.49609842  0.57782089  0.55425248  1  -1.174284  0  -0.314251  -0.549109  0  2.336728  0
O  O373  1  0.53077446  0.63275667  0.43871114  1  -1.159327  0  -0.310642  -0.542068  0  2.364297  0
O  O374  1  0.47279170  0.89066483  0.56171885  1  -1.153753  0  -0.31222  -0.54731  0  2.352359  0
O  O375  1  0.39273451  0.50083138  0.55161090  1  -1.161075  0  -0.315338  -0.549076  0  2.314804  0
O  O376  1  0.11792431  0.24598948  0.05430305  1  -1.163971  0  -0.312947  -0.547892  0  2.337144  0
O  O377  1  0.17854517  0.28075368  0.93874496  1  -1.162923  0  -0.310739  -0.541458  0  2.36307  0
O  O378  1  0.79770719  0.22284908  0.06169334  1  -1.165161  0  -0.312797  -0.547268  0  2.352576  0
O  O379  1  0.19762052  0.14267290  0.05158866  1  -1.170866  0  -0.315084  -0.548625  0  2.315183  0
O  O380  1  0.82781325  0.69962575  0.05432700  1  -1.154049  0  -0.313574  -0.54824  0  2.337203  0
O  O381  1  0.88267775  0.78047366  0.93880851  1  -1.160336  0  -0.310644  -0.541823  0  2.363663  0
O  O382  1  0.14060963  0.71546817  0.06172116  1  -1.165932  0  -0.311868  -0.546446  0  2.353381  0
O  O383  1  0.75083820  0.80566937  0.05153057  1  -1.170753  0  -0.314734  -0.547833  0  2.31541  0
O  O384  1  0.80037514  0.67218707  0.94566760  1  -1.154167  0  -0.313534  -0.548154  0  2.337106  0
O  O385  1  0.71952741  0.61732438  0.06118775  1  -1.160389  0  -0.310535  -0.541681  0  2.363736  0
O  O386  1  0.78453629  0.35938908  0.93827719  1  -1.165782  0  -0.311892  -0.546443  0  2.352965  0
O  O387  1  0.69433140  0.74915991  0.94847050  1  -1.170743  0  -0.314729  -0.547766  0  2.315337  0
O  O388  1  0.25401443  0.38207774  0.94569901  1  -1.163872  0  -0.31289  -0.547855  0  2.337514  0
O  O389  1  0.21924782  0.32145310  0.06125754  1  -1.162976  0  -0.310707  -0.54147  0  2.36289  0
O  O390  1  0.27715255  0.70229383  0.93830387  1  -1.164893  0  -0.312754  -0.547291  0  2.352374  0
O  O391  1  0.35732962  0.30237980  0.94841232  1  -1.170917  0  -0.314967  -0.548433  0  2.315335  0
O  O392  1  0.63201482  0.55028632  0.44583185  1  -1.169488  0  -0.313569  -0.547984  0  2.337825  0
O  O393  1  0.57140447  0.46939251  0.56136493  1  -1.165456  0  -0.310851  -0.541873  0  2.362824  0
O  O394  1  0.95237638  0.53453095  0.43823601  1  -1.16477  0  -0.31148  -0.545511  0  2.353251  0
O  O395  1  0.55243764  0.44432696  0.44842874  1  -1.166618  0  -0.314798  -0.548076  0  2.315575  0
O  O396  1  0.92217735  0.00390278  0.44575137  1  -1.173952  0  -0.314159  -0.548954  0  2.336696  0
O  O397  1  0.86723827  0.96922394  0.56129398  1  -1.159137  0  -0.310672  -0.54214  0  2.364124  0
O  O398  1  0.60933672  0.02721316  0.43827862  1  -1.15385  0  -0.312262  -0.547341  0  2.352525  0
O  O399  1  0.99917543  0.10726209  0.44838801  1  -1.161188  0  -0.315409  -0.5491  0  2.314876  0
O  O400  1  0.30041816  0.88207363  0.94566783  1  -1.168922  0  -0.313244  -0.547677  0  2.338118  0
O  O401  1  0.21952345  0.82146951  0.06119690  1  -1.167599  0  -0.310284  -0.54105  0  2.362575  0
O  O402  1  0.28451263  0.20231909  0.93825807  1  -1.164877  0  -0.311544  -0.545817  0  2.353256  0
O  O403  1  0.19436773  0.80238050  0.94840540  1  -1.165992  0  -0.314823  -0.548046  0  2.31586  0
O  O404  1  0.75405179  0.17223387  0.94567835  1  -1.174219  0  -0.313608  -0.548839  0  2.337137  0
O  O405  1  0.71933454  0.11728951  0.06122487  1  -1.158142  0  -0.310486  -0.54202  0  2.36454  0
O  O406  1  0.77721355  0.85940658  0.93822084  1  -1.154899  0  -0.312028  -0.547007  0  2.351994  0
O  O407  1  0.85734176  0.24923572  0.94838125  1  -1.160875  0  -0.315208  -0.54885  0  2.31536  0
O  O408  1  0.13209202  0.50388142  0.44576868  1  -1.164476  0  -0.313318  -0.547833  0  2.337526  0
O  O409  1  0.07143062  0.46915685  0.56131449  1  -1.162487  0  -0.310831  -0.541608  0  2.36278  0
O  O410  1  0.45233398  0.52719860  0.43831440  1  -1.165967  0  -0.31272  -0.547384  0  2.35373  0
O  O411  1  0.05243201  0.60722362  0.44847352  1  -1.171743  0  -0.315011  -0.548295  0  2.316238  0
O  O412  1  0.42213400  0.05028894  0.44579650  1  -1.176142  0  -0.313861  -0.548451  0  2.337015  0
O  O413  1  0.36723382  0.96946386  0.56132847  1  -1.160985  0  -0.310864  -0.542423  0  2.364581  0
O  O414  1  0.10933212  0.03458108  0.43830599  1  -1.165206  0  -0.311956  -0.546593  0  2.352469  0
O  O415  1  0.49916551  0.94434459  0.44842041  1  -1.170687  0  -0.314771  -0.548058  0  2.314717  0
O  O416  1  0.44971296  0.07786693  0.55420605  1  -1.175844  0  -0.313864  -0.548481  0  2.336841  0
O  O417  1  0.53053639  0.13276884  0.43867234  1  -1.160979  0  -0.3108  -0.542335  0  2.364987  0
O  O418  1  0.46542094  0.39066795  0.56169403  1  -1.165131  0  -0.311973  -0.546679  0  2.352383  0
O  O419  1  0.55565453  0.00083663  0.55157862  1  -1.170587  0  -0.314769  -0.548086  0  2.314616  0
O  O420  1  0.99611035  0.36790495  0.55423500  1  -1.164276  0  -0.313291  -0.547839  0  2.337401  0
O  O421  1  0.03084021  0.42856856  0.43868891  1  -1.162563  0  -0.310775  -0.541433  0  2.362902  0
O  O422  1  0.97279758  0.04766267  0.56168765  1  -1.165585  0  -0.312715  -0.547399  0  2.35402  0
O  O423  1  0.89277479  0.44756167  0.55152957  1  -1.171682  0  -0.314975  -0.548275  0  2.315783  0
O  O424  1  0.61792613  0.19958512  0.05433055  1  -1.169138  0  -0.3132  -0.547593  0  2.338618  0
O  O425  1  0.67853100  0.28048061  0.93880137  1  -1.167408  0  -0.310318  -0.541115  0  2.362075  0
O  O426  1  0.29767916  0.21548722  0.06174460  1  -1.164845  0  -0.311573  -0.545879  0  2.352989  0
O  O427  1  0.69762182  0.30563439  0.05159340  1  -1.166143  0  -0.314784  -0.548024  0  2.316176  0
O  O428  1  0.32776773  0.74595255  0.05432033  1  -1.174293  0  -0.313611  -0.548898  0  2.337364  0
O  O429  1  0.38270850  0.78066613  0.93877600  1  -1.158007  0  -0.310542  -0.54208  0  2.364481  0
O  O430  1  0.64059136  0.72278500  0.06178173  1  -1.155002  0  -0.311963  -0.546897  0  2.352109  0
O  O431  1  0.25076773  0.64266066  0.05161564  1  -1.160988  0  -0.315221  -0.548789  0  2.315313  0
