# generated using pymatgen
data_Co2H32C46N8O9
_symmetry_space_group_name_H-M   'P 1'
_cell_length_a   11.08208531
_cell_length_b   21.94289568
_cell_length_c   22.57136169
_cell_angle_alpha   64.18641292
_cell_angle_beta   75.79785367
_cell_angle_gamma   75.36603634
_symmetry_Int_Tables_number   1
_chemical_formula_structural   Co2H32C46N8O9
_chemical_formula_sum   'Co8 H128 C184 N32 O36'
_cell_volume   4722.70698769
_cell_formula_units_Z   4
loop_
 _symmetry_equiv_pos_site_id
 _symmetry_equiv_pos_as_xyz
  1  'x, y, z'
loop_
 _atom_site_type_symbol
 _atom_site_label
 _atom_site_symmetry_multiplicity
 _atom_site_fract_x
 _atom_site_fract_y
 _atom_site_fract_z
 _atom_site_occupancy
 _atom_site_pbe_bader_charge
 _atom_site_pbe_bader_spin_density
 _atom_site_pbe_cm5_charge
 _atom_site_pbe_ddec_charge
 _atom_site_pbe_ddec_spin_density
 _atom_site_pbe_ddec_sum_bond_order
 _atom_site_pbe_magmom
Co  Co0  1  0.46757304  0.83101150  0.86379903  1  1.293558  2.635103  0.672444  0.931272  2.836101  2.394898  2.612
Co  Co1  1  0.16232578  0.66899003  0.63618379  1  1.297802  2.635251  0.672622  0.932224  2.834424  2.393382  2.612
Co  Co2  1  0.53243119  0.16898630  0.13620209  1  1.293548  2.635102  0.6724  0.931262  2.836122  2.394919  2.612
Co  Co3  1  0.83767502  0.33100983  0.36381555  1  1.297779  2.63525  0.672624  0.932234  2.834419  2.393448  2.612
Co  Co4  1  0.67979500  0.90372500  0.87726515  1  1.286995  2.60061  0.657763  0.913934  2.798822  2.443833  2.584
Co  Co5  1  0.46062728  0.59626752  0.62263178  1  1.283615  2.600426  0.657937  0.914887  2.801392  2.443514  2.584
Co  Co6  1  0.32020069  0.09627639  0.12273594  1  1.28698  2.600606  0.657785  0.913934  2.798821  2.443792  2.584
Co  Co7  1  0.53937243  0.40373285  0.37736747  1  1.283543  2.600432  0.657949  0.914912  2.801395  2.4435  2.584
H  H8  1  0.94720684  0.80430381  0.90498675  1  0.117871  0.000587  0.119653  0.117782  0.0001  1.024701  0.001
H  H9  1  0.65598435  0.69568237  0.59493058  1  0.11834  0.000591  0.119483  0.117395  0.0001  1.025112  0.001
H  H10  1  0.05279179  0.19569707  0.09501375  1  0.117589  0.000587  0.119649  0.117799  0.0001  1.024653  0.001
H  H11  1  0.34401224  0.30431903  0.40506685  1  0.118336  0.000591  0.119457  0.117348  0.0001  1.025136  0.001
H  H12  1  0.09365277  0.80959335  0.98526750  1  0.147027  0.000588  0.129819  0.137617  0.000206  0.999854  0.0
H  H13  1  0.88821221  0.69033885  0.51486471  1  0.123099  0.000601  0.129762  0.13749  0.000206  1.000809  0.0
H  H14  1  0.90634681  0.19040446  0.01473374  1  0.14674  0.000588  0.129811  0.137603  0.000206  0.999891  0.0
H  H15  1  0.11178612  0.30965998  0.48513625  1  0.123262  0.000601  0.129716  0.137394  0.000206  1.000913  0.0
H  H16  1  0.73531456  0.93646100  0.99719126  1  0.136477  0.000298  0.135339  0.102915  -0.000197  1.020199  0.0
H  H17  1  0.66891959  0.56349930  0.50269154  1  0.142287  0.000312  0.135289  0.103144  -0.000198  1.018409  0.0
H  H18  1  0.26468640  0.06353835  0.00280917  1  0.136464  0.000298  0.135349  0.102939  -0.000197  1.020179  0.0
H  H19  1  0.33108369  0.43649850  0.49730792  1  0.142356  0.000312  0.135298  0.103156  -0.000198  1.018435  0.0
H  H20  1  0.16099889  0.84557891  0.03646872  1  0.135989  7e-05  0.106456  0.126681  1.1e-05  1.054424  0.0
H  H21  1  0.04289196  0.65439042  0.46362164  1  0.127589  7e-05  0.105958  0.125483  1.1e-05  1.055622  0.0
H  H22  1  0.83900099  0.15441787  0.96353159  1  0.13615  7e-05  0.106438  0.126681  1.1e-05  1.05439  0.0
H  H23  1  0.95711100  0.34560841  0.53637654  1  0.127511  7e-05  0.105938  0.125461  1.1e-05  1.055587  0.0
H  H24  1  0.23904831  0.89156876  0.09737195  1  0.098036  7.4e-05  0.103462  0.104598  4.1e-05  1.015738  0.0
H  H25  1  0.22788556  0.60848800  0.40268107  1  0.079183  7.5e-05  0.103678  0.105554  4.1e-05  1.014887  0.0
H  H26  1  0.76095343  0.10842802  0.90262769  1  0.097996  7.4e-05  0.103461  0.104623  4.1e-05  1.015699  0.0
H  H27  1  0.77211601  0.39151237  0.59731752  1  0.079185  7.5e-05  0.103692  0.105573  4.1e-05  1.014895  0.0
H  H28  1  0.09735074  0.97748822  0.13977008  1  0.08179  -4.3e-05  0.101395  0.105043  -0.000132  1.066861  0.0
H  H29  1  0.21471070  0.52257348  0.36022063  1  0.109055  -4e-05  0.101465  0.105644  -0.000132  1.065911  0.0
H  H30  1  0.90265408  0.02251061  0.86022698  1  0.081826  -4.3e-05  0.101387  0.105046  -0.000132  1.066861  0.0
H  H31  1  0.78528871  0.47742484  0.63977997  1  0.109045  -4e-05  0.101453  0.105585  -0.000132  1.065994  0.0
H  H32  1  0.78580081  0.95832208  0.07073547  1  0.061652  -1e-05  0.112371  0.126046  -4.6e-05  1.028897  0.0
H  H33  1  0.81502597  0.54153284  0.42934405  1  0.090598  -9e-06  0.112047  0.125321  -4.6e-05  1.029246  0.0
H  H34  1  0.21420031  0.04167675  0.92926515  1  0.061626  -1e-05  0.112354  0.126056  -4.6e-05  1.028944  0.0
H  H35  1  0.18497860  0.45846393  0.57065968  1  0.090405  -9e-06  0.112103  0.12541  -4.6e-05  1.029184  0.0
H  H36  1  0.72056579  0.07117195  0.06500082  1  0.164158  0.000518  0.138654  0.10518  -6.8e-05  1.009342  0.0
H  H37  1  0.85710506  0.42875815  0.43510407  1  0.159688  0.000517  0.138439  0.105141  -6.8e-05  1.008259  0.0
H  H38  1  0.27943193  0.92882585  0.93500154  1  0.164143  0.000518  0.13864  0.105215  -6.8e-05  1.009289  0.0
H  H39  1  0.14289810  0.57123709  0.56489870  1  0.159704  0.000517  0.13847  0.105186  -6.8e-05  1.008234  0.0
H  H40  1  0.94114010  0.99471491  0.21958844  1  0.133589  0.000805  0.114866  0.109134  0.00031  1.061992  0.0
H  H41  1  0.15536226  0.50530852  0.28034907  1  0.144714  0.000798  0.11496  0.108955  0.00031  1.062521  0.0
H  H42  1  0.05887169  0.00528855  0.78040715  1  0.13379  0.000805  0.114891  0.109085  0.00031  1.061875  0.0
H  H43  1  0.84463406  0.49469082  0.71965414  1  0.144598  0.000798  0.114932  0.108816  0.00031  1.062614  0.0
H  H44  1  0.74634801  0.09833449  0.23471020  1  0.106525  0.000757  0.119338  0.112731  0.00015  1.009521  0.001
H  H45  1  0.07926220  0.40166298  0.26528002  1  0.117971  0.00076  0.119362  0.112829  0.00015  1.009663  0.001
H  H46  1  0.25366302  0.90166845  0.76528748  1  0.106776  0.000757  0.119403  0.112828  0.00015  1.009516  0.001
H  H47  1  0.92073688  0.59833945  0.73471845  1  0.117943  0.00076  0.119333  0.112768  0.00015  1.009652  0.001
H  H48  1  0.13587505  0.26598596  0.32837959  1  0.111717  0.000748  0.122391  0.115491  0.000176  0.997983  0.001
H  H49  1  0.73004644  0.23409492  0.17157068  1  0.133281  0.000749  0.122771  0.116141  0.000176  0.997944  0.001
H  H50  1  0.86412469  0.73401441  0.67162498  1  0.111662  0.000748  0.122416  0.115597  0.000176  0.997895  0.001
H  H51  1  0.26995899  0.76590802  0.82842679  1  0.133321  0.000749  0.122745  0.116138  0.000176  0.997815  0.001
H  H52  1  0.23651840  0.13382905  0.40825645  1  0.14928  0.000839  0.117421  0.119074  0.000343  1.061875  0.0
H  H53  1  0.77800875  0.36630423  0.09175036  1  0.145833  0.000838  0.117433  0.119399  0.000342  1.061401  0.0
H  H54  1  0.76347946  0.86617132  0.59174525  1  0.149239  0.000839  0.11744  0.119105  0.000342  1.061933  0.0
H  H55  1  0.22199297  0.63369563  0.90824754  1  0.14584  0.000838  0.11742  0.119394  0.000342  1.061431  0.0
H  H56  1  0.85668048  0.18614895  0.49136223  1  0.170958  0.000508  0.140447  0.111492  -8e-05  0.997726  0.0
H  H57  1  0.53392396  0.31384506  0.00855566  1  0.159202  0.000505  0.140371  0.111898  -8e-05  0.997526  0.0
H  H58  1  0.14331255  0.81385193  0.50863718  1  0.17102  0.000508  0.140472  0.111523  -8e-05  0.997687  0.0
H  H59  1  0.46607360  0.68615633  0.99144697  1  0.159158  0.000505  0.140405  0.11192  -8e-05  0.997455  0.0
H  H60  1  0.88274531  0.89835641  0.74626637  1  0.163918  0.000351  0.145001  0.118412  -0.000268  0.990415  0.0
H  H61  1  0.52719892  0.60167497  0.75354721  1  0.166131  0.000344  0.145015  0.118112  -0.000269  0.989949  0.0
H  H62  1  0.11725270  0.10164345  0.25373331  1  0.163908  0.000351  0.145014  0.118412  -0.000268  0.990474  0.0
H  H63  1  0.47280495  0.39833002  0.24644914  1  0.166216  0.000344  0.144984  0.118043  -0.000269  0.990018  0.0
H  H64  1  0.73339269  0.06171696  0.80746218  1  0.122652  0.000848  0.125821  0.123463  0.000179  0.998912  0.001
H  H65  1  0.60275671  0.43823850  0.69243680  1  0.118209  0.000846  0.125493  0.123029  0.000179  0.999522  0.001
H  H66  1  0.26660658  0.93828187  0.19253955  1  0.122805  0.000848  0.125823  0.123452  0.000179  0.998882  0.001
H  H67  1  0.39724130  0.56176444  0.30756423  1  0.118204  0.000846  0.12547  0.123001  0.000179  0.999608  0.001
H  H68  1  0.89022029  0.11027252  0.68635897  1  0.171471  0.00099  0.133086  0.13676  0.000409  0.985673  0.0
H  H69  1  0.68678727  0.38974947  0.81360716  1  0.113557  0.001013  0.133143  0.137122  0.000409  0.986314  0.0
H  H70  1  0.10978021  0.88972528  0.31364260  1  0.17143  0.00099  0.133079  0.136728  0.000409  0.985675  0.0
H  H71  1  0.31320702  0.61025347  0.18639433  1  0.113323  0.001013  0.133155  0.137126  0.000409  0.986339  0.0
H  H72  1  0.07654363  0.89989168  0.67367025  1  0.078404  -2.6e-05  0.114649  0.12609  -4.7e-05  0.986779  0.0
H  H73  1  0.64983431  0.60011405  0.82627394  1  0.093837  -2.6e-05  0.114812  0.126269  -4.7e-05  0.985962  0.0
H  H74  1  0.92345076  0.10011075  0.32632436  1  0.078338  -2.6e-05  0.114655  0.126049  -4.7e-05  0.986705  0.0
H  H75  1  0.35015999  0.39988889  0.17372844  1  0.093764  -2.6e-05  0.114817  0.126308  -4.7e-05  0.985798  0.0
H  H76  1  0.20357357  0.90893247  0.56452853  1  0.093991  1.3e-05  0.106712  0.107625  -1.4e-05  1.018641  0.0
H  H77  1  0.67650708  0.59106069  0.93546935  1  0.117346  1.2e-05  0.106476  0.107434  -1.5e-05  1.018492  0.0
H  H78  1  0.79641774  0.09106482  0.43546862  1  0.09377  1.3e-05  0.106729  0.107629  -1.4e-05  1.018634  0.0
H  H79  1  0.32349452  0.40893968  0.06453322  1  0.117424  1.3e-05  0.106497  0.107442  -1.5e-05  1.01854  0.0
H  H80  1  0.19114692  0.02087701  0.46573976  1  0.076255  1.7e-05  0.108866  0.116715  -1.5e-05  1.017404  0.0
H  H81  1  0.67702913  0.47916876  0.03428506  1  0.098702  1.8e-05  0.108575  0.117069  -1.4e-05  1.016311  0.0
H  H82  1  0.80883989  0.97912285  0.53425862  1  0.076239  1.7e-05  0.108893  0.116774  -1.5e-05  1.017276  0.0
H  H83  1  0.32297478  0.52083007  0.96571477  1  0.098705  1.8e-05  0.108565  0.117071  -1.4e-05  1.016329  0.0
H  H84  1  0.92156628  0.11571144  0.58702996  1  0.096977  7e-05  0.115703  0.128273  2.8e-05  1.020228  0.0
H  H85  1  0.62386266  0.38434836  0.91289195  1  0.088298  6.9e-05  0.115713  0.12758  2.8e-05  1.020952  0.0
H  H86  1  0.07843204  0.88429047  0.41297147  1  0.096721  7e-05  0.115712  0.128266  2.8e-05  1.020244  0.0
H  H87  1  0.37612976  0.61565458  0.08710933  1  0.088346  6.9e-05  0.115703  0.127569  2.8e-05  1.020896  0.0
H  H88  1  0.56813890  0.05811879  0.96964899  1  0.080213  0.000309  0.10012  0.106166  5.6e-05  1.013874  0.0
H  H89  1  0.59584260  0.44179110  0.53037195  1  0.092476  0.000304  0.100067  0.10608  5.6e-05  1.014478  0.0
H  H90  1  0.43185536  0.94188415  0.03034940  1  0.080139  0.000309  0.100138  0.106226  5.6e-05  1.013706  0.0
H  H91  1  0.40415277  0.55820516  0.46962736  1  0.092351  0.000304  0.100078  0.106083  5.6e-05  1.014473  0.0
H  H92  1  0.29847834  0.25947455  0.82518935  1  0.039023  0.000223  0.102296  0.106944  9.1e-05  0.995454  0.0
H  H93  1  0.38309353  0.24050133  0.67481470  1  0.046224  0.000221  0.101837  0.106266  9.1e-05  0.996412  0.0
H  H94  1  0.70152261  0.74052787  0.17481155  1  0.041802  0.000223  0.102307  0.106969  9.1e-05  0.995535  0.0
H  H95  1  0.61690122  0.75950006  0.32518650  1  0.046203  0.000221  0.101785  0.106185  9.1e-05  0.996412  0.0
H  H96  1  0.35508954  0.14959844  0.80785623  1  0.097796  3e-05  0.101853  0.107206  5e-06  1.01097  0.0
H  H97  1  0.31242639  0.35041428  0.69205692  1  0.067151  3.4e-05  0.102061  0.108069  6e-06  1.011251  0.0
H  H98  1  0.64490691  0.85040347  0.19214410  1  0.097604  3e-05  0.10183  0.107205  5e-06  1.010913  0.0
H  H99  1  0.68757099  0.64958763  0.30794374  1  0.067194  3.4e-05  0.102012  0.108023  6e-06  1.0113  0.0
H  H100  1  0.26414471  0.23855202  0.01581315  1  0.070554  -0.00032  0.102261  0.105484  -0.000602  1.069066  0.0
H  H101  1  0.51865725  0.26137809  0.48421909  1  0.075405  -0.000321  0.10223  0.10527  -0.000603  1.069966  0.0
H  H102  1  0.73585748  0.76144938  0.98418581  1  0.070634  -0.00032  0.102272  0.105511  -0.000602  1.069047  0.0
H  H103  1  0.48134014  0.73862074  0.51578154  1  0.075389  -0.000321  0.102212  0.105261  -0.000603  1.069931  0.0
H  H104  1  0.24071570  0.45800247  0.93868789  1  0.030664  1.4e-05  0.094058  0.08821  1e-06  1.060432  0.0
H  H105  1  0.63760425  0.04193060  0.56140575  1  0.023406  1.1e-05  0.09411  0.088059  -1e-06  1.060892  0.0
H  H106  1  0.75928772  0.54199791  0.06130914  1  0.030338  1.4e-05  0.094074  0.088199  1e-06  1.060425  0.0
H  H107  1  0.36239625  0.95806720  0.43859450  1  0.023459  1.1e-05  0.094112  0.088053  -1e-06  1.060941  0.0
H  H108  1  0.36861802  0.45750778  0.83333945  1  0.099657  0.000136  0.1007  0.109542  3.3e-05  1.010892  0.0
H  H109  1  0.65996668  0.04242330  0.66669500  1  0.097439  0.000134  0.100459  0.108954  3.2e-05  1.010386  0.0
H  H110  1  0.63138618  0.54249311  0.16665904  1  0.099832  0.000136  0.100663  0.109461  3.3e-05  1.010785  0.0
H  H111  1  0.34003367  0.95757502  0.33330638  1  0.097505  0.000134  0.100463  0.108974  3.2e-05  1.010321  0.0
H  H112  1  0.44560958  0.34710717  0.81781623  1  0.064519  -0.0  0.098256  0.098605  -6e-06  1.016126  0.0
H  H113  1  0.61094937  0.15281253  0.68222031  1  0.052584  -3e-06  0.098406  0.09917  -8e-06  1.016089  0.0
H  H114  1  0.55439852  0.65289320  0.18218333  1  0.064375  -0.0  0.098226  0.098502  -6e-06  1.016178  0.0
H  H115  1  0.38905097  0.84718578  0.31778018  1  0.052331  -3e-06  0.098376  0.099058  -8e-06  1.016104  0.0
H  H116  1  0.04158109  0.44483299  0.98648883  1  0.057024  0.000367  0.098719  0.100995  0.000136  1.028865  0.0
H  H117  1  0.47328884  0.05505661  0.51348865  1  0.098387  0.000358  0.098771  0.100899  0.000135  1.029371  0.0
H  H118  1  0.95841831  0.55516841  0.01351047  1  0.057074  0.000367  0.098694  0.100948  0.000136  1.028823  0.0
H  H119  1  0.52671042  0.94494530  0.48651223  1  0.098363  0.000358  0.098761  0.100887  0.000135  1.029375  0.0
H  H120  1  0.88788899  0.45690165  0.08321570  1  0.067054  6.8e-05  0.095366  0.086463  2.9e-05  1.068649  0.0
H  H121  1  0.42832226  0.04303557  0.41673932  1  0.071885  6.4e-05  0.095682  0.087222  2.7e-05  1.068342  0.0
H  H122  1  0.11210981  0.54309564  0.91678541  1  0.067003  6.8e-05  0.095363  0.086425  2.9e-05  1.068722  0.0
H  H123  1  0.57167528  0.95696891  0.58326201  1  0.073537  6.4e-05  0.095694  0.087193  2.7e-05  1.068256  0.0
H  H124  1  0.07425461  0.26715466  0.21429589  1  0.095615  0.000513  0.104756  0.112821  0.000198  1.006912  0.0
H  H125  1  0.55539111  0.23293261  0.28579579  1  0.115631  0.000507  0.10477  0.112705  0.000198  1.006744  0.0
H  H126  1  0.92575657  0.73284777  0.78570198  1  0.095733  0.000513  0.104814  0.112898  0.000198  1.006831  0.0
H  H127  1  0.44460646  0.76706571  0.71420637  1  0.115599  0.000507  0.104786  0.112724  0.000198  1.006627  0.0
H  H128  1  0.58195849  0.92671967  0.76565666  1  0.653124  0.00055  0.289456  0.38479  0.000554  0.961582  0.001
H  H129  1  0.27441001  0.57325952  0.73429518  1  0.654358  0.000552  0.289575  0.384731  0.000555  0.961419  0.001
H  H130  1  0.41804045  0.07328019  0.23434335  1  0.653133  0.00055  0.289472  0.384785  0.000554  0.961575  0.001
H  H131  1  0.72558971  0.42673777  0.26570494  1  0.65433  0.000552  0.289606  0.38482  0.000555  0.961291  0.001
H  H132  1  0.49785369  0.96812471  0.81617078  1  0.656408  0.000359  0.289956  0.385211  0.000353  0.960197  0.001
H  H133  1  0.28207704  0.53183013  0.68381082  1  0.655051  0.000382  0.290241  0.386046  0.000349  0.958673  0.001
H  H134  1  0.50214821  0.03187463  0.18383086  1  0.656338  0.00036  0.289963  0.3852  0.000353  0.960216  0.001
H  H135  1  0.71792189  0.46816972  0.31618786  1  0.65507  0.000382  0.290298  0.386106  0.000349  0.95859  0.001
C  C136  1  0.92575487  0.83232976  0.93670078  1  0.41964  -0.000411  -0.000736  -0.025903  -0.001335  4.008273  0.0
C  C137  1  0.69440052  0.66767291  0.56320144  1  0.461452  -0.000442  -0.000652  -0.024793  -0.001337  4.007709  0.0
C  C138  1  0.07424361  0.16766856  0.06330038  1  0.41985  -0.000411  -0.000718  -0.025924  -0.001335  4.008347  0.0
C  C139  1  0.30559530  0.33232797  0.43679763  1  0.461455  -0.000442  -0.000627  -0.02467  -0.001337  4.007585  0.0
C  C140  1  0.99839235  0.83450816  0.97643194  1  0.259194  0.004513  0.001354  -0.099297  0.00233  3.90331  0.003
C  C141  1  0.80904364  0.66543884  0.52360593  1  0.240955  0.004519  0.001628  -0.098705  0.00233  3.9029  0.003
C  C142  1  0.00160660  0.16549169  0.02356940  1  0.259495  0.004514  0.001373  -0.099258  0.002331  3.903297  0.003
C  C143  1  0.19094985  0.33456358  0.47639277  1  0.240824  0.004519  0.001632  -0.098705  0.002331  3.902953  0.003
C  C144  1  0.81188193  0.90090191  0.98355404  1  0.957953  -0.004747  0.148016  0.115009  -0.005909  3.886884  -0.002
C  C145  1  0.69622063  0.59907082  0.51634287  1  0.969783  -0.004683  0.147196  0.114332  -0.005857  3.885766  -0.002
C  C146  1  0.18811887  0.09909795  0.01644619  1  0.957769  -0.004745  0.148029  0.114971  -0.005908  3.886934  -0.002
C  C147  1  0.30377910  0.40092647  0.48365857  1  0.969212  -0.004682  0.147168  0.114395  -0.005856  3.885713  -0.002
C  C148  1  0.96853224  0.90140146  0.04622288  1  0.292652  0.00051  0.09928  0.190878  0.000124  4.01898  0.001
C  C149  1  0.91615189  0.59851039  0.45385556  1  0.262479  0.000507  0.099409  0.191859  0.000123  4.016554  0.001
C  C150  1  0.03146982  0.09859737  0.95377896  1  0.292628  0.00051  0.099342  0.190949  0.000124  4.019049  0.001
C  C151  1  0.08384597  0.40148998  0.54614614  1  0.262852  0.000507  0.099462  0.192091  0.000123  4.016475  0.001
C  C152  1  0.09489865  0.88077704  0.05615724  1  0.021765  -0.000258  -0.097685  -0.193942  -0.000354  3.972994  0.0
C  C153  1  0.03176213  0.61918961  0.44391355  1  -0.014771  -0.000253  -0.097639  -0.193122  -0.000346  3.972332  0.0
C  C154  1  0.90510355  0.11922128  0.94384303  1  0.021949  -0.000258  -0.097747  -0.194027  -0.000354  3.972878  0.0
C  C155  1  0.96823790  0.38080973  0.55608743  1  -0.014645  -0.000253  -0.097653  -0.193182  -0.000346  3.97243  0.0
C  C156  1  0.14002524  0.90716380  0.09097430  1  -0.015836  0.00017  -0.087674  -0.039256  1e-05  4.018699  0.0
C  C157  1  0.13809279  0.59285670  0.40907367  1  -0.011317  0.000176  -0.087467  -0.039813  9e-06  4.018428  0.0
C  C158  1  0.85997881  0.09283452  0.90902441  1  -0.015957  0.00017  -0.087631  -0.039239  1e-05  4.018638  0.0
C  C159  1  0.86190413  0.40714367  0.59092636  1  -0.011368  0.000176  -0.087462  -0.039787  1e-05  4.018529  0.0
C  C160  1  0.06124663  0.95403867  0.11554891  1  -0.053632  -0.001092  -0.101789  -0.193449  -0.00128  4.002252  -0.001
C  C161  1  0.13092537  0.54597246  0.38448614  1  -0.026069  -0.001096  -0.101498  -0.193521  -0.001275  4.001679  -0.001
C  C162  1  0.93875695  0.04596119  0.88444921  1  -0.053718  -0.001092  -0.101748  -0.193421  -0.00128  4.002336  -0.001
C  C163  1  0.86907328  0.45402535  0.61551610  1  -0.026263  -0.001096  -0.1015  -0.193504  -0.001275  4.001574  -0.001
C  C164  1  0.93417941  0.97198382  0.10777239  1  0.291657  0.000819  0.098452  0.194371  0.000413  4.021361  0.001
C  C165  1  0.01408603  0.52797933  0.39226759  1  0.296395  0.000818  0.098488  0.194303  0.000413  4.023412  0.001
C  C166  1  0.06582371  0.02801758  0.89222646  1  0.291876  0.000819  0.098478  0.194347  0.000413  4.021338  0.001
C  C167  1  0.98591680  0.47202002  0.60773261  1  0.296589  0.000818  0.098581  0.194483  0.000413  4.023262  0.001
C  C168  1  0.88606839  0.94544738  0.07393855  1  0.040736  -0.00112  -0.090193  -0.253232  -0.001261  3.928605  -0.001
C  C169  1  0.90557753  0.55443959  0.42614292  1  0.041433  -0.001116  -0.090181  -0.252816  -0.001254  3.93101  -0.001
C  C170  1  0.11393242  0.05455248  0.92606300  1  0.040706  -0.00112  -0.09024  -0.253311  -0.00126  3.928726  -0.001
C  C171  1  0.09442221  0.44555770  0.57385941  1  0.041185  -0.001116  -0.090258  -0.253042  -0.001254  3.931153  -0.001
C  C172  1  0.75209512  0.06483475  0.10935135  1  0.992351  -0.003002  0.150358  0.120853  -0.004253  3.902472  -0.002
C  C173  1  0.92655138  0.43511313  0.39072200  1  0.982046  -0.003003  0.150206  0.120942  -0.004212  3.899609  -0.001
C  C174  1  0.24790337  0.93516356  0.89065113  1  0.992744  -0.003  0.150352  0.120746  -0.004253  3.902466  -0.002
C  C175  1  0.07344662  0.56488673  0.60927768  1  0.981969  -0.003004  0.150165  0.120826  -0.004213  3.899719  -0.001
C  C176  1  0.86760219  0.02667250  0.19002367  1  0.263143  0.003557  -0.00383  -0.101873  0.001775  3.921409  0.002
C  C177  1  0.08422568  0.47336389  0.30991620  1  0.22035  0.003568  -0.004068  -0.101934  0.001766  3.922137  0.002
C  C178  1  0.13240775  0.97333096  0.80997392  1  0.263726  0.003557  -0.003882  -0.10181  0.001775  3.921256  0.002
C  C179  1  0.91577216  0.52663956  0.69008287  1  0.220443  0.003566  -0.003969  -0.101713  0.001765  3.922494  0.002
C  C180  1  0.77139107  0.07765730  0.19673035  1  0.439059  -0.000101  0.000528  -0.02564  -0.000861  4.001517  0.0
C  C181  1  0.04576032  0.42233038  0.30326744  1  0.446194  -0.000122  0.000189  -0.026281  -0.000857  4.00236  0.0
C  C182  1  0.22861639  0.92234512  0.80326709  1  0.438075  -0.000101  0.000483  -0.025808  -0.000861  4.001487  0.0
C  C183  1  0.95423629  0.57766793  0.69673262  1  0.446191  -0.00012  0.00022  -0.026152  -0.000857  4.002543  0.0
C  C184  1  0.09322234  0.22961218  0.37466969  1  0.474463  0.000721  0.00438  -0.018826  -4.7e-05  3.989856  0.001
C  C185  1  0.69717662  0.27045818  0.12530176  1  0.321466  0.000857  0.004253  -0.018278  -4.8e-05  3.991444  0.001
C  C186  1  0.90677553  0.77038819  0.62533290  1  0.474455  0.000722  0.004349  -0.018872  -4.7e-05  3.989828  0.001
C  C187  1  0.30282186  0.72954322  0.87469899  1  0.321358  0.000857  0.004273  -0.018272  -4.8e-05  3.991379  0.001
C  C188  1  0.14370449  0.16405625  0.41306160  1  0.204379  0.004597  -0.002828  -0.105764  0.00235  3.907379  0.003
C  C189  1  0.72027726  0.33606010  0.08694875  1  0.339223  0.004488  -0.002783  -0.107715  0.002346  3.909224  0.003
C  C190  1  0.85629135  0.83594464  0.58693924  1  0.204303  0.004597  -0.002866  -0.105894  0.00235  3.907691  0.003
C  C191  1  0.27972120  0.66394130  0.91304978  1  0.339253  0.004488  -0.002788  -0.107733  0.002346  3.90926  0.003
C  C192  1  0.94634653  0.19100775  0.45840722  1  0.987592  -0.001533  0.152707  0.122938  -0.002788  3.872979  -0.001
C  C193  1  0.59549201  0.30900264  0.04151678  1  0.988113  -0.001537  0.152427  0.121271  -0.002807  3.873883  -0.001
C  C194  1  0.05364900  0.80899416  0.54159367  1  0.987749  -0.001534  0.152654  0.122885  -0.002788  3.872917  -0.001
C  C195  1  0.40450989  0.69099671  0.95848441  1  0.988424  -0.001537  0.152451  0.12133  -0.002807  3.87358  -0.001
C  C196  1  0.86585909  0.94861589  0.74759015  1  0.981852  -0.00862  0.15364  0.112927  -0.010549  3.867203  -0.005
C  C197  1  0.56197398  0.55140107  0.75226136  1  0.973014  -0.008598  0.154843  0.115124  -0.010516  3.865813  -0.005
C  C198  1  0.13413875  0.05138448  0.25240889  1  0.981903  -0.008621  0.153605  0.112869  -0.010551  3.867351  -0.005
C  C199  1  0.43802106  0.44860238  0.24773805  1  0.973062  -0.008597  0.15484  0.115143  -0.010515  3.865809  -0.005
C  C200  1  0.78956270  0.03492547  0.77669578  1  0.416894  -0.000584  0.006262  -0.023025  -0.001092  4.003398  0.0
C  C201  1  0.60129828  0.46506379  0.72318030  1  0.462778  -0.000574  0.006545  -0.021628  -0.001075  4.002798  0.0
C  C202  1  0.21043827  0.96507387  0.22330597  1  0.416791  -0.000584  0.006271  -0.022966  -0.001091  4.003416  0.0
C  C203  1  0.39870143  0.53493966  0.27681942  1  0.379713  -0.000514  0.006509  -0.02166  -0.001075  4.003033  0.0
C  C204  1  0.86577024  0.05971567  0.71658151  1  0.226695  0.003585  0.003337  -0.112957  0.001802  3.932102  0.002
C  C205  1  0.64200592  0.44029140  0.78334187  1  0.25267  0.00359  0.003057  -0.114662  0.0018  3.933783  0.002
C  C206  1  0.13423089  0.94028316  0.28342000  1  0.226384  0.003585  0.003385  -0.112894  0.001802  3.932223  0.002
C  C207  1  0.35799022  0.55971154  0.21665895  1  0.336149  0.00353  0.002996  -0.11473  0.001799  3.934031  0.002
C  C208  1  0.99024787  0.00746165  0.63670258  1  0.272886  0.000745  0.098986  0.189925  0.000341  4.039298  0.001
C  C209  1  0.63402776  0.49256020  0.86323817  1  0.307601  0.000745  0.098473  0.188321  0.00034  4.038712  0.001
C  C210  1  0.00975277  0.99253873  0.36329612  1  0.272525  0.000745  0.098982  0.189903  0.000341  4.039181  0.001
C  C211  1  0.36597070  0.50744120  0.13676036  1  0.307505  0.000745  0.098503  0.188392  0.00034  4.03878  0.001
C  C212  1  0.06990788  0.94899688  0.63088288  1  0.027845  -0.001257  -0.090103  -0.179938  -0.001395  3.956684  -0.001
C  C213  1  0.64940099  0.55101798  0.86906091  1  -0.047252  -0.001261  -0.089997  -0.179612  -0.001398  3.955403  -0.001
C  C214  1  0.93009881  0.05100503  0.36911575  1  0.028129  -0.001257  -0.09008  -0.179857  -0.001395  3.956573  -0.001
C  C215  1  0.35060492  0.44898342  0.13093760  1  -0.047059  -0.001261  -0.089964  -0.179658  -0.001398  3.955245  -0.001
C  C216  1  0.14231115  0.95451586  0.56925342  1  -0.042073  0.000321  -0.079007  -0.032984  0.000106  3.997125  0.0
C  C217  1  0.66555512  0.54549024  0.93072313  1  -0.05142  0.000321  -0.078995  -0.032609  0.000106  3.995954  0.0
C  C218  1  0.85768963  0.04548400  0.43074415  1  -0.041861  0.000321  -0.079025  -0.032953  0.000106  3.997152  0.0
C  C219  1  0.33444132  0.45451167  0.06927587  1  -0.05142  0.000321  -0.079059  -0.032684  0.000106  3.996033  0.0
C  C220  1  0.13702294  0.01720950  0.51415609  1  0.079283  -0.000799  -0.090909  -0.178949  -0.000908  3.959963  0.0
C  C221  1  0.66777624  0.48281826  0.98584440  1  0.022225  -0.000794  -0.090396  -0.179191  -0.000909  3.959175  0.0
C  C222  1  0.86297755  0.98279138  0.48584374  1  0.079291  -0.000799  -0.090988  -0.179108  -0.000909  3.959997  0.0
C  C223  1  0.33222408  0.51718314  0.01415390  1  0.022158  -0.000794  -0.090322  -0.178973  -0.000909  3.959266  0.0
C  C224  1  0.05828278  0.07527989  0.52119952  1  0.264559  0.000711  0.102547  0.197828  0.000327  4.032431  0.001
C  C225  1  0.65422350  0.42475890  0.97877402  1  0.296299  0.000703  0.102376  0.196049  0.000324  4.035055  0.001
C  C226  1  0.94170778  0.92471997  0.47880063  1  0.264664  0.00071  0.102566  0.197899  0.000327  4.032465  0.001
C  C227  1  0.34577310  0.57524250  0.02122473  1  0.296294  0.000703  0.102342  0.195883  0.000324  4.035292  0.001
C  C228  1  0.98419968  0.07056482  0.58223338  1  0.017438  -0.000657  -0.092045  -0.26413  -0.000781  3.951216  0.0
C  C229  1  0.63652590  0.42946850  0.91772210  1  0.035403  -0.00066  -0.091816  -0.26251  -0.000785  3.951408  0.0
C  C230  1  0.01579242  0.92943606  0.41776570  1  0.017811  -0.000657  -0.092028  -0.264153  -0.000781  3.951136  0.0
C  C231  1  0.36346699  0.57053290  0.08227844  1  0.035324  -0.00066  -0.091856  -0.262514  -0.000785  3.951448  0.0
C  C232  1  0.49947244  0.03336285  0.87391587  1  1.533751  -0.001309  0.200363  0.555946  -0.002351  4.216408  -0.001
C  C233  1  0.40659237  0.46659903  0.62604023  1  1.520797  -0.001284  0.200864  0.557058  -0.002355  4.217639  -0.001
C  C234  1  0.50052820  0.96663753  0.12608460  1  1.533328  -0.00131  0.200395  0.555956  -0.002351  4.216378  -0.001
C  C235  1  0.59340408  0.53339980  0.37395874  1  1.520654  -0.001285  0.200966  0.55719  -0.002355  4.217626  -0.001
C  C236  1  0.46540988  0.09745359  0.88747584  1  -0.054593  0.004712  -0.031641  -0.062527  0.002455  4.02408  0.004
C  C237  1  0.45024051  0.40249590  0.61250311  1  -0.013227  0.004702  -0.031752  -0.062302  0.00246  4.026183  0.004
C  C238  1  0.53458845  0.90254524  0.11252468  1  -0.054616  0.004712  -0.031758  -0.062711  0.002455  4.024212  0.004
C  C239  1  0.54975299  0.59750344  0.38749645  1  -0.012265  0.004702  -0.031766  -0.06243  0.00246  4.02623  0.004
C  C240  1  0.50931064  0.10262758  0.93807872  1  -0.055803  0.000213  -0.087442  -0.123702  -0.000239  3.969718  0.0
C  C241  1  0.54992246  0.39731150  0.56193154  1  -0.059916  0.000207  -0.087316  -0.1235  -0.000251  3.97088  0.0
C  C242  1  0.49068798  0.89737330  0.06192046  1  -0.055804  0.000213  -0.087346  -0.123674  -0.000239  3.969546  0.0
C  C243  1  0.45007261  0.60268580  0.43807003  1  -0.060335  0.000207  -0.087305  -0.123404  -0.000251  3.970794  0.0
C  C244  1  0.47725401  0.16341076  0.94871179  1  -0.032181  0.003805  -0.008795  -0.060811  0.001485  3.922856  0.003
C  C245  1  0.58931234  0.33649705  0.55134021  1  -0.074684  0.003796  -0.009291  -0.062925  0.001481  3.924092  0.003
C  C246  1  0.52274834  0.83659012  0.05128782  1  -0.031935  0.003804  -0.008893  -0.060851  0.001485  3.923013  0.003
C  C247  1  0.41068257  0.66350076  0.44865938  1  -0.080593  0.003809  -0.009323  -0.062945  0.001481  3.924041  0.003
C  C248  1  0.40054683  0.22042338  0.90758719  1  0.001911  0.000314  -0.000311  0.054751  -3.9e-05  3.961926  0.0
C  C249  1  0.52854345  0.27948676  0.59246899  1  0.049545  0.000307  0.000402  0.056387  -4e-05  3.961833  0.0
C  C250  1  0.59945645  0.77957750  0.09241230  1  0.0019  0.000314  -0.000289  0.054802  -3.9e-05  3.96184  0.0
C  C251  1  0.47145161  0.72051053  0.40752992  1  0.050086  0.000307  0.000452  0.056369  -4e-05  3.961743  0.0
C  C252  1  0.35809115  0.21510547  0.85660695  1  0.006063  0.000534  -0.092986  -0.131737  0.000253  3.998794  0.0
C  C253  1  0.42978635  0.28484575  0.64341070  1  -0.086221  0.000546  -0.093071  -0.130898  0.000254  3.999784  0.0
C  C254  1  0.64191245  0.78489439  0.14339338  1  0.003368  0.000534  -0.092957  -0.131737  0.000253  3.998882  0.0
C  C255  1  0.57021291  0.71515308  0.35659059  1  -0.08616  0.000546  -0.093023  -0.13076  0.000254  3.999595  0.0
C  C256  1  0.38899546  0.15439644  0.84679870  1  -0.050441  0.000957  -0.094344  -0.106612  0.000526  4.023331  0.001
C  C257  1  0.39009317  0.34557793  0.65315764  1  0.019633  0.000958  -0.094131  -0.107771  0.000523  4.02668  0.001
C  C258  1  0.61099977  0.84560341  0.15320310  1  -0.050203  0.000956  -0.094372  -0.106639  0.000526  4.02335  0.001
C  C259  1  0.60990563  0.65441936  0.34684392  1  0.01916  0.000959  -0.094166  -0.107829  0.000523  4.026692  0.001
C  C260  1  0.53450122  0.17144233  0.99874837  1  1.589799  -0.001778  0.208926  0.589252  -0.002549  4.205992  -0.001
C  C261  1  0.70465494  0.32848419  0.50132717  1  1.573803  -0.001767  0.209254  0.590829  -0.002553  4.201422  -0.001
C  C262  1  0.46550285  0.82855599  0.00125299  1  1.589532  -0.001777  0.208926  0.589199  -0.002549  4.206308  -0.001
C  C263  1  0.29534136  0.67151515  0.49867338  1  1.579136  -0.001778  0.209332  0.590995  -0.002553  4.201442  -0.001
C  C264  1  0.36201822  0.28572159  0.91710689  1  -0.041009  1.6e-05  -0.010194  0.073858  -7e-05  4.010747  0.0
C  C265  1  0.56502873  0.21419277  0.58295771  1  -0.049326  1.8e-05  -0.010127  0.073591  -6.9e-05  4.012254  0.0
C  C266  1  0.63798676  0.71427981  0.08289173  1  -0.040696  1.6e-05  -0.010113  0.074001  -7e-05  4.010632  0.0
C  C267  1  0.43497083  0.78580504  0.41704221  1  -0.048832  1.8e-05  -0.010095  0.073584  -6.9e-05  4.012399  0.0
C  C268  1  0.28925426  0.28663691  0.97704233  1  -0.01047  -0.000125  -0.088797  -0.165143  -0.000297  3.903456  0.0
C  C269  1  0.55309535  0.21329468  0.52301577  1  -0.021773  -0.000129  -0.088545  -0.164161  -0.000298  3.903276  0.0
C  C270  1  0.71075725  0.71336448  0.02295771  1  -0.010229  -0.000125  -0.08885  -0.165281  -0.000297  3.903538  0.0
C  C271  1  0.44690312  0.78670363  0.47698406  1  -0.021883  -0.000129  -0.088549  -0.164124  -0.000298  3.903265  0.0
C  C272  1  0.24194773  0.34833924  0.98562205  1  -0.00897  0.000109  -0.011737  0.068796  5.6e-05  4.014716  0.0
C  C273  1  0.57609337  0.15159223  0.51444101  1  -0.017859  0.00011  -0.011913  0.068048  5.7e-05  4.013645  0.0
C  C274  1  0.75805972  0.65166319  0.01437584  1  -0.009396  0.000109  -0.011799  0.068831  5.6e-05  4.014698  0.0
C  C275  1  0.42390510  0.84840609  0.48555882  1  -0.017777  0.00011  -0.011818  0.068206  5.7e-05  4.013582  0.0
C  C276  1  0.27446512  0.40938360  0.93314229  1  -0.068065  2.4e-05  -0.09603  -0.140871  8e-06  3.980674  0.0
C  C277  1  0.61726738  0.09055437  0.56691571  1  -0.033282  2.6e-05  -0.095595  -0.140182  9e-06  3.981061  0.0
C  C278  1  0.72553938  0.59061626  0.06685438  1  -0.067356  2.4e-05  -0.096001  -0.140764  8e-06  3.980388  0.0
C  C279  1  0.38273452  0.90944497  0.43308504  1  -0.03328  2.6e-05  -0.095586  -0.140208  9e-06  3.981175  0.0
C  C280  1  0.34773421  0.40909773  0.87347434  1  -0.023079  4.1e-05  -0.097069  -0.075184  8e-06  4.034143  0.0
C  C281  1  0.63073237  0.09084293  0.62656080  1  -0.10935  3.7e-05  -0.097373  -0.07495  5e-06  4.034738  0.0
C  C282  1  0.65227388  0.59090265  0.12652389  1  -0.023445  4.1e-05  -0.097058  -0.075143  8e-06  4.033808  0.0
C  C283  1  0.36925883  0.90915487  0.37344191  1  -0.109368  3.7e-05  -0.097365  -0.074987  5e-06  4.034732  0.0
C  C284  1  0.39049480  0.34753834  0.86490708  1  -0.085266  3.1e-05  -0.094314  -0.141381  2.7e-05  3.986994  0.0
C  C285  1  0.60327095  0.15239270  0.63513852  1  0.011318  2.9e-05  -0.094487  -0.1425  2.5e-05  3.989649  0.0
C  C286  1  0.60951236  0.65246203  0.13509126  1  -0.085342  3.1e-05  -0.094263  -0.141332  2.7e-05  3.986914  0.0
C  C287  1  0.39672551  0.84760613  0.36486311  1  0.011135  2.8e-05  -0.094523  -0.1424  2.5e-05  3.989683  0.0
C  C288  1  0.15215640  0.35094856  0.04540350  1  -0.01219  0.001876  -0.002697  0.044865  0.000926  3.963227  0.001
C  C289  1  0.54851718  0.14901347  0.45466660  1  -0.015521  0.001864  -0.002616  0.045748  0.000919  3.959596  0.001
C  C290  1  0.84784856  0.64905284  0.95459335  1  -0.012252  0.001876  -0.002729  0.044751  0.000926  3.963252  0.001
C  C291  1  0.45148410  0.85098484  0.54533378  1  -0.015374  0.001864  -0.002655  0.045604  0.000919  3.959514  0.001
C  C292  1  0.05194904  0.40676365  0.03673742  1  -0.023564  0.00089  -0.094343  -0.134653  0.000453  3.995236  0.001
C  C293  1  0.49559252  0.09319657  0.46326370  1  -0.08917  0.000901  -0.094403  -0.134546  0.000452  3.994028  0.001
C  C294  1  0.94804880  0.59323672  0.96326118  1  -0.023591  0.00089  -0.094329  -0.134623  0.000453  3.995222  0.001
C  C295  1  0.50440827  0.90680329  0.53673564  1  -0.089317  0.000901  -0.094452  -0.13461  0.000452  3.993838  0.001
C  C296  1  0.96445506  0.41330954  0.09024770  1  -0.073277  0.002448  -0.095911  -0.112302  0.001277  4.039232  0.002
C  C297  1  0.46816784  0.08665579  0.40973863  1  -0.019538  0.002401  -0.096327  -0.113701  0.001269  4.042728  0.002
C  C298  1  0.03554837  0.58669083  0.90975154  1  -0.073615  0.002448  -0.095902  -0.112209  0.001277  4.039289  0.002
C  C299  1  0.53182938  0.91334664  0.59026095  1  -0.021218  0.002401  -0.096251  -0.113493  0.001268  4.042238  0.002
C  C300  1  0.97263616  0.36347612  0.15487729  1  -0.019857  0.005322  -0.02433  -0.038601  0.002723  4.009142  0.004
C  C301  1  0.49091835  0.13655667  0.34514209  1  -0.039837  0.005333  -0.024452  -0.038492  0.002726  4.009725  0.004
C  C302  1  0.02737039  0.63652322  0.84512290  1  -0.019311  0.005322  -0.024285  -0.038647  0.002723  4.009257  0.004
C  C303  1  0.50907608  0.86344576  0.65485739  1  -0.039736  0.005334  -0.024564  -0.038603  0.002726  4.009566  0.004
C  C304  1  0.06884132  0.30654491  0.16410875  1  -0.020664  0.002024  -0.085847  -0.12194  0.000845  3.958934  0.001
C  C305  1  0.53928196  0.19350923  0.33596210  1  -0.050473  0.002044  -0.085385  -0.121061  0.000846  3.95593  0.001
C  C306  1  0.93116334  0.69345443  0.83588812  1  -0.020782  0.002025  -0.085914  -0.122128  0.000845  3.959006  0.001
C  C307  1  0.46071093  0.80649217  0.66403888  1  -0.050488  0.002044  -0.085372  -0.121132  0.000846  3.955788  0.001
C  C308  1  0.15808528  0.29973966  0.11063651  1  -0.069723  0.008212  -0.010197  -0.060027  0.004287  3.929369  0.006
C  C309  1  0.56841015  0.20024294  0.38944259  1  -0.068724  0.008197  -0.010465  -0.061197  0.004286  3.929246  0.006
C  C310  1  0.84192404  0.70026277  0.88936159  1  -0.069835  0.00821  -0.010132  -0.059735  0.004286  3.929193  0.006
C  C311  1  0.43158692  0.79975692  0.61055765  1  -0.068746  0.008197  -0.010469  -0.061061  0.004286  3.92927  0.006
C  C312  1  0.25989594  0.23743533  0.12645050  1  1.582115  0.001288  0.212072  0.590961  -0.000314  4.206286  0.001
C  C313  1  0.62375874  0.26253559  0.37362414  1  1.590379  0.001272  0.212562  0.591782  -0.000313  4.207102  0.001
C  C314  1  0.74011462  0.76256607  0.87354655  1  1.581482  0.001297  0.211982  0.590711  -0.000312  4.206564  0.001
C  C315  1  0.37624035  0.73746376  0.62637518  1  1.590385  0.001271  0.212516  0.591619  -0.000314  4.207289  0.001
C  C316  1  0.87954564  0.37167984  0.21270087  1  1.576355  -1.6e-05  0.208201  0.574878  -0.000939  4.193063  0.001
C  C317  1  0.46384413  0.12838509  0.28730164  1  1.560513  5.4e-05  0.207986  0.57419  -0.000911  4.190294  0.001
C  C318  1  0.12046076  0.62831694  0.78729953  1  1.576035  -1.7e-05  0.208262  0.575036  -0.000938  4.192831  0.001
C  C319  1  0.53615112  0.87161169  0.71270190  1  1.560724  5.4e-05  0.207991  0.573962  -0.00091  4.190592  0.001
N  N320  1  0.80932701  0.87385070  0.94162621  1  -1.194059  0.050315  -0.350666  -0.31667  0.027384  3.607404  0.04
N  N321  1  0.62454437  0.62615822  0.55821682  1  -1.197107  0.05035  -0.350359  -0.316233  0.027394  3.608564  0.04
N  N322  1  0.19067255  0.12615019  0.05837374  1  -1.193805  0.050311  -0.3507  -0.316656  0.027384  3.607502  0.04
N  N323  1  0.37545394  0.37384061  0.44178237  1  -1.196476  0.050347  -0.350318  -0.31628  0.027393  3.608622  0.04
N  N324  1  0.92570246  0.87850120  0.00626871  1  -1.230906  0.000959  -0.223608  0.006519  -0.00011  3.767975  0.001
N  N325  1  0.81037904  0.62141881  0.49375954  1  -1.243492  0.000964  -0.223309  0.00447  -0.000107  3.770443  0.001
N  N326  1  0.07429773  0.12149763  0.99373291  1  -1.230894  0.00096  -0.223649  0.006493  -0.00011  3.767997  0.001
N  N327  1  0.18961944  0.37857950  0.50624118  1  -1.243624  0.000964  -0.223355  0.004273  -0.000107  3.770389  0.001
N  N328  1  0.85426860  0.01863906  0.13432841  1  -1.274222  0.002024  -0.225994  0.007245  0.000633  3.783637  0.001
N  N329  1  0.00739087  0.48134501  0.36568070  1  -1.280871  0.002042  -0.225481  0.007293  0.000641  3.782606  0.001
N  N330  1  0.14573529  0.98136285  0.86567057  1  -1.274452  0.002025  -0.225994  0.007383  0.000633  3.783572  0.001
N  N331  1  0.99260637  0.51865434  0.63432018  1  -1.280786  0.002041  -0.225592  0.007135  0.000641  3.782759  0.001
N  N332  1  0.70052767  0.10099542  0.14602542  1  -1.221229  0.057375  -0.350987  -0.302364  0.030842  3.614772  0.045
N  N333  1  0.94770019  0.39895422  0.35404881  1  -1.185686  0.057348  -0.350947  -0.302364  0.030843  3.61327  0.046
N  N334  1  0.29947423  0.89900392  0.85397622  1  -1.221646  0.057374  -0.35099  -0.302345  0.030843  3.614718  0.045
N  N335  1  0.05230092  0.60104461  0.64595092  1  -1.185603  0.057344  -0.350917  -0.302333  0.030841  3.613129  0.046
N  N336  1  0.97051827  0.24541372  0.40343025  1  -1.192615  0.060633  -0.345127  -0.285053  0.03258  3.598594  0.047
N  N337  1  0.61921099  0.25459593  0.09649229  1  -1.185494  0.060601  -0.345416  -0.285391  0.032565  3.599108  0.047
N  N338  1  0.02947834  0.75458767  0.59657072  1  -1.192693  0.060634  -0.345043  -0.285019  0.03258  3.598532  0.047
N  N339  1  0.38078982  0.74540392  0.90350882  1  -1.185496  0.0606  -0.345449  -0.285436  0.032565  3.598987  0.047
N  N340  1  0.04961945  0.13986503  0.46666762  1  -1.276638  0.002613  -0.226674  -0.000363  0.001043  3.787657  0.002
N  N341  1  0.65566158  0.36019383  0.03331520  1  -1.268518  0.002623  -0.226351  0.002571  0.001044  3.789438  0.002
N  N342  1  0.95037452  0.86013586  0.53333212  1  -1.276598  0.002612  -0.226683  -0.000322  0.001043  3.787767  0.002
N  N343  1  0.34433781  0.63980756  0.96668410  1  -1.268829  0.002623  -0.22629  0.002621  0.001045  3.78938  0.002
N  N344  1  0.79106713  0.96582644  0.79554164  1  -1.210591  0.057423  -0.345623  -0.290352  0.030384  3.597121  0.05
N  N345  1  0.55249410  0.53416565  0.70429893  1  -1.206809  0.057384  -0.346506  -0.29254  0.030371  3.598445  0.05
N  N346  1  0.20893274  0.03417342  0.20445826  1  -1.210261  0.057423  -0.345621  -0.290376  0.030383  3.597276  0.05
N  N347  1  0.44750653  0.46583780  0.29569979  1  -1.206968  0.05738  -0.346426  -0.292471  0.030371  3.598411  0.05
N  N348  1  0.91386608  0.00447396  0.69810129  1  -1.257587  0.001036  -0.22568  -0.00179  8.1e-05  3.801269  0.001
N  N349  1  0.61627647  0.49554722  0.80180242  1  -1.260493  0.001044  -0.225639  -0.000747  8.5e-05  3.799814  0.001
N  N350  1  0.08613581  0.99552538  0.30189857  1  -1.257747  0.001035  -0.225734  -0.001789  8.1e-05  3.80141  0.001
N  N351  1  0.38371858  0.50445623  0.19819743  1  -1.26053  0.001043  -0.22562  -0.000713  8.5e-05  3.799622  0.001
O  O352  1  0.43890044  0.03032935  0.83451475  1  -1.171782  0.002741  -0.320357  -0.5369  0.000495  2.173822  0.002
O  O353  1  0.30361507  0.46960197  0.66545470  1  -1.177749  0.002745  -0.320496  -0.537743  0.0005  2.175169  0.002
O  O354  1  0.56109679  0.96967307  0.16548571  1  -1.171326  0.002741  -0.320295  -0.536818  0.000495  2.173861  0.002
O  O355  1  0.69638712  0.53039943  0.33454426  1  -1.177587  0.002748  -0.320539  -0.537801  0.000501  2.175012  0.002
O  O356  1  0.58834078  0.98678436  0.90210413  1  -1.173745  0.072214  -0.323359  -0.573091  0.037266  2.340369  0.061
O  O357  1  0.47699360  0.51319398  0.59786038  1  -1.154282  0.072266  -0.323717  -0.574021  0.03729  2.34159  0.061
O  O358  1  0.41165801  0.01321601  0.09789701  1  -1.173776  0.072217  -0.323366  -0.573072  0.037267  2.340338  0.061
O  O359  1  0.52301310  0.48680177  0.40213820  1  -1.154342  0.072267  -0.323721  -0.573969  0.037288  2.34173  0.061
O  O360  1  0.63532680  0.19503048  0.97877259  1  -1.171551  0.008091  -0.328452  -0.558421  0.003736  2.101393  0.007
O  O361  1  0.80907148  0.30490255  0.52135285  1  -1.169591  0.008105  -0.328396  -0.55883  0.003736  2.098581  0.007
O  O362  1  0.36467930  0.80496732  0.02123007  1  -1.171555  0.008091  -0.328412  -0.558309  0.003736  2.101577  0.007
O  O363  1  0.19092422  0.69509576  0.47864910  1  -1.169582  0.008106  -0.32842  -0.558861  0.003736  2.098572  0.007
O  O364  1  0.47550110  0.15370127  0.05937291  1  -1.169166  0.093331  -0.309875  -0.593012  0.049681  2.485577  0.08
O  O365  1  0.68861385  0.34626008  0.44067521  1  -1.165815  0.093488  -0.310722  -0.593875  0.04985  2.484918  0.081
O  O366  1  0.52450296  0.84630013  0.94062804  1  -1.169183  0.093333  -0.309898  -0.593081  0.049682  2.485732  0.08
O  O367  1  0.31138725  0.65373876  0.55932320  1  -1.165817  0.09349  -0.310772  -0.594034  0.04985  2.485054  0.081
O  O368  1  0.22439261  0.17956549  0.14701105  1  -1.171485  0.061676  -0.315228  -0.569462  0.031278  2.348063  0.051
O  O369  1  0.55090227  0.32040963  0.35309630  1  -1.177582  0.061442  -0.315849  -0.570083  0.031174  2.348473  0.051
O  O370  1  0.77560847  0.82043951  0.85298652  1  -1.171069  0.06167  -0.31523  -0.569456  0.031277  2.348058  0.051
O  O371  1  0.44909571  0.67959023  0.64690072  1  -1.17759  0.061446  -0.31578  -0.569991  0.031174  2.348653  0.051
O  O372  1  0.37071649  0.24740078  0.11947182  1  -1.146983  0.058065  -0.301882  -0.545533  0.028777  2.354542  0.053
O  O373  1  0.73761189  0.25256843  0.38056261  1  -1.149269  0.057965  -0.301861  -0.546075  0.028683  2.354199  0.053
O  O374  1  0.62929456  0.75259908  0.88052804  1  -1.146774  0.058051  -0.301816  -0.545405  0.028775  2.3546  0.053
O  O375  1  0.26238610  0.74743143  0.61943619  1  -1.1493  0.057967  -0.301857  -0.545999  0.028683  2.354236  0.053
O  O376  1  0.90914259  0.33259494  0.27054500  1  -1.154147  0.083943  -0.317295  -0.555913  0.042764  2.349337  0.07
O  O377  1  0.51202251  0.16756040  0.22947574  1  -1.148165  0.083782  -0.317213  -0.555636  0.042666  2.348305  0.07
O  O378  1  0.09086660  0.66740491  0.72945597  1  -1.15413  0.083943  -0.31734  -0.555956  0.042762  2.349105  0.07
O  O379  1  0.48797740  0.83243637  0.77052900  1  -1.148386  0.083785  -0.317083  -0.555401  0.042665  2.348434  0.07
O  O380  1  0.78034943  0.41643705  0.20041485  1  -1.188845  0.004689  -0.327199  -0.548055  0.001511  2.141443  0.004
O  O381  1  0.39733640  0.08355025  0.29957515  1  -1.180478  0.004736  -0.326939  -0.547425  0.001545  2.139094  0.004
O  O382  1  0.21965450  0.58355562  0.79958582  1  -1.188652  0.004691  -0.327228  -0.548103  0.001512  2.141504  0.004
O  O383  1  0.60265776  0.91644704  0.70042786  1  -1.180477  0.004737  -0.326965  -0.547347  0.001546  2.139283  0.004
O  O384  1  0.55363746  0.92397149  0.81351311  1  -1.268897  0.111303  -0.567008  -0.798889  0.059074  2.4166  0.093
O  O385  1  0.29107840  0.57598372  0.68645676  1  -1.27092  0.111328  -0.567403  -0.799591  0.059011  2.41551  0.093
O  O386  1  0.44636149  0.07602837  0.18648778  1  -1.268818  0.111303  -0.566996  -0.79885  0.059072  2.416582  0.093
O  O387  1  0.70892161  0.42401563  0.31354201  1  -1.270914  0.111325  -0.567472  -0.799725  0.05901  2.415425  0.093
