# generated using pymatgen
data_Zn4H30C54O13
_symmetry_space_group_name_H-M   'P 1'
_cell_length_a   19.51047668
_cell_length_b   19.51048789
_cell_length_c   31.79845257
_cell_angle_alpha   105.86082876
_cell_angle_beta   105.86076148
_cell_angle_gamma   94.22329511
_symmetry_Int_Tables_number   1
_chemical_formula_structural   Zn4H30C54O13
_chemical_formula_sum   'Zn16 H120 C216 O52'
_cell_volume   11055.38901304
_cell_formula_units_Z   4
loop_
 _symmetry_equiv_pos_site_id
 _symmetry_equiv_pos_as_xyz
  1  'x, y, z'
loop_
 _atom_site_type_symbol
 _atom_site_label
 _atom_site_symmetry_multiplicity
 _atom_site_fract_x
 _atom_site_fract_y
 _atom_site_fract_z
 _atom_site_occupancy
 _atom_site_pbe_bader_charge
 _atom_site_pbe_bader_spin_density
 _atom_site_pbe_cm5_charge
 _atom_site_pbe_ddec_charge
 _atom_site_pbe_ddec_spin_density
 _atom_site_pbe_ddec_sum_bond_order
 _atom_site_pbe_magmom
Zn  Zn0  1  0.46843118  0.24547059  0.34882881  1  1.317736  0  0.671179  0.964274  0  2.386259  0
Zn  Zn1  1  0.55389049  0.39267434  0.42677190  1  1.310766  0  0.67332  0.956868  0  2.396681  0
Zn  Zn2  1  0.62006985  0.31685497  0.34751154  1  1.311381  0  0.670297  0.958351  0  2.380134  0
Zn  Zn3  1  0.61295034  0.24399822  0.42613119  1  1.319852  0  0.673384  0.968535  0  2.371712  0
Zn  Zn4  1  0.24547102  0.46843191  0.84882888  1  1.317773  0  0.671215  0.964354  0  2.386249  0
Zn  Zn5  1  0.39267281  0.55388921  0.92677128  1  1.310743  0  0.673317  0.95687  0  2.396705  0
Zn  Zn6  1  0.31685580  0.62006987  0.84751222  1  1.311389  0  0.670281  0.958324  0  2.380117  0
Zn  Zn7  1  0.24399898  0.61294978  0.92613084  1  1.319831  0  0.673382  0.968566  0  2.371792  0
Zn  Zn8  1  0.75453087  0.53156924  0.15117131  1  1.317833  0  0.671187  0.964302  0  2.386323  0
Zn  Zn9  1  0.60732584  0.44611035  0.07322873  1  1.310731  0  0.673304  0.956855  0  2.396673  0
Zn  Zn10  1  0.68314501  0.37993004  0.15248822  1  1.311388  0  0.670287  0.958319  0  2.380125  0
Zn  Zn11  1  0.75600074  0.38704942  0.07386866  1  1.319843  0  0.6734  0.968602  0  2.371724  0
Zn  Zn12  1  0.53156855  0.75453074  0.65117136  1  1.31781  0  0.671202  0.96433  0  2.386278  0
Zn  Zn13  1  0.44610978  0.60732762  0.57322910  1  1.31075  0  0.673284  0.956823  0  2.396745  0
Zn  Zn14  1  0.37993095  0.68314547  0.65248804  1  1.311368  0  0.6703  0.958339  0  2.380186  0
Zn  Zn15  1  0.38704939  0.75600152  0.57386903  1  1.319844  0  0.67337  0.968522  0  2.371785  0
H  H16  1  0.61718178  0.48492752  0.29285209  1  0.111438  0  0.105713  0.109749  0  1.013973  0
H  H17  1  0.57721103  0.57652966  0.25479187  1  0.079447  0  0.103812  0.1067  0  0.998675  0
H  H18  1  0.49352157  0.67607782  0.36519832  1  0.078552  0  0.104289  0.107268  0  0.996451  0
H  H19  1  0.53736921  0.58606168  0.40400062  1  0.098567  0  0.106805  0.112539  0  1.001591  0
H  H20  1  0.47521677  0.60541397  0.21554353  1  0.07873  0  0.100174  0.100115  0  1.042008  0
H  H21  1  0.43745476  0.82006573  0.21673117  1  0.04756  0  0.1011  0.100964  0  1.019207  0
H  H22  1  0.52692044  0.77501751  0.34412180  1  0.031925  0  0.10246  0.102605  0  1.018451  0
H  H23  1  0.51217942  0.62220099  0.15262755  1  0.057295  0  0.103108  0.106817  0  0.998686  0
H  H24  1  0.47231318  0.58508330  0.06793087  1  0.107883  0  0.10532  0.111795  0  1.021642  0
H  H25  1  0.29559126  0.70464703  0.06901116  1  0.115269  0  0.106416  0.11102  0  0.993004  0
H  H26  1  0.33655676  0.74377020  0.15451461  1  0.048919  0  0.10126  0.101164  0  1.001417  0
H  H27  1  0.58587380  0.88927874  0.36068790  1  0.075568  0  0.103818  0.104866  0  1.000836  0
H  H28  1  0.59745011  0.02075154  0.39911984  1  0.105308  0  0.10852  0.1134  0  0.990681  0
H  H29  1  0.40002733  0.02846825  0.30050267  1  0.088379  0  0.106805  0.111443  0  0.993736  0
H  H30  1  0.38631892  0.89656738  0.26256172  1  0.034478  0  0.100802  0.100331  0  1.004133  0
H  H31  1  0.39540600  0.45295939  0.47560310  1  0.111733  0  0.105581  0.112251  0  1.013985  0
H  H32  1  0.30329331  0.46315626  0.51590686  1  0.075166  0  0.098633  0.10345  0  1.025766  0
H  H33  1  0.17643880  0.26581646  0.41612219  1  0.044828  0  0.102055  0.102397  0  1.002976  0
H  H34  1  0.26971375  0.25652979  0.37580690  1  0.08975  0  0.107549  0.112469  0  0.993821  0
H  H35  1  0.25644779  0.41571251  0.56091513  1  0.021196  0  0.102599  0.107431  0  1.01993  0
H  H36  1  0.03615320  0.37310288  0.55911010  1  0.073592  0  0.101244  0.101829  0  1.012822  0
H  H37  1  0.08777079  0.32498079  0.43199728  1  0.064562  0  0.10179  0.101753  0  1.01885  0
H  H38  1  0.95332518  0.26689309  0.51301355  1  0.075442  0  0.101433  0.101135  0  1.001219  0
H  H39  1  0.82090887  0.23694904  0.47294201  1  0.081823  0  0.10686  0.112657  0  0.994803  0
H  H40  1  0.84734243  0.34354142  0.37540688  1  0.117279  0  0.107599  0.112242  0  0.99716  0
H  H41  1  0.97968940  0.37396355  0.41511438  1  0.055359  0  0.104626  0.106693  0  0.997288  0
H  H42  1  0.22954846  0.52713917  0.61992576  1  0.07056  0  0.102638  0.107876  0  1.0089  0
H  H43  1  0.26649891  0.57358811  0.70513987  1  0.10486  0  0.109615  0.11616  0  0.990121  0
H  H44  1  0.15926160  0.37604785  0.70928535  1  0.08328  0  0.10706  0.112004  0  0.993901  0
H  H45  1  0.11821849  0.33053164  0.62357758  1  0.040675  0  0.101713  0.102304  0  0.998446  0
H  H46  1  0.48492881  0.61718180  0.79285372  1  0.111429  0  0.105703  0.109742  0  1.013907  0
H  H47  1  0.57652973  0.57720995  0.75479180  1  0.079473  0  0.103805  0.106663  0  0.99871  0
H  H48  1  0.67607811  0.49352020  0.86519817  1  0.078533  0  0.10431  0.107346  0  0.996371  0
H  H49  1  0.58606355  0.53736928  0.90400166  1  0.098531  0  0.106781  0.112501  0  1.001611  0
H  H50  1  0.60541464  0.47521700  0.71554373  1  0.078743  0  0.10018  0.100129  0  1.041998  0
H  H51  1  0.82006654  0.43745411  0.71673084  1  0.047587  0  0.101084  0.100875  0  1.019067  0
H  H52  1  0.77501850  0.52692110  0.84412239  1  0.031911  0  0.102454  0.102596  0  1.018464  0
H  H53  1  0.62220095  0.51217916  0.65262787  1  0.057289  0  0.103125  0.106865  0  0.998664  0
H  H54  1  0.58508260  0.47231413  0.56793096  1  0.107869  0  0.105317  0.1118  0  1.021612  0
H  H55  1  0.70464638  0.29559136  0.56901069  1  0.115276  0  0.106421  0.111019  0  0.99301  0
H  H56  1  0.74377060  0.33655686  0.65451400  1  0.04895  0  0.101276  0.101184  0  1.001434  0
H  H57  1  0.88927960  0.58587412  0.86068777  1  0.075376  0  0.103779  0.104791  0  1.000864  0
H  H58  1  0.02075214  0.59745106  0.89911980  1  0.105296  0  0.10855  0.113456  0  0.990663  0
H  H59  1  0.02846831  0.40002756  0.80050297  1  0.088377  0  0.106803  0.111441  0  0.993744  0
H  H60  1  0.89656796  0.38631928  0.76256147  1  0.034466  0  0.100835  0.100361  0  1.004063  0
H  H61  1  0.45295937  0.39540595  0.97560286  1  0.111735  0  0.105568  0.112233  0  1.013956  0
H  H62  1  0.46315512  0.30329370  0.01590720  1  0.075182  0  0.098656  0.103451  0  1.025764  0
H  H63  1  0.26581695  0.17643820  0.91612192  1  0.044816  0  0.10205  0.102369  0  1.003002  0
H  H64  1  0.25653024  0.26971249  0.87580593  1  0.089606  0  0.107562  0.112506  0  0.993762  0
H  H65  1  0.41571202  0.25644728  0.06091511  1  0.02111  0  0.102614  0.107444  0  1.019938  0
H  H66  1  0.37310234  0.03615191  0.05910956  1  0.073732  0  0.101261  0.101853  0  1.012769  0
H  H67  1  0.32498086  0.08777039  0.93199692  1  0.064553  0  0.101774  0.10174  0  1.018871  0
H  H68  1  0.26689110  0.95332549  0.01301250  1  0.075443  0  0.101437  0.101134  0  1.001254  0
H  H69  1  0.23694828  0.82090900  0.97294192  1  0.081807  0  0.106856  0.112647  0  0.994817  0
H  H70  1  0.34354190  0.84734097  0.87540702  1  0.117248  0  0.107589  0.112246  0  0.997156  0
H  H71  1  0.37396362  0.97968818  0.91511390  1  0.055518  0  0.104612  0.106698  0  0.997314  0
H  H72  1  0.52713839  0.22954873  0.11992639  1  0.070604  0  0.10264  0.107862  0  1.008902  0
H  H73  1  0.57358590  0.26650047  0.20514017  1  0.1049  0  0.109595  0.116145  0  0.990135  0
H  H74  1  0.37604644  0.15925978  0.20928431  1  0.083258  0  0.107045  0.111995  0  0.99388  0
H  H75  1  0.33053174  0.11821559  0.12357662  1  0.040622  0  0.101694  0.102286  0  0.998475  0
H  H76  1  0.51507200  0.38281757  0.20714693  1  0.111432  0  0.105722  0.109732  0  1.013975  0
H  H77  1  0.42347000  0.42278818  0.24520816  1  0.079438  0  0.103836  0.106719  0  0.998684  0
H  H78  1  0.32392269  0.50647864  0.13480145  1  0.078565  0  0.104248  0.1072  0  0.996397  0
H  H79  1  0.41393780  0.46262965  0.09599870  1  0.098574  0  0.106811  0.11256  0  1.001577  0
H  H80  1  0.39458617  0.52478397  0.28445657  1  0.078722  0  0.100184  0.100143  0  1.041953  0
H  H81  1  0.17993372  0.56254518  0.28326877  1  0.047568  0  0.101067  0.100902  0  1.01914  0
H  H82  1  0.22498338  0.47308004  0.15587843  1  0.031933  0  0.10248  0.102656  0  1.018415  0
H  H83  1  0.37779877  0.48782058  0.34737235  1  0.057302  0  0.103113  0.10683  0  0.998666  0
H  H84  1  0.41491605  0.52768597  0.43206882  1  0.107902  0  0.105308  0.11181  0  1.021615  0
H  H85  1  0.29535389  0.70440900  0.43098972  1  0.11527  0  0.106416  0.110987  0  0.992997  0
H  H86  1  0.25622966  0.66344403  0.34548619  1  0.049528  0  0.101279  0.101205  0  1.001409  0
H  H87  1  0.11072336  0.41412453  0.13931156  1  0.075474  0  0.103803  0.104785  0  1.000872  0
H  H88  1  0.97925136  0.40254768  0.10088089  1  0.105294  0  0.10854  0.113459  0  0.990685  0
H  H89  1  0.97153195  0.59996960  0.19949628  1  0.088451  0  0.106819  0.11148  0  0.993726  0
H  H90  1  0.10343176  0.61367886  0.23743818  1  0.034518  0  0.100833  0.100359  0  1.004208  0
H  H91  1  0.54704035  0.60459378  0.02439674  1  0.111767  0  0.105542  0.112167  0  1.013951  0
H  H92  1  0.53684353  0.69670693  0.98409299  1  0.075164  0  0.098632  0.103457  0  1.025765  0
H  H93  1  0.73418278  0.82356154  0.08387735  1  0.044826  0  0.102054  0.102378  0  1.003  0
H  H94  1  0.74347002  0.73028680  0.12419305  1  0.089761  0  0.107548  0.112499  0  0.993785  0
H  H95  1  0.58428825  0.74355201  0.93908481  1  0.021186  0  0.102609  0.107419  0  1.019931  0
H  H96  1  0.62689739  0.96384729  0.94088963  1  0.073574  0  0.101257  0.101848  0  1.012801  0
H  H97  1  0.67501886  0.91222988  0.06800245  1  0.064576  0  0.101779  0.101726  0  1.018855  0
H  H98  1  0.73310808  0.04667416  0.98698668  1  0.075442  0  0.101435  0.101141  0  1.001232  0
H  H99  1  0.76305036  0.17909057  0.02705715  1  0.081839  0  0.106871  0.11266  0  0.994763  0
H  H100  1  0.65645945  0.15265795  0.12459334  1  0.117276  0  0.107581  0.112206  0  0.99719  0
H  H101  1  0.62603556  0.02031147  0.08488559  1  0.055508  0  0.104629  0.106693  0  0.997282  0
H  H102  1  0.47286242  0.77045171  0.88007287  1  0.070644  0  0.102621  0.10785  0  1.008973  0
H  H103  1  0.42641383  0.73349979  0.79485920  1  0.104904  0  0.109603  0.116142  0  0.990114  0
H  H104  1  0.62395437  0.84073959  0.79071478  1  0.083252  0  0.107075  0.111999  0  0.993882  0
H  H105  1  0.66946961  0.88178174  0.87642253  1  0.040635  0  0.101717  0.102337  0  0.998379  0
H  H106  1  0.38281794  0.51507168  0.70714710  1  0.111455  0  0.10573  0.109755  0  1.013956  0
H  H107  1  0.42278978  0.42347024  0.74520825  1  0.079466  0  0.103788  0.106649  0  0.998741  0
H  H108  1  0.50647924  0.32392208  0.63480148  1  0.078528  0  0.104289  0.107308  0  0.996379  0
H  H109  1  0.46262998  0.41393637  0.59599829  1  0.098538  0  0.106792  0.112532  0  1.001596  0
H  H110  1  0.52478458  0.39458656  0.78445678  1  0.078728  0  0.100172  0.100134  0  1.041992  0
H  H111  1  0.56254550  0.17993356  0.78326875  1  0.047558  0  0.101107  0.100989  0  1.019212  0
H  H112  1  0.47308037  0.22498293  0.65587841  1  0.031943  0  0.10247  0.102593  0  1.018477  0
H  H113  1  0.48782031  0.37779928  0.84737213  1  0.057286  0  0.103122  0.106846  0  0.99866  0
H  H114  1  0.52768547  0.41491679  0.93206861  1  0.107887  0  0.105305  0.111814  0  1.021605  0
H  H115  1  0.70440793  0.29535422  0.93098986  1  0.115254  0  0.106413  0.111007  0  0.993015  0
H  H116  1  0.66344351  0.25623016  0.84548644  1  0.049201  0  0.101296  0.101216  0  1.001408  0
H  H117  1  0.41412485  0.11072402  0.63931202  1  0.075504  0  0.103784  0.104769  0  1.000834  0
H  H118  1  0.40254800  0.97925166  0.60088038  1  0.105274  0  0.108564  0.113481  0  0.990694  0
H  H119  1  0.59996862  0.97153088  0.69949650  1  0.088463  0  0.106837  0.111479  0  0.993701  0
H  H120  1  0.61367810  0.10343139  0.73743789  1  0.034578  0  0.100815  0.100317  0  1.004255  0
H  H121  1  0.60459373  0.54703981  0.52439671  1  0.111735  0  0.105544  0.11218  0  1.013948  0
H  H122  1  0.69670696  0.53684356  0.48409283  1  0.075155  0  0.098642  0.103463  0  1.025782  0
H  H123  1  0.82356201  0.73418344  0.58387792  1  0.044825  0  0.102055  0.102362  0  1.002987  0
H  H124  1  0.73028651  0.74347003  0.62419311  1  0.089728  0  0.107551  0.112491  0  0.993776  0
H  H125  1  0.74355302  0.58428793  0.43908508  1  0.021119  0  0.102617  0.107472  0  1.019934  0
H  H126  1  0.96384707  0.62689854  0.44089018  1  0.07359  0  0.101248  0.101845  0  1.012776  0
H  H127  1  0.91223002  0.67501965  0.56800324  1  0.064548  0  0.101778  0.101734  0  1.018864  0
H  H128  1  0.04667563  0.73310735  0.48698666  1  0.075439  0  0.101402  0.101102  0  1.001281  0
H  H129  1  0.17909194  0.76305033  0.52705802  1  0.081862  0  0.106855  0.112644  0  0.994811  0
H  H130  1  0.15265783  0.65645840  0.62459345  1  0.117266  0  0.107573  0.112203  0  0.997187  0
H  H131  1  0.02031086  0.62603680  0.58488572  1  0.055361  0  0.104615  0.106695  0  0.997279  0
H  H132  1  0.77045127  0.47286216  0.38007348  1  0.070608  0  0.10264  0.10787  0  1.008916  0
H  H133  1  0.73350028  0.42641421  0.29486007  1  0.104912  0  0.1096  0.116149  0  0.990111  0
H  H134  1  0.84074136  0.62395293  0.29071559  1  0.083262  0  0.107049  0.111994  0  0.993886  0
H  H135  1  0.88178394  0.66946746  0.37642267  1  0.040655  0  0.1017  0.102323  0  0.998468  0
C  C136  1  0.59779049  0.47036614  0.37067380  1  1.530912  0  0.221552  0.592002  0  4.181106  0
C  C137  1  0.57970449  0.52974603  0.35069450  1  -0.031527  0  -0.023981  -0.057222  0  3.997268  0
C  C138  1  0.59074468  0.52750424  0.30859299  1  -0.098806  0  -0.082308  -0.079962  0  3.982301  0
C  C139  1  0.56762314  0.57856031  0.28728352  1  -0.003807  0  -0.087744  -0.129566  0  3.973776  0
C  C140  1  0.53200886  0.63284754  0.30703231  1  -0.016688  0  0.000462  0.079755  0  3.984809  0
C  C141  1  0.52236085  0.63551000  0.34971002  1  -0.110479  0  -0.089516  -0.13629  0  3.972446  0
C  C142  1  0.54623600  0.58486593  0.37145536  1  0.010809  0  -0.081812  -0.083432  0  3.982088  0
C  C143  1  0.50497113  0.68464243  0.28267771  1  -0.055155  0  -0.006702  0.077625  0  4.024806  0
C  C144  1  0.47839186  0.66190475  0.23454191  1  -0.024781  0  -0.08607  -0.174371  0  3.919987  0
C  C145  1  0.45291584  0.70994541  0.21049167  1  0.130851  0  -0.007332  0.077445  0  4.027317  0
C  C146  1  0.45406227  0.78169206  0.23535338  1  -0.182534  0  -0.086262  -0.176023  0  3.926614  0
C  C147  1  0.48086318  0.80614209  0.28350481  1  0.035733  0  -0.008259  0.07375  0  4.026904  0
C  C148  1  0.50576209  0.75679707  0.30672616  1  -0.001901  0  -0.085935  -0.175501  0  3.925775  0
C  C149  1  0.42740225  0.68597492  0.15975137  1  -0.101331  0  -0.000312  0.079929  0  3.9885  0
C  C150  1  0.46435206  0.64019483  0.13456245  1  -0.102545  0  -0.0869  -0.128986  0  3.966829  0
C  C151  1  0.44213662  0.61929720  0.08683855  1  0.05253  0  -0.079885  -0.07927  0  3.963055  0
C  C152  1  0.38126614  0.64263318  0.06297282  1  -0.011398  0  -0.022582  -0.050073  0  3.982753  0
C  C153  1  0.34320999  0.68727068  0.08774594  1  -0.036492  0  -0.082842  -0.086123  0  3.986162  0
C  C154  1  0.36649336  0.70914717  0.13550244  1  -0.023904  0  -0.091679  -0.137097  0  3.989109  0
C  C155  1  0.48565336  0.88326868  0.30843842  1  -0.013372  0  -0.000149  0.083705  0  3.982122  0
C  C156  1  0.54407856  0.91913998  0.34783992  1  -0.097428  0  -0.090494  -0.137174  0  3.976867  0
C  C157  1  0.55117425  0.99287564  0.36931414  1  0.031557  0  -0.080306  -0.08013  0  3.979134  0
C  C158  1  0.49976870  0.03286088  0.35192189  1  -0.056452  0  -0.021945  -0.049877  0  3.985337  0
C  C159  1  0.44011551  0.99719961  0.31352354  1  0.006376  0  -0.081712  -0.080713  0  3.982841  0
C  C160  1  0.43317017  0.92355421  0.29225467  1  -0.023475  0  -0.092336  -0.138878  0  3.987146  0
C  C161  1  0.39708721  0.34556343  0.40172463  1  1.520593  0  0.224261  0.601766  0  4.169258  0
C  C162  1  0.33818972  0.35415534  0.42310678  1  0.016194  0  -0.025007  -0.056342  0  3.998548  0
C  C163  1  0.34712353  0.41236391  0.46257525  1  -0.047906  0  -0.080788  -0.077119  0  3.966218  0
C  C164  1  0.29512125  0.41777646  0.48513432  1  -0.021495  0  -0.08963  -0.127528  0  3.958747  0
C  C165  1  0.23270439  0.36544410  0.46876960  1  -0.033084  0  -0.001047  0.079897  0  3.988769  0
C  C166  1  0.22370746  0.30777777  0.42873532  1  -0.040952  0  -0.091458  -0.13739  0  3.988263  0
C  C167  1  0.27576674  0.30198116  0.40618130  1  -0.044712  0  -0.08268  -0.083194  0  3.992766  0
C  C168  1  0.17842260  0.36982216  0.49348390  1  0.045858  0  -0.006654  0.079317  0  4.029555  0
C  C169  1  0.19946734  0.39732433  0.54157896  1  -0.011234  0  -0.085065  -0.173894  0  3.920886  0
C  C170  1  0.14873654  0.39763398  0.56538811  1  0.004616  0  -0.007928  0.075869  0  4.044241  0
C  C171  1  0.07600171  0.37086077  0.54067036  1  -0.002756  0  -0.087847  -0.179597  0  3.935962  0
C  C172  1  0.05326700  0.34570922  0.49253235  1  -0.094318  0  -0.008997  0.074425  0  4.039288  0
C  C173  1  0.10501366  0.34511638  0.46941841  1  -0.061758  0  -0.087614  -0.180322  0  3.935153  0
C  C174  1  0.97567174  0.32319063  0.46710130  1  0.013935  0  0.000192  0.083809  0  3.992783  0
C  C175  1  0.93024328  0.28405843  0.48296900  1  -0.048089  0  -0.091184  -0.137424  0  3.99414  0
C  C176  1  0.85648468  0.26682164  0.46066264  1  0.008215  0  -0.082197  -0.08233  0  3.989144  0
C  C177  1  0.82621091  0.28887942  0.42209596  1  -0.026641  0  -0.023668  -0.053133  0  3.995521  0
C  C178  1  0.87122435  0.32636058  0.40529207  1  -0.013095  0  -0.080369  -0.079937  0  3.979  0
C  C179  1  0.94517988  0.34288384  0.42746360  1  -0.135403  0  -0.090151  -0.136112  0  3.975062  0
C  C180  1  0.17140240  0.42560313  0.61602973  1  -0.051069  0  0.000333  0.083451  0  3.995827  0
C  C181  1  0.21374567  0.49396149  0.63937220  1  -0.11144  0  -0.088654  -0.131763  0  3.965002  0
C  C182  1  0.23451233  0.52016164  0.68706552  1  0.074403  0  -0.079222  -0.080454  0  3.976651  0
C  C183  1  0.21521174  0.47743384  0.71233077  1  0.030487  0  -0.024025  -0.053597  0  3.991937  0
C  C184  1  0.17335547  0.40892109  0.68922791  1  -0.031401  0  -0.08311  -0.084699  0  3.988723  0
C  C185  1  0.15072289  0.38384869  0.64153973  1  -0.043589  0  -0.091627  -0.138136  0  3.992525  0
C  C186  1  0.23968933  0.50364279  0.76341436  1  1.511932  0  0.225404  0.606041  0  4.165425  0
C  C187  1  0.74638384  0.27656954  0.40178084  1  1.530588  0  0.224763  0.604619  0  4.174062  0
C  C188  1  0.51043191  0.11298582  0.37147021  1  1.560206  0  0.224773  0.602997  0  4.17101  0
C  C189  1  0.35773729  0.62080887  0.01183382  1  1.528762  0  0.227281  0.60617  0  4.162864  0
C  C190  1  0.47036667  0.59779145  0.87067546  1  1.530912  0  0.221561  0.591994  0  4.181074  0
C  C191  1  0.52974732  0.57970517  0.85069652  1  -0.03164  0  -0.023999  -0.057133  0  3.997156  0
C  C192  1  0.52750652  0.59074521  0.80859484  1  -0.098681  0  -0.082385  -0.08017  0  3.982369  0
C  C193  1  0.57856115  0.56762195  0.78728387  1  -0.003187  0  -0.087657  -0.129335  0  3.97391  0
C  C194  1  0.63284615  0.53200836  0.80703237  1  -0.017297  0  0.000415  0.079666  0  3.985073  0
C  C195  1  0.63551157  0.52236102  0.84970974  1  -0.11052  0  -0.089574  -0.136418  0  3.972553  0
C  C196  1  0.58486753  0.54623583  0.87145600  1  0.01083  0  -0.081695  -0.083309  0  3.982019  0
C  C197  1  0.68464226  0.50497166  0.78267843  1  -0.055126  0  -0.006702  0.077584  0  4.024884  0
C  C198  1  0.66190518  0.47839204  0.73454204  1  -0.024864  0  -0.086061  -0.174365  0  3.919899  0
C  C199  1  0.70994682  0.45291664  0.71049141  1  0.130995  0  -0.007306  0.077497  0  4.027231  0
C  C200  1  0.78169315  0.45406409  0.73535384  1  -0.182583  0  -0.086342  -0.176015  0  3.926599  0
C  C201  1  0.80614258  0.48086541  0.78350461  1  0.035742  0  -0.008205  0.07379  0  4.027001  0
C  C202  1  0.75679734  0.50576187  0.80672617  1  -0.00185  0  -0.085925  -0.175468  0  3.925832  0
C  C203  1  0.68597464  0.42740286  0.65975079  1  -0.101357  0  -0.000277  0.080048  0  3.988359  0
C  C204  1  0.64019503  0.46435278  0.63456232  1  -0.10258  0  -0.086923  -0.129095  0  3.966813  0
C  C205  1  0.61929717  0.44213670  0.58683890  1  0.052541  0  -0.079884  -0.079274  0  3.963044  0
C  C206  1  0.64263334  0.38126638  0.56297289  1  -0.011146  0  -0.022588  -0.050054  0  3.982748  0
C  C207  1  0.68727101  0.34321080  0.58774578  1  -0.036755  0  -0.082845  -0.086123  0  3.986205  0
C  C208  1  0.70914727  0.36649377  0.63550249  1  -0.02392  0  -0.091716  -0.137186  0  3.989156  0
C  C209  1  0.88326984  0.48565535  0.80843763  1  -0.012903  0  -0.000208  0.083624  0  3.982211  0
C  C210  1  0.91914134  0.54407931  0.84783928  1  -0.097143  0  -0.09041  -0.137017  0  3.976914  0
C  C211  1  0.99287609  0.55117465  0.86931358  1  0.02781  0  -0.080338  -0.080213  0  3.979149  0
C  C212  1  0.03286156  0.49976936  0.85192177  1  -0.052658  0  -0.021999  -0.049979  0  3.985395  0
C  C213  1  0.99719996  0.44011526  0.81352343  1  0.006349  0  -0.081676  -0.080669  0  3.982799  0
C  C214  1  0.92355461  0.43317079  0.79225381  1  -0.024043  0  -0.092322  -0.138838  0  3.987001  0
C  C215  1  0.34556490  0.39708713  0.90172404  1  1.520464  0  0.224196  0.601779  0  4.169234  0
C  C216  1  0.35415591  0.33818904  0.92310623  1  0.016036  0  -0.02501  -0.05642  0  3.998716  0
C  C217  1  0.41236343  0.34712321  0.96257457  1  -0.047911  0  -0.080797  -0.077126  0  3.966269  0
C  C218  1  0.41777605  0.29512127  0.98513399  1  -0.021464  0  -0.08961  -0.127449  0  3.958666  0
C  C219  1  0.36544250  0.23270431  0.96876968  1  -0.033323  0  -0.00105  0.07983  0  3.988786  0
C  C220  1  0.30777806  0.22370629  0.92873461  1  -0.040732  0  -0.091435  -0.137312  0  3.988263  0
C  C221  1  0.30198236  0.27576547  0.90618043  1  -0.044519  0  -0.082716  -0.083233  0  3.992785  0
C  C222  1  0.36982145  0.17842269  0.99348382  1  0.04584  0  -0.006631  0.079357  0  4.02955  0
C  C223  1  0.39732439  0.19946771  0.04157822  1  -0.011159  0  -0.085081  -0.173901  0  3.920911  0
C  C224  1  0.39763308  0.14873597  0.06538704  1  0.004687  0  -0.007928  0.075817  0  4.044271  0
C  C225  1  0.37085939  0.07600045  0.04066971  1  -0.002905  0  -0.08781  -0.179543  0  3.935842  0
C  C226  1  0.34570768  0.05326675  0.99253172  1  -0.094483  0  -0.009021  0.074444  0  4.039285  0
C  C227  1  0.34511508  0.10501315  0.96941843  1  -0.061761  0  -0.087627  -0.180354  0  3.935187  0
C  C228  1  0.32318822  0.97567119  0.96710054  1  0.014041  0  0.000202  0.08376  0  3.992807  0
C  C229  1  0.28405643  0.93024285  0.98296801  1  -0.048163  0  -0.091176  -0.137361  0  3.994173  0
C  C230  1  0.26681960  0.85648435  0.96066226  1  0.008307  0  -0.082182  -0.082336  0  3.989083  0
C  C231  1  0.28887916  0.82621100  0.92209593  1  -0.026638  0  -0.023665  -0.053107  0  3.995548  0
C  C232  1  0.32635978  0.87122331  0.90529145  1  -0.013099  0  -0.080342  -0.079885  0  3.979026  0
C  C233  1  0.34288315  0.94517909  0.92746306  1  -0.135523  0  -0.090186  -0.1362  0  3.975093  0
C  C234  1  0.42560109  0.17140120  0.11602992  1  -0.050683  0  0.000265  0.083339  0  3.995999  0
C  C235  1  0.49395947  0.21374485  0.13937182  1  -0.111423  0  -0.088575  -0.131593  0  3.965038  0
C  C236  1  0.52015987  0.23451288  0.18706511  1  0.0744  0  -0.0792  -0.080479  0  3.976752  0
C  C237  1  0.47743134  0.21521169  0.21232920  1  0.030649  0  -0.024026  -0.053536  0  3.991955  0
C  C238  1  0.40891977  0.17335375  0.18922720  1  -0.031456  0  -0.083185  -0.084828  0  3.988759  0
C  C239  1  0.38384672  0.15072021  0.14153876  1  -0.043998  0  -0.091549  -0.138023  0  3.992543  0
C  C240  1  0.50364072  0.23968927  0.26341380  1  1.511994  0  0.225359  0.606  0  4.165508  0
C  C241  1  0.27656972  0.74638381  0.90178083  1  1.530598  0  0.224776  0.604622  0  4.174072  0
C  C242  1  0.11298722  0.51043343  0.87146970  1  1.560233  0  0.224761  0.603021  0  4.17093  0
C  C243  1  0.62080823  0.35773925  0.51183435  1  1.528756  0  0.227256  0.60612  0  4.162963  0
C  C244  1  0.52963305  0.40220775  0.12932531  1  1.530913  0  0.221592  0.592059  0  4.180968  0
C  C245  1  0.47025403  0.42029430  0.14930456  1  -0.031544  0  -0.024023  -0.057223  0  3.997081  0
C  C246  1  0.47249537  0.40925434  0.19140665  1  -0.098784  0  -0.082269  -0.079913  0  3.982132  0
C  C247  1  0.42143965  0.43237743  0.21271679  1  -0.003384  0  -0.087721  -0.129485  0  3.973718  0
C  C248  1  0.36715304  0.46799129  0.19296806  1  -0.017337  0  0.000389  0.079639  0  3.984949  0
C  C249  1  0.36448977  0.47763791  0.15028999  1  -0.110455  0  -0.089461  -0.13614  0  3.972314  0
C  C250  1  0.41513382  0.45376309  0.12854436  1  0.010791  0  -0.081842  -0.083559  0  3.982027  0
C  C251  1  0.31535908  0.49502887  0.21732251  1  -0.055179  0  -0.006764  0.077489  0  4.024944  0
C  C252  1  0.33809563  0.52160894  0.26545826  1  -0.024938  0  -0.086031  -0.174326  0  3.919946  0
C  C253  1  0.29005344  0.54708264  0.28950788  1  0.130911  0  -0.007317  0.077444  0  4.027301  0
C  C254  1  0.21830766  0.54593741  0.26464623  1  -0.182548  0  -0.086292  -0.176012  0  3.926671  0
C  C255  1  0.19385769  0.51913601  0.21649536  1  0.035713  0  -0.008196  0.07385  0  4.027014  0
C  C256  1  0.24320400  0.49423812  0.19327406  1  -0.001832  0  -0.085912  -0.175463  0  3.925664  0
C  C257  1  0.31402509  0.57259848  0.34024844  1  -0.101312  0  -0.000251  0.080053  0  3.988483  0
C  C258  1  0.35980416  0.53564794  0.36543735  1  -0.102341  0  -0.086898  -0.128992  0  3.966846  0
C  C259  1  0.38070148  0.55786180  0.41316093  1  0.052319  0  -0.079952  -0.079421  0  3.963051  0
C  C260  1  0.35736693  0.61873291  0.43702798  1  -0.011273  0  -0.022573  -0.050006  0  3.982794  0
C  C261  1  0.31272926  0.65678849  0.41225509  1  -0.036752  0  -0.082862  -0.086109  0  3.986189  0
C  C262  1  0.29085407  0.63350729  0.36449854  1  -0.024465  0  -0.091758  -0.13724  0  3.989153  0
C  C263  1  0.11673151  0.51434411  0.19156187  1  -0.012845  0  -0.0002  0.083499  0  3.982414  0
C  C264  1  0.08086055  0.45591863  0.15216037  1  -0.097258  0  -0.090464  -0.136988  0  3.976887  0
C  C265  1  0.00712526  0.44882428  0.13068615  1  0.028014  0  -0.080359  -0.080237  0  3.979148  0
C  C266  1  0.96713762  0.50022709  0.14807781  1  -0.05271  0  -0.021985  -0.049993  0  3.985393  0
C  C267  1  0.00280085  0.55988252  0.18647507  1  0.006118  0  -0.081697  -0.080678  0  3.982594  0
C  C268  1  0.07644727  0.56682769  0.20774594  1  -0.024073  0  -0.0923  -0.138818  0  3.987094  0
C  C269  1  0.65443536  0.60291323  0.09827543  1  1.520483  0  0.224079  0.601549  0  4.169476  0
C  C270  1  0.64584382  0.66181122  0.07689377  1  0.016136  0  -0.02498  -0.056299  0  3.998669  0
C  C271  1  0.58763629  0.65287759  0.03742552  1  -0.04803  0  -0.080749  -0.077019  0  3.966268  0
C  C272  1  0.58222314  0.70487945  0.01486599  1  -0.021381  0  -0.089597  -0.127526  0  3.958776  0
C  C273  1  0.63455615  0.76729579  0.03123011  1  -0.033108  0  -0.001028  0.079908  0  3.988808  0
C  C274  1  0.69222167  0.77629344  0.07126435  1  -0.040967  0  -0.091516  -0.137384  0  3.988311  0
C  C275  1  0.69801845  0.72423444  0.09381906  1  -0.044648  0  -0.08268  -0.083257  0  3.99281  0
C  C276  1  0.63017773  0.82157749  0.00651607  1  0.045852  0  -0.006652  0.07929  0  4.02962  0
C  C277  1  0.60267533  0.80053202  0.95842106  1  -0.011245  0  -0.085096  -0.173884  0  3.920876  0
C  C278  1  0.60236611  0.85126315  0.93461205  1  0.004633  0  -0.007912  0.075868  0  4.044308  0
C  C279  1  0.62913979  0.92399866  0.95932938  1  -0.00276  0  -0.087796  -0.179552  0  3.935997  0
C  C280  1  0.65429042  0.94673272  0.00746724  1  -0.094347  0  -0.009023  0.07446  0  4.039372  0
C  C281  1  0.65488303  0.89498686  0.03058125  1  -0.061738  0  -0.087651  -0.180355  0  3.935234  0
C  C282  1  0.67681043  0.02432784  0.03289876  1  0.013932  0  0.000242  0.083822  0  3.992807  0
C  C283  1  0.71594114  0.06975654  0.01703116  1  -0.048062  0  -0.091233  -0.137489  0  3.994172  0
C  C284  1  0.73317905  0.14351628  0.03933793  1  0.008204  0  -0.082181  -0.082305  0  3.98902  0
C  C285  1  0.71112219  0.17378899  0.07790429  1  -0.026652  0  -0.023621  -0.053023  0  3.995481  0
C  C286  1  0.67363995  0.12877589  0.09470836  1  -0.013098  0  -0.080373  -0.079948  0  3.979017  0
C  C287  1  0.65711657  0.05482011  0.07253676  1  -0.135532  0  -0.090171  -0.1361  0  3.975071  0
C  C288  1  0.57439972  0.82859871  0.88397019  1  -0.050692  0  0.000276  0.083352  0  3.996063  0
C  C289  1  0.50604080  0.78625444  0.86062747  1  -0.111433  0  -0.088578  -0.131623  0  3.965106  0
C  C290  1  0.47984039  0.76548694  0.81293491  1  0.074394  0  -0.079214  -0.080448  0  3.976675  0
C  C291  1  0.52256785  0.78478742  0.78766989  1  0.030605  0  -0.024029  -0.053586  0  3.991981  0
C  C292  1  0.59108158  0.82664571  0.81077167  1  -0.031466  0  -0.083215  -0.084776  0  3.988752  0
C  C293  1  0.61615301  0.84927686  0.85846007  1  -0.043998  0  -0.091547  -0.138104  0  3.992559  0
C  C294  1  0.49635847  0.76031198  0.73658628  1  1.511839  0  0.225337  0.605934  0  4.165647  0
C  C295  1  0.72343001  0.25361646  0.09821917  1  1.530594  0  0.224677  0.604415  0  4.174307  0
C  C296  1  0.88701358  0.48956541  0.12852961  1  1.560409  0  0.224778  0.60309  0  4.170894  0
C  C297  1  0.37918988  0.64226130  0.48816668  1  1.528897  0  0.227318  0.606247  0  4.162904  0
C  C298  1  0.40220816  0.52963395  0.62932473  1  1.530897  0  0.221599  0.592062  0  4.181021  0
C  C299  1  0.42029415  0.47025460  0.64930381  1  -0.031539  0  -0.024104  -0.057365  0  3.997133  0
C  C300  1  0.40925504  0.47249496  0.69140557  1  -0.098836  0  -0.082304  -0.079949  0  3.982119  0
C  C301  1  0.43237821  0.42143969  0.71271639  1  -0.003324  0  -0.08766  -0.129432  0  3.973746  0
C  C302  1  0.46799195  0.36715290  0.69296790  1  -0.017277  0  0.000439  0.079767  0  3.984877  0
C  C303  1  0.47763942  0.36448928  0.65028959  1  -0.11048  0  -0.089534  -0.136329  0  3.97237  0
C  C304  1  0.45376372  0.41513327  0.62854414  1  0.010815  0  -0.081759  -0.083415  0  3.982056  0
C  C305  1  0.49502913  0.31535845  0.71732248  1  -0.055175  0  -0.006748  0.077496  0  4.024939  0
C  C306  1  0.52160895  0.33809516  0.76545790  1  -0.02493  0  -0.086057  -0.174394  0  3.919995  0
C  C307  1  0.54708173  0.29005398  0.78950845  1  0.130845  0  -0.007339  0.077528  0  4.02721  0
C  C308  1  0.54593800  0.21830829  0.76464704  1  -0.182524  0  -0.086293  -0.176146  0  3.926739  0
C  C309  1  0.51913601  0.19385863  0.71649643  1  0.035777  0  -0.008255  0.073778  0  4.027041  0
C  C310  1  0.49423872  0.24320337  0.69327437  1  -0.00194  0  -0.085874  -0.175357  0  3.925725  0
C  C311  1  0.57259802  0.31402543  0.84024905  1  -0.101219  0  -0.000261  0.08003  0  3.988379  0
C  C312  1  0.53564712  0.35980536  0.86543776  1  -0.102583  0  -0.086937  -0.129099  0  3.966857  0
C  C313  1  0.55786203  0.38070289  0.91316092  1  0.052474  0  -0.079839  -0.079226  0  3.962958  0
C  C314  1  0.61873251  0.35736745  0.93702737  1  -0.011142  0  -0.022619  -0.050083  0  3.982759  0
C  C315  1  0.65678866  0.31272942  0.91225480  1  -0.036728  0  -0.082829  -0.086105  0  3.986195  0
C  C316  1  0.63350744  0.29085381  0.86449849  1  -0.024149  0  -0.091771  -0.137226  0  3.989107  0
C  C317  1  0.51434475  0.11673186  0.69156261  1  -0.012898  0  -0.000168  0.083606  0  3.982379  0
C  C318  1  0.45591901  0.08086048  0.65216006  1  -0.097356  0  -0.090448  -0.137004  0  3.97672  0
C  C319  1  0.44882277  0.00712527  0.63068583  1  0.028341  0  -0.080409  -0.080274  0  3.979191  0
C  C320  1  0.50022617  0.96713808  0.64807771  1  -0.052939  0  -0.021949  -0.049984  0  3.985374  0
C  C321  1  0.55988205  0.00280138  0.68647528  1  0.006124  0  -0.081717  -0.080666  0  3.982566  0
C  C322  1  0.56682686  0.07644669  0.70774624  1  -0.024075  0  -0.0923  -0.138824  0  3.987244  0
C  C323  1  0.60291251  0.65443524  0.59827573  1  1.520512  0  0.224136  0.601648  0  4.169359  0
C  C324  1  0.66181163  0.64584465  0.57689407  1  0.016172  0  -0.025018  -0.056367  0  3.998668  0
C  C325  1  0.65287781  0.58763609  0.53742591  1  -0.047979  0  -0.080774  -0.077087  0  3.96623  0
C  C326  1  0.70487956  0.58222292  0.51486602  1  -0.021373  0  -0.0896  -0.127502  0  3.958778  0
C  C327  1  0.76729642  0.63455580  0.53123052  1  -0.033361  0  -0.00106  0.079885  0  3.988833  0
C  C328  1  0.77629281  0.69222152  0.57126492  1  -0.040685  0  -0.091394  -0.137241  0  3.988221  0
C  C329  1  0.72423352  0.69801760  0.59381917  1  -0.044703  0  -0.082682  -0.08323  0  3.992789  0
C  C330  1  0.82157713  0.63017864  0.50651650  1  0.045839  0  -0.006604  0.079326  0  4.029592  0
C  C331  1  0.80053239  0.60267647  0.45842176  1  -0.011067  0  -0.085138  -0.17401  0  3.921117  0
C  C332  1  0.85126318  0.60236736  0.43461269  1  0.004579  0  -0.007929  0.075839  0  4.044316  0
C  C333  1  0.92399964  0.62914189  0.45932999  1  -0.00275  0  -0.087805  -0.179551  0  3.935773  0
C  C334  1  0.94673381  0.65429282  0.50746844  1  -0.094479  0  -0.009012  0.074462  0  4.039241  0
C  C335  1  0.89498661  0.65488504  0.53058155  1  -0.06175  0  -0.087645  -0.180342  0  3.935158  0
C  C336  1  0.02432906  0.67681141  0.53289949  1  0.014127  0  0.000244  0.083814  0  3.992857  0
C  C337  1  0.06975753  0.71594201  0.51703152  1  -0.04812  0  -0.091172  -0.137394  0  3.99427  0
C  C338  1  0.14351613  0.73317880  0.53933757  1  0.008164  0  -0.082181  -0.082326  0  3.989021  0
C  C339  1  0.17378936  0.71112040  0.57790437  1  -0.026644  0  -0.023653  -0.053067  0  3.995486  0
C  C340  1  0.12877592  0.67364031  0.59470843  1  -0.013096  0  -0.080346  -0.079917  0  3.979124  0
C  C341  1  0.05482039  0.65711652  0.57253682  1  -0.135398  0  -0.090178  -0.136132  0  3.975077  0
C  C342  1  0.82859732  0.57439767  0.38397036  1  -0.050698  0  0.000336  0.083434  0  3.99587  0
C  C343  1  0.78625460  0.50603993  0.36062777  1  -0.111495  0  -0.088628  -0.131674  0  3.964958  0
C  C344  1  0.76548740  0.47984022  0.31293443  1  0.074428  0  -0.079171  -0.080474  0  3.976616  0
C  C345  1  0.78478961  0.52256722  0.28767057  1  0.030612  0  -0.024025  -0.05343  0  3.991796  0
C  C346  1  0.82664642  0.59108005  0.31077291  1  -0.031407  0  -0.08316  -0.084795  0  3.988727  0
C  C347  1  0.84927900  0.61615193  0.35846100  1  -0.044012  0  -0.091593  -0.13814  0  3.992556  0
C  C348  1  0.76031094  0.49635916  0.23658664  1  1.511816  0  0.22536  0.605897  0  4.165544  0
C  C349  1  0.25361696  0.72343036  0.59821960  1  1.530597  0  0.22474  0.604549  0  4.174166  0
C  C350  1  0.48956512  0.88701348  0.62852949  1  1.560425  0  0.224787  0.603123  0  4.170716  0
C  C351  1  0.64226028  0.37919052  0.98816598  1  1.528769  0  0.227265  0.606157  0  4.16298  0
O  O352  1  0.56403950  0.29998409  0.38754760  1  -1.233824  0  -0.572493  -1.025269  0  2.53374  0
O  O353  1  0.39095537  0.28644680  0.36996828  1  -1.175156  0  -0.31861  -0.547841  0  2.327853  0
O  O354  1  0.45042545  0.39726694  0.41711279  1  -1.177849  0  -0.321081  -0.560196  0  2.36215  0
O  O355  1  0.58817278  0.47500805  0.40965415  1  -1.172979  0  -0.320357  -0.555365  0  2.346617  0
O  O356  1  0.62026971  0.41800723  0.34701293  1  -1.180897  0  -0.314044  -0.551393  0  2.372618  0
O  O357  1  0.26404512  0.57097093  0.78267947  1  -1.177624  0  -0.318124  -0.548202  0  2.327976  0
O  O358  1  0.23477012  0.45641163  0.78397373  1  -1.175699  0  -0.31954  -0.553978  0  2.339778  0
O  O359  1  0.72058058  0.30461041  0.36989819  1  -1.170582  0  -0.318778  -0.548029  0  2.326502  0
O  O360  1  0.70956899  0.24027973  0.41827415  1  -1.1804  0  -0.321638  -0.558649  0  2.35152  0
O  O361  1  0.56648570  0.14322817  0.40593897  1  -1.177347  0  -0.318308  -0.547626  0  2.322043  0
O  O362  1  0.46349963  0.14557187  0.35164263  1  -1.182485  0  -0.319632  -0.555165  0  2.346779  0
O  O363  1  0.40283919  0.59355899  0.99208472  1  -1.175762  0  -0.313478  -0.547168  0  2.35886  0
O  O364  1  0.29477557  0.63106519  0.99172531  1  -1.181957  0  -0.316476  -0.55146  0  2.332706  0
O  O365  1  0.29998294  0.56403806  0.88754706  1  -1.233879  0  -0.572521  -1.025365  0  2.533908  0
O  O366  1  0.28644768  0.39095580  0.86996739  1  -1.175136  0  -0.318633  -0.547894  0  2.3278  0
O  O367  1  0.39726844  0.45042508  0.91711279  1  -1.177637  0  -0.321039  -0.560162  0  2.362141  0
O  O368  1  0.47500938  0.58817022  0.90965440  1  -1.173056  0  -0.320385  -0.555424  0  2.346638  0
O  O369  1  0.41800795  0.62026929  0.84701348  1  -1.180831  0  -0.314013  -0.551322  0  2.372527  0
O  O370  1  0.57096923  0.26404646  0.28267950  1  -1.177709  0  -0.318121  -0.548234  0  2.32802  0
O  O371  1  0.45641055  0.23477003  0.28397397  1  -1.175746  0  -0.319521  -0.55395  0  2.339915  0
O  O372  1  0.30461207  0.72058076  0.86989908  1  -1.170582  0  -0.318785  -0.548031  0  2.326548  0
O  O373  1  0.24027909  0.70956755  0.91827409  1  -1.180405  0  -0.321666  -0.558689  0  2.3515  0
O  O374  1  0.14322868  0.56648680  0.90593888  1  -1.177368  0  -0.318288  -0.547629  0  2.322038  0
O  O375  1  0.14557265  0.46349988  0.85164177  1  -1.182503  0  -0.319659  -0.555191  0  2.346702  0
O  O376  1  0.59355876  0.40283997  0.49208495  1  -1.175822  0  -0.313443  -0.547142  0  2.358914  0
O  O377  1  0.63106295  0.29477644  0.49172547  1  -1.181896  0  -0.316494  -0.55144  0  2.332726  0
O  O378  1  0.70001679  0.43596275  0.11245335  1  -1.23388  0  -0.572503  -1.025315  0  2.533834  0
O  O379  1  0.71355313  0.60904411  0.13003147  1  -1.175115  0  -0.3186  -0.547828  0  2.327881  0
O  O380  1  0.60273237  0.54957536  0.08288773  1  -1.177763  0  -0.320938  -0.560022  0  2.362171  0
O  O381  1  0.52499034  0.41182632  0.09034497  1  -1.173007  0  -0.320352  -0.555353  0  2.346523  0
O  O382  1  0.58199232  0.37973000  0.15298613  1  -1.180864  0  -0.31404  -0.551392  0  2.372542  0
O  O383  1  0.42903050  0.73595541  0.71731982  1  -1.177555  0  -0.318108  -0.548167  0  2.327991  0
O  O384  1  0.54358864  0.76523122  0.71602610  1  -1.175751  0  -0.319511  -0.553941  0  2.339971  0
O  O385  1  0.69538820  0.27941906  0.13010093  1  -1.170583  0  -0.31879  -0.547981  0  2.326611  0
O  O386  1  0.75972010  0.29043264  0.08172549  1  -1.180408  0  -0.321594  -0.558579  0  2.351558  0
O  O387  1  0.85677104  0.43351400  0.09406058  1  -1.177416  0  -0.318316  -0.54768  0  2.322071  0
O  O388  1  0.85443086  0.53650045  0.14835887  1  -1.182659  0  -0.319637  -0.555183  0  2.346661  0
O  O389  1  0.40643827  0.59715880  0.50791529  1  -1.175814  0  -0.31344  -0.547172  0  2.35892  0
O  O390  1  0.36893516  0.70522410  0.50827493  1  -1.181972  0  -0.316462  -0.551457  0  2.332676  0
O  O391  1  0.43596185  0.70001750  0.61245289  1  -1.233885  0  -0.572529  -1.025344  0  2.533912  0
O  O392  1  0.60904382  0.71355338  0.63003224  1  -1.175138  0  -0.318612  -0.547854  0  2.32785  0
O  O393  1  0.54957481  0.60273235  0.58288839  1  -1.177779  0  -0.320972  -0.560075  0  2.362151  0
O  O394  1  0.41182911  0.52499096  0.59034537  1  -1.173056  0  -0.320384  -0.555386  0  2.346631  0
O  O395  1  0.37973002  0.58199304  0.65298581  1  -1.180851  0  -0.314018  -0.551349  0  2.372616  0
O  O396  1  0.73595569  0.42903058  0.21731997  1  -1.177545  0  -0.318145  -0.548215  0  2.32801  0
O  O397  1  0.76523176  0.54358845  0.21602597  1  -1.175742  0  -0.319535  -0.553944  0  2.340002  0
O  O398  1  0.27941969  0.69538835  0.63010164  1  -1.17061  0  -0.3188  -0.548014  0  2.32654  0
O  O399  1  0.29043182  0.75972178  0.58172686  1  -1.180393  0  -0.321607  -0.558617  0  2.351544  0
O  O400  1  0.43351349  0.85677095  0.59406011  1  -1.177442  0  -0.318322  -0.547668  0  2.322033  0
O  O401  1  0.53649849  0.85442974  0.64835953  1  -1.182644  0  -0.319643  -0.555196  0  2.346504  0
O  O402  1  0.59715892  0.40643889  0.00791523  1  -1.175837  0  -0.31344  -0.547186  0  2.358961  0
O  O403  1  0.70522308  0.36893490  0.00827417  1  -1.181907  0  -0.316492  -0.55147  0  2.332698  0
