# generated using pymatgen
data_Cu2H15C24(NO6)2
_symmetry_space_group_name_H-M   'P 1'
_cell_length_a   18.77817576
_cell_length_b   18.77821619
_cell_length_c   35.09847410
_cell_angle_alpha   90.00009015
_cell_angle_beta   90.00010651
_cell_angle_gamma   90.00066321
_symmetry_Int_Tables_number   1
_chemical_formula_structural   Cu2H15C24(NO6)2
_chemical_formula_sum   'Cu16 H120 C192 N16 O96'
_cell_volume   12376.44654184
_cell_formula_units_Z   8
loop_
 _symmetry_equiv_pos_site_id
 _symmetry_equiv_pos_as_xyz
  1  'x, y, z'
loop_
 _atom_site_type_symbol
 _atom_site_label
 _atom_site_symmetry_multiplicity
 _atom_site_fract_x
 _atom_site_fract_y
 _atom_site_fract_z
 _atom_site_occupancy
 _atom_site_pbe_bader_charge
 _atom_site_pbe_bader_spin_density
 _atom_site_pbe_cm5_charge
 _atom_site_pbe_ddec_charge
 _atom_site_pbe_ddec_spin_density
 _atom_site_pbe_ddec_sum_bond_order
 _atom_site_pbe_magmom
Cu  Cu0  1  0.73992226  0.30344823  0.22363900  1  1.086392  0.577069  0.675985  0.83771  0.733759  2.311805  0.577
Cu  Cu1  1  0.69654411  0.73991596  0.22363916  1  1.086559  0.577076  0.676015  0.837845  0.733778  2.311844  0.577
Cu  Cu2  1  0.26007281  0.69655042  0.22363807  1  1.086625  0.577077  0.676046  0.837737  0.733751  2.311949  0.577
Cu  Cu3  1  0.30345469  0.26007950  0.22363904  1  1.086526  0.577069  0.675976  0.837701  0.733758  2.311876  0.577
Cu  Cu4  1  0.23992215  0.19654602  0.27636977  1  1.088126  0.577131  0.676003  0.837783  0.733751  2.312069  0.577
Cu  Cu5  1  0.76008056  0.80344853  0.27637000  1  1.088087  0.577132  0.67601  0.837748  0.733757  2.311973  0.577
Cu  Cu6  1  0.80345638  0.23991602  0.27636864  1  1.088038  0.57713  0.676026  0.837966  0.733765  2.311587  0.577
Cu  Cu7  1  0.19654207  0.76008492  0.27636942  1  1.088145  0.577134  0.676006  0.83786  0.733766  2.311818  0.577
Cu  Cu8  1  0.26008122  0.69654963  0.77636153  1  1.086611  0.577074  0.676003  0.837888  0.733769  2.311672  0.577
Cu  Cu9  1  0.30345512  0.26008031  0.77636250  1  1.086543  0.577076  0.67602  0.83777  0.733765  2.311823  0.577
Cu  Cu10  1  0.73992162  0.30345543  0.77636103  1  1.086509  0.577076  0.67597  0.837823  0.733766  2.311752  0.577
Cu  Cu11  1  0.69654932  0.73992049  0.77636119  1  1.086486  0.577077  0.675995  0.837702  0.733771  2.311919  0.577
Cu  Cu12  1  0.76008719  0.80345610  0.72363246  1  1.087979  0.577126  0.67597  0.837801  0.733769  2.311844  0.577
Cu  Cu13  1  0.23991973  0.19654667  0.72363280  1  1.087876  0.577126  0.67599  0.837687  0.733757  2.311992  0.577
Cu  Cu14  1  0.19654817  0.76007918  0.72362988  1  1.088127  0.577129  0.676001  0.83779  0.73375  2.311753  0.577
Cu  Cu15  1  0.80345502  0.23991827  0.72363168  1  1.087891  0.577126  0.676012  0.837756  0.733756  2.311886  0.577
H  H16  1  0.69245545  0.40974020  0.17488647  1  0.647223  -0.000109  0.333619  0.409046  -0.000125  0.870433  0.0
H  H17  1  0.59025227  0.69245602  0.17487913  1  0.647397  -0.000109  0.33363  0.409033  -0.000125  0.870236  0.0
H  H18  1  0.30753785  0.59025831  0.17488607  1  0.646996  -0.000109  0.333601  0.40897  -0.000125  0.870463  0.0
H  H19  1  0.40974849  0.30754409  0.17488287  1  0.647102  -0.000109  0.333615  0.408928  -0.000125  0.870418  0.0
H  H20  1  0.19245535  0.09024232  0.32512253  1  0.647195  -0.000109  0.333586  0.408958  -0.000125  0.870329  0.0
H  H21  1  0.80754646  0.90975024  0.32512119  1  0.647367  -0.000109  0.333632  0.40904  -0.000125  0.870317  0.0
H  H22  1  0.90975991  0.19245426  0.32512350  1  0.647157  -0.000109  0.333586  0.4089  -0.000125  0.870535  0.0
H  H23  1  0.09024084  0.80754682  0.32512307  1  0.647173  -0.000109  0.333557  0.408909  -0.000125  0.870481  0.0
H  H24  1  0.30754697  0.59025553  0.82511719  1  0.64749  -0.000109  0.333674  0.409006  -0.000125  0.870289  0.0
H  H25  1  0.40974801  0.30754184  0.82511883  1  0.647095  -0.000109  0.333592  0.408915  -0.000125  0.870412  0.0
H  H26  1  0.69245924  0.40975286  0.82511730  1  0.646988  -0.000109  0.333616  0.409044  -0.000125  0.870212  0.0
H  H27  1  0.59025446  0.69245218  0.82511481  1  0.647158  -0.000109  0.333664  0.409019  -0.000125  0.870282  0.0
H  H28  1  0.80754867  0.90975607  0.67487714  1  0.647249  -0.000109  0.333541  0.408934  -0.000125  0.870397  0.0
H  H29  1  0.19245755  0.09024230  0.67487962  1  0.647195  -0.000109  0.333578  0.408944  -0.000125  0.870318  0.0
H  H30  1  0.09024357  0.80754413  0.67487844  1  0.647219  -0.000109  0.333557  0.408907  -0.000125  0.870443  0.0
H  H31  1  0.90974986  0.19244732  0.67487660  1  0.647389  -0.000109  0.333623  0.409066  -0.000125  0.87028  0.0
H  H32  1  0.69807909  0.33962491  0.15152161  1  0.617594  -0.000108  0.331915  0.406749  -0.000126  0.873531  0.0
H  H33  1  0.66037196  0.69807887  0.15151861  1  0.617381  -0.000108  0.33191  0.406741  -0.000126  0.873604  0.0
H  H34  1  0.30191307  0.66037300  0.15152126  1  0.61757  -0.000108  0.331853  0.406583  -0.000126  0.873794  0.0
H  H35  1  0.33962925  0.30192064  0.15152170  1  0.617503  -0.000108  0.331903  0.406628  -0.000126  0.873694  0.0
H  H36  1  0.19807455  0.16035980  0.34848626  1  0.616861  -0.000108  0.331896  0.406744  -0.000126  0.873698  0.0
H  H37  1  0.80192308  0.83963336  0.34848485  1  0.616826  -0.000108  0.331939  0.406731  -0.000126  0.873676  0.0
H  H38  1  0.83964135  0.19807423  0.34848545  1  0.616928  -0.000108  0.331897  0.406792  -0.000126  0.873633  0.0
H  H39  1  0.16035948  0.80192798  0.34848509  1  0.616965  -0.000108  0.331901  0.406806  -0.000126  0.87359  0.0
H  H40  1  0.30192280  0.66037402  0.84847891  1  0.617585  -0.000108  0.331943  0.406767  -0.000126  0.873516  0.0
H  H41  1  0.33962726  0.30192059  0.84847878  1  0.617479  -0.000108  0.33191  0.406752  -0.000126  0.873557  0.0
H  H42  1  0.69807817  0.33963658  0.84848125  1  0.616976  -0.000108  0.331923  0.406748  -0.000126  0.873635  0.0
H  H43  1  0.66037210  0.69807296  0.84847768  1  0.617136  -0.000108  0.331973  0.406776  -0.000126  0.873425  0.0
H  H44  1  0.80192787  0.83963806  0.65151427  1  0.616839  -0.000108  0.331918  0.406792  -0.000126  0.873601  0.0
H  H45  1  0.19807561  0.16035865  0.65151510  1  0.61682  -0.000108  0.331903  0.406697  -0.000126  0.873719  0.0
H  H46  1  0.16036000  0.80192576  0.65151450  1  0.616896  -0.000108  0.331912  0.406749  -0.000126  0.873704  0.0
H  H47  1  0.83963176  0.19807361  0.65151430  1  0.616792  -0.000108  0.331871  0.406661  -0.000126  0.873729  0.0
H  H48  1  0.02165679  0.24877704  0.24283945  1  0.122094  0.000731  0.112787  0.129423  0.000593  0.993787  0.0
H  H49  1  0.75121942  0.02164840  0.24284200  1  0.122  0.000731  0.112768  0.129368  0.000593  0.993925  0.0
H  H50  1  0.97833622  0.75122167  0.24283928  1  0.122005  0.000731  0.11281  0.129497  0.000593  0.993632  0.0
H  H51  1  0.24877519  0.97834712  0.24283987  1  0.122076  0.000731  0.112783  0.129383  0.000593  0.993738  0.0
H  H52  1  0.52166919  0.25120351  0.25716397  1  0.122121  0.000731  0.11269  0.129345  0.000593  0.99327  0.0
H  H53  1  0.47832866  0.74879312  0.25716330  1  0.122091  0.000731  0.112693  0.129326  0.000593  0.993242  0.0
H  H54  1  0.74880517  0.52165596  0.25716163  1  0.122002  0.000731  0.112794  0.129493  0.000593  0.993567  0.0
H  H55  1  0.25120493  0.47833747  0.25716251  1  0.122042  0.000731  0.112684  0.129335  0.000593  0.993422  0.0
H  H56  1  0.97834723  0.75121337  0.75715936  1  0.121972  0.000731  0.112817  0.129472  0.000593  0.993764  0.0
H  H57  1  0.24878407  0.97834148  0.75715938  1  0.122012  0.000731  0.112819  0.129502  0.000593  0.993755  0.0
H  H58  1  0.02166353  0.24878577  0.75716095  1  0.121926  0.000731  0.112823  0.129512  0.000593  0.993607  0.0
H  H59  1  0.75121605  0.02165767  0.75716008  1  0.122054  0.000731  0.112797  0.129455  0.000593  0.993737  0.0
H  H60  1  0.47833909  0.74879595  0.74283513  1  0.122133  0.000731  0.112683  0.129352  0.000593  0.993275  0.0
H  H61  1  0.52166364  0.25121273  0.74283636  1  0.122023  0.000731  0.112744  0.129415  0.000593  0.993581  0.0
H  H62  1  0.25120364  0.47833924  0.74283747  1  0.122035  0.000731  0.112732  0.129419  0.000593  0.993544  0.0
H  H63  1  0.74878950  0.52166732  0.74283688  1  0.122028  0.000731  0.112702  0.129343  0.000593  0.993446  0.0
H  H64  1  0.14141449  0.29078370  0.14066785  1  0.174485  0.000417  0.11124  0.136292  0.000376  1.021924  0.0
H  H65  1  0.70922597  0.14140645  0.14067006  1  0.174747  0.000417  0.111231  0.13628  0.000376  1.021782  0.0
H  H66  1  0.85858828  0.70921524  0.14066297  1  0.174435  0.000417  0.111234  0.136259  0.000376  1.02189  0.0
H  H67  1  0.29077254  0.85858770  0.14066788  1  0.174586  0.000417  0.11124  0.136258  0.000376  1.021939  0.0
H  H68  1  0.64140972  0.20919024  0.35933996  1  0.174089  0.000417  0.11123  0.136114  0.000376  1.022048  0.0
H  H69  1  0.35858902  0.79081254  0.35933836  1  0.174072  0.000418  0.111207  0.136098  0.000376  1.022111  0.0
H  H70  1  0.79080319  0.64140947  0.35933595  1  0.174386  0.000418  0.111245  0.136213  0.000376  1.022039  0.0
H  H71  1  0.20918276  0.35859064  0.35933582  1  0.174225  0.000417  0.111228  0.136171  0.000376  1.022134  0.0
H  H72  1  0.85858899  0.70920670  0.85933068  1  0.17462  0.000417  0.111278  0.136323  0.000376  1.02174  0.0
H  H73  1  0.29078870  0.85858768  0.85933217  1  0.17452  0.000417  0.111254  0.136266  0.000376  1.021885  0.0
H  H74  1  0.14141094  0.29079433  0.85933584  1  0.174437  0.000417  0.111234  0.136261  0.000376  1.02188  0.0
H  H75  1  0.70921071  0.14141069  0.85933350  1  0.17453  0.000417  0.111262  0.136328  0.000376  1.021852  0.0
H  H76  1  0.35859110  0.79080283  0.64066113  1  0.174344  0.000418  0.111266  0.136201  0.000376  1.021937  0.0
H  H77  1  0.64140754  0.20919970  0.64066131  1  0.174374  0.000418  0.111279  0.13618  0.000376  1.021952  0.0
H  H78  1  0.20920082  0.35858945  0.64066230  1  0.174346  0.000418  0.111237  0.136195  0.000376  1.021927  0.0
H  H79  1  0.79081327  0.64141042  0.64066271  1  0.174152  0.000417  0.111213  0.13615  0.000376  1.022108  0.0
H  H80  1  0.91343750  0.32405811  0.14261961  1  0.098728  0.000369  0.107012  0.119736  0.00028  0.998395  0.0
H  H81  1  0.67594180  0.91343433  0.14262060  1  0.098633  0.000368  0.107074  0.119831  0.00028  0.998436  0.0
H  H82  1  0.08656475  0.67594990  0.14261964  1  0.09861  0.000368  0.10702  0.119791  0.00028  0.998465  0.0
H  H83  1  0.32405406  0.08656089  0.14261893  1  0.098668  0.000369  0.106976  0.119756  0.00028  0.998474  0.0
H  H84  1  0.41343317  0.17593176  0.35738220  1  0.098922  0.000368  0.106996  0.119693  0.00028  0.998422  0.0
H  H85  1  0.58656716  0.82406302  0.35738256  1  0.098971  0.000368  0.107018  0.119757  0.00028  0.998439  0.0
H  H86  1  0.82408253  0.41343753  0.35738251  1  0.098651  0.000368  0.106969  0.119639  0.00028  0.998539  0.0
H  H87  1  0.17591940  0.58656258  0.35737941  1  0.098923  0.000368  0.107031  0.119684  0.00028  0.998566  0.0
H  H88  1  0.08656226  0.67593017  0.85737806  1  0.099098  0.000368  0.107039  0.119714  0.00028  0.998422  0.0
H  H89  1  0.32406222  0.08656300  0.85737907  1  0.099058  0.000368  0.10701  0.11973  0.00028  0.998384  0.0
H  H90  1  0.91343501  0.32406181  0.85737946  1  0.09904  0.000368  0.107016  0.119691  0.00028  0.998445  0.0
H  H91  1  0.67593984  0.91343537  0.85737959  1  0.09901  0.000368  0.107041  0.119793  0.00028  0.998388  0.0
H  H92  1  0.58656392  0.82407568  0.64261661  1  0.098906  0.000368  0.107012  0.119712  0.00028  0.998508  0.0
H  H93  1  0.41343260  0.17593271  0.64261768  1  0.098918  0.000368  0.106981  0.119714  0.00028  0.998463  0.0
H  H94  1  0.17593161  0.58656246  0.64261574  1  0.098987  0.000368  0.107006  0.119713  0.00028  0.998494  0.0
H  H95  1  0.82407077  0.41343528  0.64261941  1  0.099  0.000368  0.107004  0.119702  0.00028  0.998433  0.0
H  H96  1  0.10828368  0.27599756  0.00000103  1  0.121905  1e-06  0.11924  0.127865  1e-06  0.979106  0.0
H  H97  1  0.72400759  0.10827859  0.00000069  1  0.121817  1e-06  0.119228  0.127893  1e-06  0.979081  0.0
H  H98  1  0.89171767  0.72400244  0.99999864  1  0.121933  1e-06  0.119268  0.127902  1e-06  0.979045  0.0
H  H99  1  0.27599483  0.89171768  0.99999926  1  0.121882  1e-06  0.119228  0.127919  1e-06  0.979076  0.0
H  H100  1  0.60828170  0.22400636  0.49999991  1  0.12185  1e-06  0.119213  0.127898  1e-06  0.979088  0.0
H  H101  1  0.39172072  0.77599843  0.49999918  1  0.121987  1e-06  0.119293  0.127964  1e-06  0.979036  0.0
H  H102  1  0.77599723  0.60828025  0.50000044  1  0.121972  1e-06  0.119285  0.12796  1e-06  0.979039  0.0
H  H103  1  0.22400146  0.39171708  0.49999808  1  0.121932  1e-06  0.119265  0.127893  1e-06  0.979092  0.0
H  H104  1  0.01918404  0.45265129  0.06143022  1  0.080153  3e-06  0.101987  0.09865  2e-06  1.032667  0.0
H  H105  1  0.54735158  0.01918506  0.06143201  1  0.080652  3e-06  0.101971  0.098646  2e-06  1.032698  0.0
H  H106  1  0.98081420  0.54735009  0.06142989  1  0.080858  3e-06  0.101995  0.09865  2e-06  1.032524  0.0
H  H107  1  0.45265305  0.98080673  0.06143209  1  0.080233  3e-06  0.101985  0.098624  2e-06  1.03259  0.0
H  H108  1  0.51917979  0.04735159  0.43857034  1  0.080737  3e-06  0.101979  0.098604  2e-06  1.032603  0.0
H  H109  1  0.48081230  0.95265514  0.43856957  1  0.080213  3e-06  0.101982  0.098606  2e-06  1.032719  0.0
H  H110  1  0.95265487  0.51919338  0.43857047  1  0.080841  3e-06  0.102007  0.098636  2e-06  1.032691  0.0
H  H111  1  0.04734840  0.48082188  0.43857115  1  0.0802  3e-06  0.101982  0.098598  2e-06  1.032621  0.0
H  H112  1  0.98080933  0.54734338  0.93856973  1  0.080251  3e-06  0.101949  0.098553  2e-06  1.032652  0.0
H  H113  1  0.45265031  0.98082079  0.93857221  1  0.080264  3e-06  0.102004  0.09863  2e-06  1.032481  0.0
H  H114  1  0.01918289  0.45264884  0.93857063  1  0.080792  3e-06  0.101962  0.09855  2e-06  1.032518  0.0
H  H115  1  0.54735150  0.01918048  0.93857185  1  0.080844  3e-06  0.101971  0.098618  2e-06  1.032505  0.0
H  H116  1  0.48081038  0.95265799  0.56142933  1  0.080282  3e-06  0.101969  0.098608  2e-06  1.032676  0.0
H  H117  1  0.51918693  0.04734911  0.56142953  1  0.080846  3e-06  0.102005  0.098625  2e-06  1.032603  0.0
H  H118  1  0.04735074  0.48081407  0.56143005  1  0.080748  3e-06  0.101976  0.098636  2e-06  1.032631  0.0
H  H119  1  0.95265402  0.51918664  0.56142966  1  0.080304  3e-06  0.101986  0.098605  2e-06  1.032537  0.0
H  H120  1  0.98032318  0.35117973  0.08902445  1  0.430002  4.7e-05  0.321113  0.271234  2e-05  0.93816  0.0
H  H121  1  0.64882977  0.98032330  0.08902170  1  0.429951  4.8e-05  0.321155  0.27139  2e-05  0.938036  0.0
H  H122  1  0.01967568  0.64882811  0.08902096  1  0.430033  4.7e-05  0.32122  0.2715  2e-05  0.938015  0.0
H  H123  1  0.35117442  0.01967016  0.08902200  1  0.430126  4.8e-05  0.321202  0.271405  2e-05  0.938082  0.0
H  H124  1  0.48031713  0.14881730  0.41098341  1  0.429682  4.8e-05  0.32121  0.271504  2e-05  0.937845  0.0
H  H125  1  0.51968232  0.85118350  0.41098174  1  0.429714  4.8e-05  0.321159  0.271421  2e-05  0.937911  0.0
H  H126  1  0.85118734  0.48032112  0.41098174  1  0.429738  4.8e-05  0.321147  0.271409  2e-05  0.937897  0.0
H  H127  1  0.14881849  0.51967649  0.41098340  1  0.429873  4.8e-05  0.321171  0.27137  2e-05  0.93806  0.0
H  H128  1  0.01967497  0.64882185  0.91097863  1  0.429998  4.8e-05  0.321135  0.271307  2e-05  0.938055  0.0
H  H129  1  0.35117798  0.01968254  0.91097682  1  0.429856  4.8e-05  0.321146  0.271341  2e-05  0.937929  0.0
H  H130  1  0.98032194  0.35116922  0.91098155  1  0.429905  4.8e-05  0.321142  0.271336  2e-05  0.937951  0.0
H  H131  1  0.64882746  0.98031705  0.91097852  1  0.429766  4.8e-05  0.321168  0.271483  2e-05  0.937916  0.0
H  H132  1  0.51967623  0.85118109  0.58901455  1  0.429801  4.8e-05  0.32111  0.271314  2e-05  0.937965  0.0
H  H133  1  0.48032010  0.14881756  0.58901679  1  0.429768  4.8e-05  0.321127  0.271335  2e-05  0.937934  0.0
H  H134  1  0.14882253  0.51967302  0.58901593  1  0.429881  4.8e-05  0.321095  0.271237  2e-05  0.938113  0.0
H  H135  1  0.85117966  0.48032244  0.58901683  1  0.429808  4.8e-05  0.321147  0.271388  2e-05  0.937882  0.0
C  C136  1  0.89124674  0.28491912  0.21549740  1  1.55094  -0.001706  0.215648  0.585385  -0.00217  4.152985  -0.004
C  C137  1  0.71507712  0.89124299  0.21550127  1  1.550998  -0.001706  0.2157  0.585587  -0.002171  4.152412  -0.004
C  C138  1  0.10874777  0.71507951  0.21549890  1  1.551662  -0.001707  0.215682  0.585399  -0.00217  4.152894  -0.004
C  C139  1  0.28492218  0.10875138  0.21549959  1  1.55126  -0.001705  0.215672  0.585539  -0.002171  4.152731  -0.004
C  C140  1  0.39124847  0.21507423  0.28450439  1  1.551254  -0.001707  0.215662  0.58552  -0.002172  4.152903  -0.004
C  C141  1  0.60875267  0.78491768  0.28450503  1  1.551042  -0.001711  0.215619  0.585297  -0.002171  4.153281  -0.004
C  C142  1  0.78493683  0.39124446  0.28450438  1  1.551594  -0.001707  0.215649  0.58549  -0.002172  4.153045  -0.004
C  C143  1  0.21507123  0.60875330  0.28450390  1  1.551354  -0.001706  0.215544  0.585373  -0.00217  4.153292  -0.004
C  C144  1  0.10875514  0.71507715  0.78450141  1  1.551238  -0.001705  0.215722  0.585699  -0.002171  4.152807  -0.004
C  C145  1  0.28492370  0.10875167  0.78450010  1  1.550942  -0.001706  0.215665  0.585553  -0.002171  4.152875  -0.004
C  C146  1  0.89124986  0.28492634  0.78449991  1  1.551277  -0.001705  0.215646  0.5856  -0.002171  4.152793  -0.004
C  C147  1  0.71507864  0.89124702  0.78450208  1  1.551203  -0.001704  0.215669  0.585476  -0.00217  4.15302  -0.004
C  C148  1  0.60875554  0.78492577  0.71549414  1  1.551323  -0.001709  0.215687  0.585535  -0.002173  4.153056  -0.004
C  C149  1  0.39124603  0.21508178  0.71549578  1  1.550985  -0.00171  0.215683  0.585457  -0.002172  4.152907  -0.004
C  C150  1  0.21507464  0.60875446  0.71549358  1  1.551315  -0.001709  0.215624  0.585499  -0.002173  4.152851  -0.004
C  C151  1  0.78492426  0.39124988  0.71549634  1  1.551209  -0.001706  0.215611  0.585488  -0.002171  4.152759  -0.004
C  C152  1  0.15595094  0.25096222  0.21375848  1  1.53704  -0.001523  0.216255  0.577125  -0.002115  4.157853  -0.005
C  C153  1  0.74903410  0.15594172  0.21376244  1  1.537468  -0.001523  0.216258  0.577066  -0.002114  4.158004  -0.005
C  C154  1  0.84404835  0.74903321  0.21375704  1  1.537541  -0.001522  0.216396  0.577149  -0.002114  4.157704  -0.005
C  C155  1  0.25095295  0.84405212  0.21375821  1  1.536999  -0.001523  0.216332  0.577369  -0.002115  4.157633  -0.005
C  C156  1  0.65595224  0.24902041  0.28624906  1  1.53915  -0.001519  0.216784  0.577942  -0.002116  4.157127  -0.005
C  C157  1  0.34404465  0.75098535  0.28624741  1  1.538232  -0.00152  0.21669  0.577605  -0.002114  4.157017  -0.005
C  C158  1  0.75097980  0.65594939  0.28624643  1  1.53877  -0.001519  0.216608  0.577515  -0.002117  4.156955  -0.005
C  C159  1  0.24902188  0.34404945  0.28624776  1  1.538737  -0.001519  0.2167  0.577619  -0.002117  4.156947  -0.005
C  C160  1  0.84405414  0.74903298  0.78624062  1  1.537245  -0.001521  0.21638  0.577238  -0.002117  4.157846  -0.005
C  C161  1  0.25097045  0.84405029  0.78623951  1  1.537626  -0.00152  0.216472  0.577201  -0.002115  4.157658  -0.005
C  C162  1  0.15594980  0.25096891  0.78624434  1  1.538715  -0.00152  0.21638  0.576998  -0.002114  4.157876  -0.005
C  C163  1  0.74903242  0.15594841  0.78624089  1  1.537831  -0.001519  0.216484  0.577222  -0.002115  4.157883  -0.005
C  C164  1  0.34405125  0.75097585  0.71375061  1  1.539128  -0.001519  0.216635  0.577745  -0.002115  4.157263  -0.005
C  C165  1  0.65595244  0.24902529  0.71375169  1  1.539212  -0.00152  0.216769  0.57764  -0.002117  4.157547  -0.005
C  C166  1  0.24902156  0.34404954  0.71375381  1  1.538718  -0.001519  0.216667  0.577482  -0.002116  4.157266  -0.005
C  C167  1  0.75097894  0.65595054  0.71375220  1  1.538542  -0.00152  0.216638  0.577436  -0.002116  4.157387  -0.005
C  C168  1  0.08789115  0.26863067  0.19369547  1  -0.107276  0.017237  -0.011621  -0.00727  0.012031  3.982112  0.014
C  C169  1  0.73136795  0.08788507  0.19369828  1  -0.108703  0.01724  -0.01136  -0.007082  0.01203  3.982515  0.014
C  C170  1  0.91210808  0.73136949  0.19369295  1  -0.107964  0.017238  -0.01174  -0.007486  0.012031  3.982144  0.014
C  C171  1  0.26862489  0.91211190  0.19369555  1  -0.108033  0.017241  -0.011443  -0.007345  0.012033  3.9821  0.014
C  C172  1  0.58789550  0.23134797  0.30631000  1  -0.107823  0.017233  -0.011803  -0.007918  0.012028  3.982344  0.014
C  C173  1  0.41210305  0.76865305  0.30630929  1  -0.108132  0.017233  -0.011827  -0.007719  0.012028  3.982336  0.014
C  C174  1  0.76865794  0.58788768  0.30630711  1  -0.107771  0.017238  -0.01175  -0.00766  0.012031  3.982223  0.014
C  C175  1  0.23134221  0.41211015  0.30630734  1  -0.107961  0.017236  -0.011642  -0.007536  0.01203  3.982172  0.014
C  C176  1  0.91211233  0.73135814  0.80630362  1  -0.108071  0.01724  -0.011622  -0.007347  0.012032  3.982293  0.014
C  C177  1  0.26863767  0.91210907  0.80630367  1  -0.107345  0.017238  -0.011621  -0.007211  0.012031  3.982019  0.014
C  C178  1  0.08789274  0.26864062  0.80630615  1  -0.108054  0.017236  -0.011647  -0.007188  0.012029  3.982279  0.014
C  C179  1  0.73136102  0.08789022  0.80630526  1  -0.108018  0.017238  -0.011677  -0.007311  0.012031  3.982313  0.014
C  C180  1  0.41210905  0.76865149  0.69369080  1  -0.107622  0.017235  -0.011736  -0.007858  0.01203  3.982663  0.014
C  C181  1  0.58789191  0.23135546  0.69369095  1  -0.107634  0.017237  -0.0118  -0.007753  0.012031  3.982565  0.014
C  C182  1  0.23134927  0.41210805  0.69369199  1  -0.107996  0.017237  -0.011701  -0.007491  0.01203  3.982338  0.014
C  C183  1  0.76865115  0.58789410  0.69369204  1  -0.108082  0.017233  -0.01174  -0.007541  0.012028  3.982332  0.014
C  C184  1  0.96076998  0.28694204  0.19466946  1  -0.004218  0.017078  -0.014048  -0.007108  0.011903  3.987262  0.013
C  C185  1  0.71305706  0.96076287  0.19467048  1  -0.004191  0.017074  -0.013998  -0.006989  0.011901  3.987184  0.013
C  C186  1  0.03922766  0.71306025  0.19466833  1  -0.004204  0.017078  -0.014053  -0.006963  0.011902  3.987041  0.013
C  C187  1  0.28694004  0.03923198  0.19466845  1  -0.004206  0.017076  -0.013973  -0.006987  0.011902  3.987333  0.013
C  C188  1  0.46077229  0.21304518  0.30533496  1  -0.003174  0.017078  -0.014089  -0.007146  0.011904  3.987588  0.013
C  C189  1  0.53922626  0.78694999  0.30533467  1  -0.00449  0.017083  -0.014081  -0.007  0.011904  3.98743  0.013
C  C190  1  0.78696516  0.46076442  0.30533438  1  -0.003774  0.017073  -0.013883  -0.006871  0.0119  3.987406  0.013
C  C191  1  0.21303979  0.53923128  0.30533327  1  -0.003541  0.017074  -0.013965  -0.007034  0.011901  3.987677  0.013
C  C192  1  0.03923297  0.71304730  0.80533020  1  -0.003362  0.017073  -0.014046  -0.007126  0.011902  3.987338  0.013
C  C193  1  0.28694430  0.03923127  0.80532890  1  -0.004234  0.017074  -0.014075  -0.007068  0.011901  3.987163  0.013
C  C194  1  0.96077157  0.28694719  0.80533105  1  -0.004168  0.017077  -0.014035  -0.007012  0.011903  3.987041  0.013
C  C195  1  0.71305492  0.96076908  0.80533065  1  -0.004278  0.017074  -0.014061  -0.007039  0.011901  3.987253  0.013
C  C196  1  0.53923226  0.78695748  0.69466385  1  -0.003643  0.017078  -0.013982  -0.006951  0.011903  3.987588  0.013
C  C197  1  0.46076817  0.21305054  0.69466414  1  -0.004257  0.01708  -0.013992  -0.006813  0.011903  3.987186  0.013
C  C198  1  0.21304419  0.53923078  0.69466387  1  -0.003835  0.017079  -0.013958  -0.006812  0.011903  3.987445  0.013
C  C199  1  0.78695465  0.46077244  0.69466555  1  -0.003364  0.017076  -0.013982  -0.00705  0.011902  3.987524  0.013
C  C200  1  0.02326508  0.26609228  0.21328603  1  0.038872  0.001154  -0.074038  -0.108613  0.000479  3.907936  0.001
C  C201  1  0.73390513  0.02325863  0.21328800  1  0.039909  0.001153  -0.074127  -0.108686  0.000479  3.908226  0.001
C  C202  1  0.97673155  0.73390794  0.21328386  1  0.039663  0.001154  -0.074007  -0.108693  0.00048  3.907892  0.001
C  C203  1  0.26608938  0.97673999  0.21328532  1  0.039497  0.001153  -0.074145  -0.108566  0.000479  3.907965  0.001
C  C204  1  0.52327046  0.23389254  0.28672023  1  0.039957  0.001152  -0.073877  -0.108423  0.000478  3.907503  0.001
C  C205  1  0.47672642  0.76610523  0.28671958  1  0.040398  0.001151  -0.073838  -0.108459  0.000478  3.907575  0.001
C  C206  1  0.76611415  0.52326222  0.28671734  1  0.040412  0.001152  -0.074091  -0.108736  0.000479  3.907867  0.001
C  C207  1  0.23389019  0.47673502  0.28671877  1  0.040348  0.001151  -0.073968  -0.108534  0.000479  3.907842  0.001
C  C208  1  0.97673840  0.73390185  0.78671449  1  0.039997  0.001153  -0.074105  -0.108745  0.00048  3.908119  0.001
C  C209  1  0.26609623  0.97673497  0.78671367  1  0.039244  0.001152  -0.074109  -0.108851  0.000479  3.908108  0.001
C  C210  1  0.02326874  0.26609897  0.78671638  1  0.040263  0.001152  -0.074092  -0.108868  0.000479  3.908084  0.001
C  C211  1  0.73390292  0.02326426  0.78671492  1  0.040078  0.001152  -0.074034  -0.108706  0.000479  3.90816  0.001
C  C212  1  0.47673728  0.76610639  0.71327887  1  0.03999  0.001151  -0.073926  -0.108492  0.000478  3.90775  0.001
C  C213  1  0.52326747  0.23390115  0.71328094  1  0.039808  0.001153  -0.074003  -0.108688  0.000479  3.907762  0.001
C  C214  1  0.23389466  0.47673511  0.71328090  1  0.040224  0.001152  -0.074006  -0.108783  0.000479  3.907892  0.001
C  C215  1  0.76610371  0.52326817  0.71328147  1  0.040125  0.001151  -0.073957  -0.10858  0.000478  3.907743  0.001
C  C216  1  0.09073653  0.28966937  0.15550123  1  0.044622  -0.00017  -0.079389  -0.17178  -0.00058  3.879669  0.0
C  C217  1  0.71033763  0.09073021  0.15550459  1  0.04477  -0.000171  -0.079546  -0.171924  -0.00058  3.879773  0.0
C  C218  1  0.90926523  0.71033121  0.15549840  1  0.04446  -0.00017  -0.079379  -0.171681  -0.00058  3.879329  0.0
C  C219  1  0.28966093  0.90926452  0.15550131  1  0.044661  -0.000171  -0.079538  -0.171888  -0.000581  3.879617  0.0
C  C220  1  0.59073704  0.21031037  0.34450510  1  0.043017  -0.000172  -0.079191  -0.171186  -0.000582  3.879122  0.0
C  C221  1  0.40926164  0.78969076  0.34450327  1  0.043059  -0.000171  -0.079197  -0.171272  -0.000581  3.879367  0.0
C  C222  1  0.78969201  0.59073424  0.34450252  1  0.042563  -0.000169  -0.079292  -0.171606  -0.00058  3.879367  0.0
C  C223  1  0.21030188  0.40926423  0.34450073  1  0.042916  -0.00017  -0.079319  -0.171563  -0.000581  3.879514  0.0
C  C224  1  0.90926589  0.71032263  0.84449701  1  0.044252  -0.00017  -0.079384  -0.171678  -0.00058  3.879517  0.0
C  C225  1  0.28967384  0.90926552  0.84449850  1  0.044258  -0.00017  -0.079434  -0.171806  -0.00058  3.879661  0.0
C  C226  1  0.09073506  0.28967783  0.84450127  1  0.043713  -0.000171  -0.079358  -0.171753  -0.000581  3.879552  0.0
C  C227  1  0.71032498  0.09073334  0.84449921  1  0.044242  -0.000171  -0.079502  -0.171924  -0.000581  3.879619  0.0
C  C228  1  0.40926484  0.78968696  0.65549542  1  0.042971  -0.000171  -0.079242  -0.171348  -0.000582  3.87924  0.0
C  C229  1  0.59073332  0.21031668  0.65549555  1  0.043362  -0.000169  -0.079291  -0.17139  -0.00058  3.879344  0.0
C  C230  1  0.21031680  0.40926203  0.65549687  1  0.043171  -0.00017  -0.079306  -0.171521  -0.00058  3.879342  0.0
C  C231  1  0.78969149  0.59073682  0.65549809  1  0.043178  -0.000171  -0.079133  -0.171289  -0.000582  3.879547  0.0
C  C232  1  0.02784818  0.30892747  0.13674370  1  0.292025  0.001713  0.094021  0.241189  0.001  4.053844  0.001
C  C233  1  0.69107818  0.02784284  0.13674448  1  0.291891  0.001713  0.094071  0.241298  0.000999  4.053815  0.001
C  C234  1  0.97215351  0.69107945  0.13674063  1  0.292139  0.001713  0.093954  0.24115  0.000999  4.053872  0.001
C  C235  1  0.30891979  0.97215343  0.13674212  1  0.292023  0.001713  0.093963  0.241199  0.000999  4.053912  0.001
C  C236  1  0.52784534  0.19105794  0.36326087  1  0.292333  0.001713  0.093929  0.241016  0.001  4.05416  0.001
C  C237  1  0.47215394  0.80893952  0.36326053  1  0.292809  0.001713  0.093871  0.240935  0.001  4.054216  0.001
C  C238  1  0.80894754  0.52784289  0.36326029  1  0.292651  0.001713  0.09408  0.241547  0.001  4.053696  0.001
C  C239  1  0.19104908  0.47215458  0.36325825  1  0.292253  0.001713  0.094052  0.241439  0.001  4.053336  0.001
C  C240  1  0.97215530  0.69106507  0.86325626  1  0.292249  0.001713  0.093988  0.24116  0.001  4.053733  0.001
C  C241  1  0.30892957  0.97215449  0.86325718  1  0.292189  0.001713  0.094015  0.241224  0.000999  4.053912  0.001
C  C242  1  0.02784624  0.30893012  0.86325819  1  0.292584  0.001713  0.093906  0.241045  0.000999  4.05394  0.001
C  C243  1  0.69107038  0.02784336  0.86325754  1  0.292208  0.001713  0.094042  0.241298  0.000999  4.05386  0.001
C  C244  1  0.47215442  0.80894258  0.63673909  1  0.292243  0.001713  0.094032  0.241236  0.001  4.053923  0.001
C  C245  1  0.52784368  0.19106366  0.63673942  1  0.292327  0.001713  0.093934  0.241078  0.001  4.054123  0.001
C  C246  1  0.19106286  0.47215231  0.63673909  1  0.292589  0.001713  0.094047  0.241164  0.001  4.053992  0.001
C  C247  1  0.80894323  0.52784755  0.63674056  1  0.292117  0.001713  0.093888  0.240974  0.001  4.054214  0.001
C  C248  1  0.96299869  0.30839718  0.15656639  1  0.002587  -0.000465  -0.084474  -0.192451  -0.000891  3.925025  0.0
C  C249  1  0.69160391  0.96299346  0.15656625  1  0.002623  -0.000466  -0.084655  -0.192738  -0.000892  3.92507  0.0
C  C250  1  0.03700361  0.69160714  0.15656410  1  0.002743  -0.000465  -0.084495  -0.192491  -0.000891  3.925052  0.0
C  C251  1  0.30839253  0.03700233  0.15656567  1  0.002627  -0.000466  -0.084518  -0.192616  -0.000892  3.925306  0.0
C  C252  1  0.46299609  0.19158847  0.34343661  1  0.001791  -0.000464  -0.084484  -0.192359  -0.000893  3.9254  0.0
C  C253  1  0.53700206  0.80840734  0.34343662  1  0.002156  -0.000465  -0.084471  -0.192444  -0.000892  3.925405  0.0
C  C254  1  0.80842152  0.46299751  0.34343547  1  0.001758  -0.000463  -0.084672  -0.192725  -0.000892  3.925641  0.0
C  C255  1  0.19157822  0.53700523  0.34343520  1  0.001885  -0.000463  -0.084632  -0.192605  -0.000892  3.925275  0.0
C  C256  1  0.03700267  0.69159269  0.84343328  1  0.001265  -0.000462  -0.084579  -0.19252  -0.000891  3.924999  0.0
C  C257  1  0.30840064  0.03700333  0.84343285  1  0.002327  -0.000465  -0.084501  -0.192519  -0.000892  3.924712  0.0
C  C258  1  0.96299668  0.30840297  0.84343443  1  0.002209  -0.000465  -0.084474  -0.192396  -0.000892  3.924895  0.0
C  C259  1  0.69159924  0.96299606  0.84343457  1  0.002117  -0.000464  -0.084547  -0.192568  -0.000891  3.924938  0.0
C  C260  1  0.53700473  0.80841578  0.65656220  1  0.001568  -0.000464  -0.08464  -0.192629  -0.000893  3.925595  0.0
C  C261  1  0.46299504  0.19159265  0.65656333  1  0.002074  -0.000465  -0.084515  -0.192565  -0.000892  3.925546  0.0
C  C262  1  0.19159048  0.53700036  0.65656220  1  0.001413  -0.000464  -0.084603  -0.192606  -0.000892  3.925762  0.0
C  C263  1  0.80841142  0.46299796  0.65656390  1  0.001992  -0.000463  -0.0845  -0.192395  -0.000892  3.925339  0.0
C  C264  1  0.01514047  0.46347010  0.00000049  1  -0.043219  -0.0  -0.007685  0.078638  -3e-06  4.004122  0.0
C  C265  1  0.53653144  0.01513926  0.00000255  1  -0.043521  -0.0  -0.007826  0.07853  -3e-06  4.004415  0.0
C  C266  1  0.98485383  0.53652631  0.99999986  1  0.003942  -0.0  -0.007775  0.078715  -3e-06  4.004043  0.0
C  C267  1  0.46347138  0.98485501  0.00000236  1  0.004022  -0.0  -0.007811  0.078595  -3e-06  4.004255  0.0
C  C268  1  0.51513951  0.03653221  0.49999950  1  -0.043588  -0.0  -0.007888  0.078254  -3e-06  4.004682  0.0
C  C269  1  0.48485386  0.96347577  0.49999903  1  0.003855  -0.0  -0.007764  0.07882  -3e-06  4.004093  0.0
C  C270  1  0.96347390  0.51514735  0.50000050  1  0.003875  -0.0  -0.007714  0.07889  -3e-06  4.003921  0.0
C  C271  1  0.03653118  0.48486329  0.50000031  1  -0.043601  -0.0  -0.007701  0.078515  -3e-06  4.004214  0.0
C  C272  1  0.08078024  0.32712313  0.00000075  1  -0.049966  4.8e-05  -0.063881  -0.100167  3.2e-05  3.901372  0.0
C  C273  1  0.67288212  0.08077887  0.00000151  1  -0.049906  4.8e-05  -0.063809  -0.100146  3.2e-05  3.901463  0.0
C  C274  1  0.91921898  0.67287474  0.99999920  1  -0.050085  4.8e-05  -0.06385  -0.100081  3.2e-05  3.901374  0.0
C  C275  1  0.32712229  0.91922126  0.00000055  1  -0.050242  4.8e-05  -0.063831  -0.100262  3.2e-05  3.901657  0.0
C  C276  1  0.58078033  0.17287887  0.50000016  1  -0.049982  4.8e-05  -0.063841  -0.100251  3.2e-05  3.901579  0.0
C  C277  1  0.41921943  0.82712538  0.49999979  1  -0.051108  4.8e-05  -0.063956  -0.100189  3.2e-05  3.901122  0.0
C  C278  1  0.82712504  0.58077953  0.49999989  1  -0.050972  4.8e-05  -0.063949  -0.100192  3.2e-05  3.90119  0.0
C  C279  1  0.17287631  0.41921993  0.49999949  1  -0.050472  4.8e-05  -0.063847  -0.100154  3.2e-05  3.901335  0.0
C  C280  1  0.03023337  0.42739066  0.03411336  1  -0.053903  3.7e-05  -0.086892  -0.164434  2.6e-05  3.949336  0.0
C  C281  1  0.57261336  0.03023467  0.03411460  1  -0.053808  3.7e-05  -0.086765  -0.164299  2.6e-05  3.949543  0.0
C  C282  1  0.96976264  0.57260904  0.03411104  1  -0.053958  3.7e-05  -0.086909  -0.164451  2.6e-05  3.949204  0.0
C  C283  1  0.42739064  0.96975864  0.03411407  1  -0.053945  3.8e-05  -0.086779  -0.164261  2.6e-05  3.949302  0.0
C  C284  1  0.53023111  0.07261182  0.46588807  1  -0.053593  3.8e-05  -0.086826  -0.164211  2.6e-05  3.94944  0.0
C  C285  1  0.46976426  0.92739606  0.46588698  1  -0.053908  3.8e-05  -0.086874  -0.164274  2.6e-05  3.949305  0.0
C  C286  1  0.92739481  0.53023905  0.46588818  1  -0.05394  3.8e-05  -0.086919  -0.164319  2.6e-05  3.949431  0.0
C  C287  1  0.07260909  0.46977096  0.46588887  1  -0.053556  3.8e-05  -0.086875  -0.1643  2.6e-05  3.949374  0.0
C  C288  1  0.96976053  0.57260560  0.96588773  1  -0.053617  3.7e-05  -0.08688  -0.164275  2.6e-05  3.949213  0.0
C  C289  1  0.42739065  0.96976692  0.96589019  1  -0.053808  3.8e-05  -0.086907  -0.16428  2.6e-05  3.949172  0.0
C  C290  1  0.03023392  0.42739042  0.96588977  1  -0.053854  3.7e-05  -0.086926  -0.164245  2.6e-05  3.949272  0.0
C  C291  1  0.57261285  0.03023070  0.96589072  1  -0.05343  3.7e-05  -0.086941  -0.164406  2.6e-05  3.949504  0.0
C  C292  1  0.46976066  0.92739723  0.53411074  1  -0.053615  3.8e-05  -0.086867  -0.164367  2.6e-05  3.949345  0.0
C  C293  1  0.53023389  0.07260872  0.53411183  1  -0.054046  3.8e-05  -0.086865  -0.164213  2.6e-05  3.949393  0.0
C  C294  1  0.07260921  0.46976627  0.53411206  1  -0.053941  3.8e-05  -0.086937  -0.164432  2.6e-05  3.949477  0.0
C  C295  1  0.92739333  0.53023702  0.53411109  1  -0.053913  3.8e-05  -0.087002  -0.164457  2.6e-05  3.949344  0.0
C  C296  1  0.06232343  0.36010916  0.03430452  1  -0.02857  2.5e-05  -0.010718  -0.018442  1.8e-05  4.012942  0.0
C  C297  1  0.63989751  0.06232330  0.03430611  1  -0.028178  2.5e-05  -0.010727  -0.01841  1.8e-05  4.013118  0.0
C  C298  1  0.93767419  0.63989054  0.03430309  1  -0.028325  2.5e-05  -0.010761  -0.018406  1.8e-05  4.012862  0.0
C  C299  1  0.36010862  0.93767214  0.03430520  1  -0.028339  2.5e-05  -0.01077  -0.018438  1.8e-05  4.013049  0.0
C  C300  1  0.56231928  0.13989102  0.46569637  1  -0.028301  2.5e-05  -0.010695  -0.018409  1.8e-05  4.013066  0.0
C  C301  1  0.43767822  0.86011260  0.46569547  1  -0.027827  2.5e-05  -0.010781  -0.018784  1.8e-05  4.013019  0.0
C  C302  1  0.86011370  0.56232371  0.46569527  1  -0.02781  2.5e-05  -0.010758  -0.018729  1.8e-05  4.012973  0.0
C  C303  1  0.13988647  0.43767671  0.46569571  1  -0.027325  2.5e-05  -0.010754  -0.018431  1.8e-05  4.012963  0.0
C  C304  1  0.93767207  0.63988763  0.96569486  1  -0.02867  2.5e-05  -0.010675  -0.018567  1.8e-05  4.012721  0.0
C  C305  1  0.36010757  0.93768095  0.96569612  1  -0.028499  2.5e-05  -0.010683  -0.018375  1.8e-05  4.012928  0.0
C  C306  1  0.06232344  0.36011158  0.96569601  1  -0.028338  2.5e-05  -0.010676  -0.018474  1.8e-05  4.0128  0.0
C  C307  1  0.63989433  0.06231721  0.96569703  1  -0.028974  2.5e-05  -0.010714  -0.01843  1.8e-05  4.013013  0.0
C  C308  1  0.43767142  0.86011749  0.53430387  1  -0.028017  2.5e-05  -0.010735  -0.018457  1.8e-05  4.012616  0.0
C  C309  1  0.56232313  0.13989112  0.53430448  1  -0.028403  2.5e-05  -0.010711  -0.018441  1.8e-05  4.012975  0.0
C  C310  1  0.13988872  0.43767468  0.53430440  1  -0.02831  2.5e-05  -0.010734  -0.018492  1.8e-05  4.013063  0.0
C  C311  1  0.86011435  0.56232541  0.53430481  1  -0.027885  2.5e-05  -0.010658  -0.018484  1.8e-05  4.012818  0.0
C  C312  1  0.08001563  0.32403081  0.07133006  1  1.427333  8.3e-05  0.239289  0.47668  6.9e-05  4.128098  0.0
C  C313  1  0.67597306  0.08001428  0.07133196  1  1.427252  8.3e-05  0.239415  0.476743  6.9e-05  4.128251  0.0
C  C314  1  0.91998903  0.67597219  0.07132778  1  1.426951  8.3e-05  0.239396  0.476791  6.9e-05  4.12819  0.0
C  C315  1  0.32402787  0.91998233  0.07133015  1  1.427276  8.3e-05  0.239412  0.476813  6.9e-05  4.128141  0.0
C  C316  1  0.58001124  0.17597117  0.42867114  1  1.426974  8.3e-05  0.239474  0.476915  6.9e-05  4.128036  0.0
C  C317  1  0.41998880  0.82403180  0.42867076  1  1.426978  8.3e-05  0.239452  0.477022  6.9e-05  4.127841  0.0
C  C318  1  0.82403036  0.58001363  0.42867029  1  1.427022  8.3e-05  0.239411  0.47696  6.9e-05  4.127979  0.0
C  C319  1  0.17595530  0.41999042  0.42866819  1  1.426809  8.3e-05  0.239201  0.476602  6.9e-05  4.128497  0.0
C  C320  1  0.91998360  0.67596119  0.92866790  1  1.427293  8.3e-05  0.239404  0.477013  6.9e-05  4.127933  0.0
C  C321  1  0.32402669  0.91998838  0.92867084  1  1.427391  8.3e-05  0.239334  0.476673  6.9e-05  4.12806  0.0
C  C322  1  0.08001392  0.32403419  0.92867075  1  1.427113  8.3e-05  0.239313  0.47691  6.9e-05  4.128149  0.0
C  C323  1  0.67597029  0.08001180  0.92867066  1  1.4275  8.3e-05  0.239401  0.476786  6.9e-05  4.128088  0.0
C  C324  1  0.41998266  0.82404320  0.57133024  1  1.42766  8.3e-05  0.23947  0.476935  6.9e-05  4.128192  0.0
C  C325  1  0.58001202  0.17597085  0.57133004  1  1.427169  8.3e-05  0.23937  0.476715  6.9e-05  4.128252  0.0
C  C326  1  0.17596726  0.41998636  0.57132881  1  1.427148  8.3e-05  0.239374  0.476856  6.9e-05  4.128433  0.0
C  C327  1  0.82403806  0.58001330  0.57133091  1  1.427551  8.3e-05  0.239401  0.476977  6.9e-05  4.128153  0.0
N  N328  1  0.02741423  0.33143274  0.09851156  1  -1.24478  0.00042  -0.398746  -0.380093  0.000219  3.577648  0.0
N  N329  1  0.66857805  0.02741290  0.09851175  1  -1.244633  0.00042  -0.398814  -0.380342  0.000219  3.577804  0.0
N  N330  1  0.97258680  0.66857407  0.09850933  1  -1.244872  0.00042  -0.398837  -0.380485  0.000219  3.577931  0.0
N  N331  1  0.33142457  0.97258219  0.09851113  1  -1.244791  0.00042  -0.398806  -0.38032  0.000219  3.577999  0.0
N  N332  1  0.52740753  0.16855745  0.40149158  1  -1.244123  0.00042  -0.398905  -0.380456  0.000219  3.578191  0.0
N  N333  1  0.47259082  0.83144332  0.40149012  1  -1.244115  0.00042  -0.398835  -0.380337  0.000219  3.578106  0.0
N  N334  1  0.83144607  0.52741226  0.40148989  1  -1.244178  0.00042  -0.398769  -0.380399  0.000219  3.577932  0.0
N  N335  1  0.16855122  0.47258798  0.40148839  1  -1.244246  0.00042  -0.398839  -0.380283  0.000219  3.578001  0.0
N  N336  1  0.97258393  0.66856352  0.90148782  1  -1.244802  0.00042  -0.398801  -0.380259  0.000219  3.577747  0.0
N  N337  1  0.33143182  0.97258869  0.90148934  1  -1.244772  0.00042  -0.398798  -0.380226  0.000219  3.577598  0.0
N  N338  1  0.02741455  0.33142965  0.90149006  1  -1.24476  0.00042  -0.398745  -0.380193  0.000219  3.577666  0.0
N  N339  1  0.66856986  0.02741034  0.90148996  1  -1.244675  0.00042  -0.398809  -0.380496  0.000219  3.577728  0.0
N  N340  1  0.47258636  0.83144360  0.59850923  1  -1.244208  0.00042  -0.398813  -0.380294  0.000219  3.578109  0.0
N  N341  1  0.52741054  0.16856094  0.59850897  1  -1.244092  0.00042  -0.39878  -0.380175  0.000219  3.578076  0.0
N  N342  1  0.16856328  0.47258348  0.59850864  1  -1.244338  0.00042  -0.398743  -0.380079  0.000219  3.578268  0.0
N  N343  1  0.83144321  0.52741201  0.59851099  1  -1.244167  0.00042  -0.398854  -0.380355  0.000219  3.577962  0.0
O  O344  1  0.83779921  0.31546002  0.20011523  1  -1.108904  0.095454  -0.320861  -0.546305  0.060389  2.314039  0.087
O  O345  1  0.68453388  0.83778990  0.20012108  1  -1.109101  0.095468  -0.320874  -0.546407  0.0604  2.313819  0.087
O  O346  1  0.16219525  0.68453217  0.20011961  1  -1.109512  0.095458  -0.320925  -0.546354  0.060393  2.313944  0.087
O  O347  1  0.31546004  0.16220283  0.20011747  1  -1.108944  0.095463  -0.320875  -0.546284  0.060396  2.313897  0.087
O  O348  1  0.33779478  0.18454069  0.29988821  1  -1.109115  0.09545  -0.320927  -0.546363  0.060387  2.314097  0.087
O  O349  1  0.66220375  0.81545499  0.29988693  1  -1.108672  0.095438  -0.320889  -0.546297  0.060378  2.314248  0.087
O  O350  1  0.81547413  0.33778910  0.29988510  1  -1.109458  0.09546  -0.320861  -0.546381  0.060396  2.313944  0.087
O  O351  1  0.18453665  0.66220871  0.29988464  1  -1.109332  0.095443  -0.320819  -0.546306  0.060384  2.31422  0.087
O  O352  1  0.16220694  0.68453464  0.79988244  1  -1.109186  0.095466  -0.320914  -0.546455  0.060399  2.313993  0.087
O  O353  1  0.31546694  0.16220477  0.79988172  1  -1.108996  0.095468  -0.320858  -0.546338  0.060399  2.313905  0.087
O  O354  1  0.83779758  0.31546250  0.79988262  1  -1.108982  0.095454  -0.320859  -0.546338  0.060391  2.313929  0.087
O  O355  1  0.68454664  0.83779344  0.79988447  1  -1.108979  0.095447  -0.320899  -0.54634  0.060385  2.314185  0.087
O  O356  1  0.66221243  0.81545558  0.70011003  1  -1.108909  0.095454  -0.320891  -0.546341  0.06039  2.314086  0.087
O  O357  1  0.33779335  0.18454287  0.70011387  1  -1.108673  0.095454  -0.320913  -0.546411  0.060388  2.314145  0.087
O  O358  1  0.18453575  0.66220609  0.70011144  1  -1.108963  0.095462  -0.320868  -0.546334  0.060395  2.31395  0.087
O  O359  1  0.81545671  0.33779448  0.70011304  1  -1.10897  0.095456  -0.320923  -0.546418  0.06039  2.313946  0.087
O  O360  1  0.21330696  0.26831135  0.19638426  1  -1.099952  0.102052  -0.31904  -0.51812  0.064408  2.345837  0.092
O  O361  1  0.73168979  0.21329954  0.19638506  1  -1.099799  0.102063  -0.319102  -0.51814  0.064417  2.345735  0.092
O  O362  1  0.78669015  0.73169095  0.19638360  1  -1.100145  0.102041  -0.319135  -0.518174  0.064401  2.345774  0.092
O  O363  1  0.26829560  0.78669531  0.19638109  1  -1.09986  0.10206  -0.319149  -0.518216  0.064412  2.345619  0.092
O  O364  1  0.71331610  0.23168366  0.30362192  1  -1.100968  0.102046  -0.319364  -0.518555  0.064404  2.345486  0.092
O  O365  1  0.28668351  0.76832748  0.30362051  1  -1.100223  0.102054  -0.319331  -0.518449  0.064409  2.345478  0.092
O  O366  1  0.76832210  0.71330960  0.30362386  1  -1.100434  0.102054  -0.319327  -0.518388  0.064411  2.345426  0.092
O  O367  1  0.23167645  0.28668716  0.30362198  1  -1.100362  0.102051  -0.319288  -0.518353  0.064409  2.345525  0.092
O  O368  1  0.78669653  0.73167639  0.80361313  1  -1.100053  0.102058  -0.319109  -0.518177  0.064414  2.346044  0.092
O  O369  1  0.26831582  0.78669300  0.80361461  1  -1.099888  0.102056  -0.319082  -0.518137  0.064412  2.345764  0.092
O  O370  1  0.21331014  0.26830957  0.80361892  1  -1.100917  0.102055  -0.319191  -0.51817  0.064411  2.345636  0.092
O  O371  1  0.73167966  0.21330628  0.80361345  1  -1.100106  0.102047  -0.319122  -0.518205  0.064406  2.34592  0.092
O  O372  1  0.28669005  0.76831740  0.69637661  1  -1.100951  0.102058  -0.319283  -0.518431  0.064412  2.345554  0.092
O  O373  1  0.71331092  0.23167198  0.69637859  1  -1.100875  0.102057  -0.319352  -0.518399  0.064412  2.345602  0.092
O  O374  1  0.23167713  0.28668880  0.69637923  1  -1.100266  0.10206  -0.31937  -0.5184  0.064415  2.345546  0.092
O  O375  1  0.76833396  0.71331283  0.69637996  1  -1.100379  0.102059  -0.319257  -0.518354  0.064413  2.345561  0.092
O  O376  1  0.15187961  0.22147755  0.24635475  1  -1.095648  0.09692  -0.30688  -0.512419  0.061095  2.301657  0.088
O  O377  1  0.77851090  0.15187232  0.24635846  1  -1.095734  0.096905  -0.306836  -0.512325  0.061085  2.301837  0.088
O  O378  1  0.84812299  0.77851532  0.24635391  1  -1.095802  0.096923  -0.306896  -0.512337  0.061097  2.301498  0.088
O  O379  1  0.22147573  0.84812533  0.24635449  1  -1.095619  0.096909  -0.306865  -0.512471  0.061088  2.301831  0.088
O  O380  1  0.65188060  0.27850078  0.25365193  1  -1.096597  0.096916  -0.307096  -0.512655  0.061096  2.301394  0.088
O  O381  1  0.34811138  0.72150915  0.25365025  1  -1.09657  0.09689  -0.307001  -0.512425  0.061081  2.301497  0.088
O  O382  1  0.72149815  0.65187690  0.25365127  1  -1.096772  0.096884  -0.306949  -0.512439  0.061076  2.301516  0.088
O  O383  1  0.27850768  0.34812024  0.25365291  1  -1.096747  0.096893  -0.307071  -0.512572  0.061081  2.301457  0.088
O  O384  1  0.84812813  0.77852298  0.75364691  1  -1.095606  0.096912  -0.30684  -0.512361  0.06109  2.301657  0.088
O  O385  1  0.22149365  0.84812234  0.75364292  1  -1.096363  0.096902  -0.307011  -0.512426  0.061085  2.301652  0.088
O  O386  1  0.15187836  0.22148681  0.75364832  1  -1.096223  0.09691  -0.306798  -0.512175  0.061089  2.301654  0.088
O  O387  1  0.77851923  0.15187679  0.75364661  1  -1.096069  0.096902  -0.306913  -0.51233  0.061085  2.301632  0.088
O  O388  1  0.34812182  0.72149762  0.74634774  1  -1.096671  0.096906  -0.307069  -0.512624  0.061089  2.301358  0.088
O  O389  1  0.65188305  0.27851640  0.74634514  1  -1.096711  0.096905  -0.307055  -0.512482  0.061088  2.301625  0.088
O  O390  1  0.27850161  0.34812096  0.74634983  1  -1.096811  0.096894  -0.306961  -0.512388  0.061081  2.30141  0.088
O  O391  1  0.72148516  0.65188241  0.74634562  1  -1.096546  0.096905  -0.307027  -0.512399  0.061088  2.301446  0.088
O  O392  1  0.89131104  0.25162740  0.24727284  1  -1.102189  0.094034  -0.318599  -0.523874  0.059849  2.345055  0.085
O  O393  1  0.74836635  0.89130980  0.24727874  1  -1.102432  0.094034  -0.318645  -0.523936  0.05985  2.34483  0.085
O  O394  1  0.10868198  0.74836707  0.24727665  1  -1.102287  0.094041  -0.318576  -0.523878  0.059851  2.345111  0.085
O  O395  1  0.25164158  0.10868626  0.24727930  1  -1.102582  0.094035  -0.318581  -0.524005  0.059852  2.345152  0.085
O  O396  1  0.39131891  0.24836222  0.25272753  1  -1.102223  0.094033  -0.318547  -0.523896  0.059848  2.345136  0.085
O  O397  1  0.60868532  0.75162640  0.25272870  1  -1.102121  0.094043  -0.31855  -0.523834  0.059853  2.345314  0.085
O  O398  1  0.75163961  0.39131079  0.25272891  1  -1.101909  0.094027  -0.318649  -0.52396  0.059848  2.345093  0.085
O  O399  1  0.24836408  0.60868635  0.25272846  1  -1.10219  0.094035  -0.318569  -0.523866  0.059851  2.345047  0.085
O  O400  1  0.10869031  0.74836195  0.75272369  1  -1.102368  0.094023  -0.318619  -0.524009  0.059844  2.345074  0.085
O  O401  1  0.25163553  0.10868700  0.75272349  1  -1.102216  0.094029  -0.31858  -0.523905  0.059846  2.34514  0.085
O  O402  1  0.89131618  0.25164251  0.75272159  1  -1.102474  0.094034  -0.318566  -0.523997  0.05985  2.345119  0.085
O  O403  1  0.74836137  0.89131267  0.75272322  1  -1.10244  0.09403  -0.318595  -0.523901  0.059848  2.345176  0.085
O  O404  1  0.60868298  0.75164203  0.74727243  1  -1.102061  0.094032  -0.3186  -0.523962  0.05985  2.345021  0.085
O  O405  1  0.39131444  0.24837199  0.74727239  1  -1.102118  0.09403  -0.318565  -0.523859  0.059846  2.345176  0.085
O  O406  1  0.24836440  0.60868654  0.74727048  1  -1.102022  0.094024  -0.318585  -0.523995  0.059844  2.345008  0.085
O  O407  1  0.75164153  0.39131630  0.74727491  1  -1.102301  0.094035  -0.318553  -0.523865  0.059851  2.345074  0.085
O  O408  1  0.67942568  0.35957242  0.17508902  1  -1.215318  -0.000916  -0.563235  -0.727434  -0.00056  1.984132  0.0
O  O409  1  0.64041628  0.67941567  0.17508201  1  -1.215357  -0.000916  -0.56329  -0.727477  -0.00056  1.983849  0.0
O  O410  1  0.32057029  0.64042556  0.17508753  1  -1.215067  -0.000915  -0.56317  -0.727194  -0.000559  1.984431  0.0
O  O411  1  0.35958182  0.32057805  0.17508570  1  -1.215136  -0.000916  -0.56324  -0.727193  -0.000559  1.984238  0.0
O  O412  1  0.17941976  0.14040942  0.32491997  1  -1.214629  -0.000917  -0.563226  -0.727386  -0.00056  1.984062  0.0
O  O413  1  0.82057779  0.85958367  0.32491860  1  -1.214722  -0.000915  -0.563292  -0.727436  -0.000559  1.984125  0.0
O  O414  1  0.85959415  0.17941120  0.32492204  1  -1.214666  -0.000917  -0.563239  -0.727414  -0.000561  1.984104  0.0
O  O415  1  0.14040660  0.82058828  0.32492024  1  -1.214711  -0.000916  -0.563221  -0.727437  -0.00056  1.984039  0.0
O  O416  1  0.32058260  0.64042171  0.82491407  1  -1.215611  -0.000916  -0.563346  -0.727454  -0.00056  1.983905  0.0
O  O417  1  0.35958241  0.32058006  0.82491509  1  -1.21511  -0.000916  -0.56323  -0.727332  -0.000559  1.984085  0.0
O  O418  1  0.67942361  0.35958561  0.82491527  1  -1.214504  -0.000916  -0.563276  -0.727502  -0.00056  1.983913  0.0
O  O419  1  0.64042167  0.67941662  0.82491197  1  -1.214841  -0.000917  -0.563362  -0.72745  -0.00056  1.983848  0.0
O  O420  1  0.82058745  0.85958898  0.67507913  1  -1.214642  -0.000917  -0.563217  -0.727439  -0.00056  1.98401  0.0
O  O421  1  0.17942197  0.14040939  0.67508106  1  -1.214559  -0.000916  -0.563237  -0.727329  -0.00056  1.984085  0.0
O  O422  1  0.14041146  0.82058080  0.67507991  1  -1.214675  -0.000917  -0.563209  -0.727346  -0.00056  1.984153  0.0
O  O423  1  0.85958251  0.17941704  0.67508057  1  -1.214699  -0.000916  -0.563245  -0.727422  -0.00056  1.984102  0.0
O  O424  1  0.13665461  0.29206006  0.07615963  1  -1.11665  0.000111  -0.296088  -0.464105  4.2e-05  2.052478  0.0
O  O425  1  0.70794083  0.13665617  0.07616127  1  -1.116753  0.000111  -0.296181  -0.464125  4.2e-05  2.052444  0.0
O  O426  1  0.86334741  0.70794083  0.07615732  1  -1.116513  0.000111  -0.296129  -0.464177  4.2e-05  2.052457  0.0
O  O427  1  0.29205746  0.86334153  0.07615824  1  -1.116819  0.000111  -0.296198  -0.464209  4.2e-05  2.052307  0.0
O  O428  1  0.63664791  0.20794312  0.42384248  1  -1.116473  0.000111  -0.296114  -0.464157  4.2e-05  2.052454  0.0
O  O429  1  0.36335105  0.79206038  0.42384202  1  -1.116441  0.000111  -0.296097  -0.46417  4.2e-05  2.052248  0.0
O  O430  1  0.79206006  0.63665034  0.42384103  1  -1.116549  0.000111  -0.296101  -0.464143  4.2e-05  2.052416  0.0
O  O431  1  0.20791281  0.36334304  0.42383806  1  -1.116783  0.000111  -0.295958  -0.464056  4.2e-05  2.052589  0.0
O  O432  1  0.86334089  0.70792449  0.92383690  1  -1.116789  0.000111  -0.296191  -0.464331  4.2e-05  2.052344  0.0
O  O433  1  0.29205467  0.86335128  0.92384153  1  -1.116574  0.000111  -0.29607  -0.464075  4.2e-05  2.052502  0.0
O  O434  1  0.13666087  0.29207674  0.92383950  1  -1.116683  0.000111  -0.296095  -0.464241  4.2e-05  2.052444  0.0
O  O435  1  0.70793484  0.13665367  0.92384000  1  -1.116679  0.000111  -0.296128  -0.464106  4.2e-05  2.052416  0.0
O  O436  1  0.36333587  0.79208670  0.57616118  1  -1.117126  0.000111  -0.296151  -0.46422  4.2e-05  2.052544  0.0
O  O437  1  0.63665190  0.20794014  0.57615850  1  -1.116591  0.000111  -0.296112  -0.464115  4.2e-05  2.052491  0.0
O  O438  1  0.20793224  0.36334326  0.57615750  1  -1.116753  0.000111  -0.296173  -0.46425  4.2e-05  2.052399  0.0
O  O439  1  0.79208056  0.63665908  0.57616104  1  -1.117058  0.000111  -0.29611  -0.464233  4.2e-05  2.05251  0.0
