# generated using pymatgen
data_Fe3H15(C3O2)8
_symmetry_space_group_name_H-M   'P 1'
_cell_length_a   19.04090104
_cell_length_b   19.04069678
_cell_length_c   19.04077315
_cell_angle_alpha   89.99997986
_cell_angle_beta   89.99900737
_cell_angle_gamma   90.00222153
_symmetry_Int_Tables_number   1
_chemical_formula_structural   Fe3H15(C3O2)8
_chemical_formula_sum   'Fe24 H120 C192 O128'
_cell_volume   6903.27081985
_cell_formula_units_Z   8
loop_
 _symmetry_equiv_pos_site_id
 _symmetry_equiv_pos_as_xyz
  1  'x, y, z'
loop_
 _atom_site_type_symbol
 _atom_site_label
 _atom_site_symmetry_multiplicity
 _atom_site_fract_x
 _atom_site_fract_y
 _atom_site_fract_z
 _atom_site_occupancy
 _atom_site_pbe_bader_charge
 _atom_site_pbe_bader_spin_density
 _atom_site_pbe_cm5_charge
 _atom_site_pbe_ddec_charge
 _atom_site_pbe_ddec_spin_density
 _atom_site_pbe_ddec_sum_bond_order
 _atom_site_pbe_magmom
Fe  Fe0  1  0.90477277  0.37231953  0.23430033  1  1.716322  3.519715  0.885181  1.353408  3.954798  2.86022  3.485
Fe  Fe1  1  0.23432308  0.90478912  0.37231830  1  1.716065  3.518619  0.885631  1.354109  3.953558  2.860588  3.484
Fe  Fe2  1  0.37231207  0.23431729  0.90477827  1  1.71641  3.519984  0.885237  1.353356  3.954985  2.860099  3.485
Fe  Fe3  1  0.12766864  0.76567606  0.40476594  1  1.71686  3.52071  0.885316  1.353553  3.955982  2.860327  3.486
Fe  Fe4  1  0.73434845  0.59523342  0.62767235  1  1.716621  3.521316  0.885298  1.353651  3.956545  2.859519  3.487
Fe  Fe5  1  0.62765742  0.73431187  0.59523654  1  1.716246  3.518262  0.885487  1.353676  3.953331  2.860436  3.484
Fe  Fe6  1  0.26564296  0.09518481  0.87234041  1  1.716432  3.519195  0.885524  1.353915  3.954304  2.860818  3.484
Fe  Fe7  1  0.76567692  0.40478257  0.12765408  1  1.716573  3.520171  0.885212  1.353363  3.955451  2.860297  3.485
Fe  Fe8  1  0.87234697  0.26566053  0.09519861  1  1.71623  3.518586  0.885578  1.353853  3.953701  2.861018  3.484
Fe  Fe9  1  0.59522029  0.62768067  0.73432994  1  1.716322  3.518918  0.885452  1.353699  3.953892  2.860679  3.484
Fe  Fe10  1  0.40477185  0.12765115  0.76570803  1  1.716224  3.519358  0.885229  1.353376  3.954547  2.860462  3.485
Fe  Fe11  1  0.09521599  0.87235853  0.26562952  1  1.716552  3.519069  0.885618  1.353752  3.954352  2.861098  3.484
Fe  Fe12  1  0.09522162  0.62767359  0.76568751  1  1.716474  3.519862  0.885317  1.353636  3.954992  2.860199  3.485
Fe  Fe13  1  0.76568916  0.09521083  0.62768740  1  1.716146  3.518527  0.885513  1.353945  3.953419  2.860432  3.484
Fe  Fe14  1  0.62768705  0.76567321  0.09522375  1  1.716313  3.520225  0.885223  1.353371  3.955243  2.860246  3.485
Fe  Fe15  1  0.87233258  0.23432021  0.59522926  1  1.716726  3.520891  0.885302  1.353608  3.956161  2.860228  3.486
Fe  Fe16  1  0.26564489  0.40476811  0.37233177  1  1.717146  3.521158  0.885305  1.353551  3.95646  2.859818  3.487
Fe  Fe17  1  0.37234379  0.26568545  0.40477126  1  1.71631  3.5182  0.885595  1.353747  3.953292  2.860655  3.483
Fe  Fe18  1  0.73434881  0.90481304  0.12765899  1  1.716384  3.519006  0.885527  1.353833  3.954103  2.860969  3.484
Fe  Fe19  1  0.23432115  0.59521475  0.87235057  1  1.716552  3.520039  0.885289  1.353494  3.955353  2.860586  3.485
Fe  Fe20  1  0.12765109  0.73433784  0.90479711  1  1.716356  3.518551  0.885558  1.353894  3.953685  2.861041  3.484
Fe  Fe21  1  0.40477253  0.37231771  0.26566526  1  1.71639  3.519079  0.885496  1.353749  3.954074  2.860548  3.484
Fe  Fe22  1  0.59522516  0.87234985  0.23429663  1  1.716133  3.519289  0.885274  1.353491  3.954481  2.860284  3.485
Fe  Fe23  1  0.90479311  0.12763459  0.73436358  1  1.716608  3.518957  0.885764  1.353921  3.954272  2.861117  3.484
H  H24  1  0.91985552  0.39607365  0.35366878  1  0.597417  0.006378  0.310868  0.392044  0.003744  0.891375  0.008
H  H25  1  0.35365523  0.91984812  0.39607050  1  0.597415  0.006384  0.310992  0.392346  0.003743  0.890987  0.008
H  H26  1  0.39605105  0.35369048  0.91982995  1  0.597375  0.006379  0.310843  0.392209  0.003743  0.89103  0.008
H  H27  1  0.10389683  0.64630602  0.41984591  1  0.597213  0.006393  0.310905  0.392113  0.003752  0.89115  0.008
H  H28  1  0.85372980  0.58019007  0.60394172  1  0.59672  0.006394  0.310857  0.392214  0.003746  0.891426  0.008
H  H29  1  0.60393462  0.85365421  0.58019637  1  0.597344  0.006371  0.310896  0.391985  0.003737  0.89142  0.008
H  H30  1  0.14631407  0.08016781  0.89609784  1  0.597171  0.006401  0.310936  0.392173  0.003751  0.891149  0.008
H  H31  1  0.64630596  0.41984326  0.10390450  1  0.597148  0.006386  0.310912  0.392181  0.003747  0.89104  0.008
H  H32  1  0.89607266  0.14634026  0.08016963  1  0.597502  0.006397  0.311003  0.392203  0.00375  0.891117  0.008
H  H33  1  0.58017749  0.60390759  0.85366083  1  0.597336  0.006397  0.310978  0.392155  0.003749  0.891192  0.008
H  H34  1  0.41983999  0.10390758  0.64632987  1  0.597121  0.006372  0.310894  0.392083  0.003738  0.891233  0.008
H  H35  1  0.08019718  0.89606012  0.14631569  1  0.597034  0.006414  0.311102  0.392169  0.003754  0.891195  0.008
H  H36  1  0.08014097  0.60392157  0.64632852  1  0.597403  0.006386  0.310942  0.392125  0.003747  0.891291  0.008
H  H37  1  0.64634651  0.08015497  0.60393415  1  0.597246  0.006372  0.310939  0.392323  0.003736  0.891048  0.008
H  H38  1  0.60394754  0.64630369  0.08017417  1  0.597191  0.006388  0.310897  0.392246  0.003745  0.890969  0.008
H  H39  1  0.89610333  0.35369288  0.58015769  1  0.597197  0.006393  0.310859  0.392047  0.003753  0.89128  0.008
H  H40  1  0.14627825  0.41980988  0.39606083  1  0.59677  0.006402  0.310894  0.392137  0.00375  0.891471  0.008
H  H41  1  0.39606922  0.14635414  0.41981038  1  0.597594  0.006378  0.310948  0.391941  0.003742  0.891415  0.008
H  H42  1  0.85367716  0.91983476  0.10390314  1  0.597009  0.006405  0.311001  0.392299  0.003752  0.891003  0.008
H  H43  1  0.35368265  0.58015669  0.89609753  1  0.597342  0.00639  0.310968  0.392203  0.003749  0.89118  0.008
H  H44  1  0.10393223  0.85365706  0.91982609  1  0.597619  0.006395  0.310986  0.392188  0.003749  0.891146  0.008
H  H45  1  0.41982163  0.39609078  0.14633016  1  0.597145  0.006395  0.310906  0.392062  0.003748  0.891344  0.008
H  H46  1  0.58016595  0.89609236  0.35367163  1  0.597022  0.006374  0.310984  0.392235  0.003737  0.891044  0.008
H  H47  1  0.91980771  0.10394087  0.85368266  1  0.597168  0.006415  0.311043  0.392128  0.003757  0.891164  0.008
H  H48  1  0.11108428  0.37922143  0.21328023  1  0.128399  0.000798  0.117286  0.127956  0.000216  0.993647  0.0
H  H49  1  0.21330495  0.11106881  0.37923221  1  0.127627  0.000798  0.117355  0.128019  0.000216  0.99344  0.0
H  H50  1  0.37923155  0.21328997  0.11106780  1  0.127646  0.000798  0.117358  0.127948  0.000216  0.993656  0.0
H  H51  1  0.12076422  0.78671294  0.61109112  1  0.128088  0.000798  0.117294  0.127905  0.000216  0.993319  0.0
H  H52  1  0.71329404  0.38890442  0.62074271  1  0.127879  0.000798  0.117362  0.127951  0.000216  0.993595  0.0
H  H53  1  0.62074211  0.71330782  0.38890990  1  0.127609  0.000798  0.117401  0.128132  0.000216  0.993328  0.0
H  H54  1  0.28667882  0.88889777  0.87924212  1  0.128268  0.000797  0.117324  0.128111  0.000216  0.99344  0.0
H  H55  1  0.78671674  0.61111472  0.12073870  1  0.12789  0.000799  0.117305  0.127957  0.000216  0.99344  0.0
H  H56  1  0.87923986  0.28668444  0.88891580  1  0.127837  0.000799  0.117398  0.128162  0.000216  0.993355  0.0
H  H57  1  0.38891707  0.62076411  0.71330999  1  0.127596  0.000798  0.117331  0.128074  0.000216  0.993321  0.0
H  H58  1  0.61110054  0.12075519  0.78670486  1  0.128217  0.000798  0.117284  0.127997  0.000216  0.993538  0.0
H  H59  1  0.88890369  0.87925759  0.28667588  1  0.127281  0.000799  0.117387  0.128103  0.000216  0.993473  0.0
H  H60  1  0.88891168  0.62078167  0.78671340  1  0.128519  0.000798  0.117275  0.127969  0.000216  0.993464  0.0
H  H61  1  0.78670204  0.88893114  0.62076929  1  0.12773  0.000798  0.117399  0.128082  0.000216  0.993482  0.0
H  H62  1  0.62075916  0.78671103  0.88892530  1  0.127631  0.000798  0.117415  0.128008  0.000216  0.993642  0.0
H  H63  1  0.87923909  0.21328333  0.38890565  1  0.128197  0.000798  0.117319  0.12793  0.000216  0.993502  0.0
H  H64  1  0.28670823  0.61109395  0.37925512  1  0.127993  0.000798  0.117327  0.12796  0.000216  0.993448  0.0
H  H65  1  0.37925333  0.28669581  0.61108530  1  0.127541  0.000799  0.117395  0.128165  0.000216  0.993286  0.0
H  H66  1  0.71331294  0.11109483  0.12076201  1  0.127818  0.000798  0.117345  0.128149  0.000216  0.993247  0.0
H  H67  1  0.21329025  0.38888628  0.87926175  1  0.127732  0.000799  0.117295  0.127981  0.000216  0.993412  0.0
H  H68  1  0.12077711  0.71331708  0.11107993  1  0.127933  0.000799  0.117321  0.128026  0.000216  0.993504  0.0
H  H69  1  0.61108152  0.37924057  0.28670149  1  0.127873  0.000798  0.117399  0.128043  0.000216  0.99351  0.0
H  H70  1  0.38890278  0.87924843  0.21329454  1  0.128174  0.000799  0.117288  0.127946  0.000216  0.9934  0.0
H  H71  1  0.11109752  0.12075339  0.71331827  1  0.1279  0.000799  0.117331  0.128148  0.000216  0.993345  0.0
H  H72  1  0.08685477  0.26197529  0.02152564  1  0.10143  0.000477  0.114176  0.119634  0.000134  0.982362  0.0
H  H73  1  0.02153884  0.08684698  0.26199389  1  0.102873  0.000477  0.113935  0.119365  0.000134  0.982042  0.0
H  H74  1  0.26199304  0.02152528  0.08683874  1  0.10232  0.000477  0.114055  0.119492  0.000134  0.982326  0.0
H  H75  1  0.23801470  0.97847763  0.58685944  1  0.102005  0.000477  0.114058  0.119443  0.000134  0.982249  0.0
H  H76  1  0.52153208  0.41315295  0.73798908  1  0.102661  0.000476  0.113859  0.119249  0.000134  0.982194  0.0
H  H77  1  0.73798684  0.52155345  0.41316371  1  0.103181  0.000476  0.113892  0.119385  0.000134  0.982258  0.0
H  H78  1  0.47843647  0.91315062  0.76201202  1  0.103578  0.000476  0.113911  0.119385  0.000134  0.98235  0.0
H  H79  1  0.97846039  0.58686405  0.23800539  1  0.102034  0.000476  0.113915  0.119316  0.000134  0.982332  0.0
H  H80  1  0.76199892  0.47843670  0.91315319  1  0.103298  0.000476  0.113861  0.119292  0.000134  0.982236  0.0
H  H81  1  0.41316303  0.73798984  0.52154339  1  0.103063  0.000475  0.113947  0.119399  0.000134  0.982379  0.0
H  H82  1  0.58684757  0.23801405  0.97845514  1  0.102768  0.000476  0.113982  0.11938  0.000134  0.982268  0.0
H  H83  1  0.91316962  0.76202230  0.47843681  1  0.10312  0.000476  0.113898  0.119489  0.000134  0.982113  0.0
H  H84  1  0.91314802  0.73802939  0.97847061  1  0.101529  0.000477  0.114168  0.119641  0.000134  0.982209  0.0
H  H85  1  0.97846658  0.91316294  0.73799921  1  0.102782  0.000477  0.113875  0.11929  0.000134  0.981982  0.0
H  H86  1  0.73801290  0.97846521  0.91316119  1  0.102347  0.000477  0.114014  0.119415  0.000134  0.982286  0.0
H  H87  1  0.76198861  0.02152232  0.41314206  1  0.102156  0.000476  0.114046  0.11942  0.000134  0.982299  0.0
H  H88  1  0.47846703  0.58685855  0.26200612  1  0.102636  0.000476  0.113909  0.11925  0.000134  0.982362  0.0
H  H89  1  0.26201018  0.47845543  0.58684304  1  0.103159  0.000476  0.113867  0.119336  0.000134  0.982174  0.0
H  H90  1  0.52155057  0.08685195  0.23798948  1  0.103343  0.000476  0.113894  0.119395  0.000134  0.982429  0.0
H  H91  1  0.02154976  0.41313012  0.76198718  1  0.102457  0.000476  0.113831  0.119241  0.000134  0.982249  0.0
H  H92  1  0.23800755  0.52156219  0.08683308  1  0.103023  0.000476  0.113941  0.119468  0.000134  0.982368  0.0
H  H93  1  0.58683451  0.26199330  0.47845969  1  0.102618  0.000476  0.114008  0.119495  0.000134  0.982229  0.0
H  H94  1  0.41315050  0.76199062  0.02154531  1  0.102742  0.000477  0.113903  0.119319  0.000134  0.982201  0.0
H  H95  1  0.08683685  0.23798973  0.52156154  1  0.103314  0.000476  0.113837  0.119298  0.000134  0.982204  0.0
H  H96  1  0.21759334  0.25684251  0.00918625  1  0.113645  0.00043  0.101608  0.106012  -0.000118  1.04495  0.0
H  H97  1  0.00921112  0.21759249  0.25686340  1  0.113751  0.000429  0.101717  0.106204  -0.000119  1.044635  0.0
H  H98  1  0.25686744  0.00918003  0.21757927  1  0.113309  0.00043  0.101667  0.106217  -0.000118  1.044864  0.0
H  H99  1  0.24313594  0.99081917  0.71759726  1  0.113552  0.00043  0.101671  0.106022  -0.000118  1.045014  0.0
H  H100  1  0.50919290  0.28241747  0.74314236  1  0.113383  0.00043  0.101677  0.106098  -0.000118  1.045043  0.0
H  H101  1  0.74313140  0.50920843  0.28242213  1  0.113788  0.00043  0.101748  0.106342  -0.000118  1.044309  0.0
H  H102  1  0.49078948  0.78241405  0.75688242  1  0.113746  0.00043  0.101682  0.106219  -0.000118  1.044856  0.0
H  H103  1  0.99081681  0.71760110  0.24312848  1  0.113172  0.000431  0.101633  0.106035  -0.000118  1.044942  0.0
H  H104  1  0.75688236  0.49078597  0.78241064  1  0.113874  0.00043  0.101745  0.106325  -0.000118  1.044794  0.0
H  H105  1  0.28242520  0.74313838  0.50920416  1  0.11366  0.00043  0.101788  0.106354  -0.000118  1.044438  0.0
H  H106  1  0.71758402  0.24313982  0.99081065  1  0.113384  0.00043  0.101682  0.106179  -0.000118  1.044898  0.0
H  H107  1  0.78243295  0.75690913  0.49080562  1  0.113632  0.00043  0.101677  0.106156  -0.000118  1.044809  0.0
H  H108  1  0.78240682  0.74315797  0.99080948  1  0.113946  0.00043  0.101617  0.106046  -0.000118  1.044925  0.0
H  H109  1  0.99079483  0.78241639  0.74314020  1  0.113698  0.000429  0.101738  0.106241  -0.000118  1.044698  0.0
H  H110  1  0.74313430  0.99081467  0.78242065  1  0.113222  0.00043  0.101682  0.106184  -0.000118  1.044967  0.0
H  H111  1  0.75685792  0.00918603  0.28240634  1  0.11356  0.00043  0.101649  0.106086  -0.000118  1.044957  0.0
H  H112  1  0.49080674  0.71759298  0.25685599  1  0.113761  0.00043  0.101708  0.106146  -0.000118  1.04488  0.0
H  H113  1  0.25686929  0.49079414  0.71758672  1  0.113641  0.00043  0.101734  0.106251  -0.000118  1.044566  0.0
H  H114  1  0.50920753  0.21758958  0.24311436  1  0.113265  0.00043  0.101707  0.106203  -0.000118  1.044979  0.0
H  H115  1  0.00919386  0.28239150  0.75686987  1  0.113217  0.000431  0.101667  0.105994  -0.000118  1.045018  0.0
H  H116  1  0.24311781  0.50919665  0.21757405  1  0.113652  0.00043  0.101777  0.106318  -0.000118  1.044482  0.0
H  H117  1  0.71757286  0.25685527  0.49080259  1  0.113463  0.000429  0.101742  0.106306  -0.000118  1.044502  0.0
H  H118  1  0.28241404  0.75685330  0.00919400  1  0.113847  0.00043  0.101742  0.106276  -0.000118  1.044815  0.0
H  H119  1  0.21757404  0.24311025  0.50919798  1  0.11371  0.000431  0.101704  0.106208  -0.000118  1.044627  0.0
H  H120  1  0.29416311  0.31558132  0.09646249  1  0.06418  0.000549  0.112575  0.116802  0.000106  0.996784  0.0
H  H121  1  0.09651468  0.29415072  0.31558136  1  0.064421  0.000549  0.112576  0.117114  0.000106  0.996694  0.0
H  H122  1  0.31558785  0.09647365  0.29414392  1  0.064464  0.000548  0.112614  0.116966  0.000106  0.996801  0.0
H  H123  1  0.18440685  0.90353655  0.79416137  1  0.063779  0.000549  0.112583  0.116928  0.000106  0.996775  0.0
H  H124  1  0.59647404  0.20583900  0.68443182  1  0.064414  0.000548  0.112596  0.116893  0.000106  0.99672  0.0
H  H125  1  0.68441647  0.59649088  0.20584643  1  0.064227  0.000548  0.112596  0.117032  0.000106  0.996558  0.0
H  H126  1  0.40351483  0.70583006  0.81560192  1  0.064194  0.000549  0.11266  0.117084  0.000106  0.996786  0.0
H  H127  1  0.90355350  0.79417802  0.18439736  1  0.063428  0.000549  0.112539  0.116785  0.000107  0.996979  0.0
H  H128  1  0.81560124  0.40350407  0.70583815  1  0.064181  0.000549  0.11254  0.117007  0.000106  0.99651  0.0
H  H129  1  0.20584815  0.68441476  0.59648595  1  0.064304  0.000548  0.112577  0.11701  0.000106  0.996557  0.0
H  H130  1  0.79416247  0.18441868  0.90353571  1  0.063895  0.000549  0.11255  0.116845  0.000107  0.996766  0.0
H  H131  1  0.70584866  0.81559879  0.40352042  1  0.063764  0.000548  0.112605  0.117068  0.000106  0.996636  0.0
H  H132  1  0.70583759  0.68441600  0.90353743  1  0.064185  0.000549  0.112586  0.116798  0.000106  0.996851  0.0
H  H133  1  0.90348863  0.70585291  0.68443274  1  0.06447  0.000548  0.112568  0.117105  0.000106  0.996703  0.0
H  H134  1  0.68440706  0.90352945  0.70585180  1  0.06403  0.000548  0.112582  0.117017  0.000106  0.996653  0.0
H  H135  1  0.81558912  0.09646183  0.20583750  1  0.063791  0.000549  0.112606  0.116915  0.000106  0.996917  0.0
H  H136  1  0.40352298  0.79416673  0.31557599  1  0.064276  0.000548  0.112577  0.116922  0.000106  0.996827  0.0
H  H137  1  0.31558737  0.40350644  0.79415297  1  0.064145  0.000548  0.112576  0.116987  0.000106  0.99671  0.0
H  H138  1  0.59648638  0.29416831  0.18439591  1  0.064215  0.000548  0.112666  0.117104  0.000106  0.996733  0.0
H  H139  1  0.09645770  0.20581877  0.81560992  1  0.063289  0.00055  0.112642  0.116935  0.000107  0.997074  0.0
H  H140  1  0.18440470  0.59647749  0.29415127  1  0.064382  0.000549  0.112606  0.11705  0.000106  0.99645  0.0
H  H141  1  0.79414729  0.31558256  0.40352237  1  0.064346  0.000548  0.112602  0.116995  0.000106  0.996642  0.0
H  H142  1  0.20583507  0.81557339  0.09647315  1  0.064238  0.000549  0.112535  0.116794  0.000107  0.99677  0.0
H  H143  1  0.29415676  0.18441272  0.59648003  1  0.064108  0.000548  0.112624  0.116932  0.000106  0.996655  0.0
C  C144  1  0.01394038  0.32211031  0.12981388  1  1.539243  0.006139  0.243895  0.612359  0.004897  4.109134  0.006
C  C145  1  0.12982379  0.01393472  0.32211499  1  1.539273  0.006153  0.243709  0.612021  0.004907  4.109294  0.006
C  C146  1  0.32211478  0.12981399  0.01392887  1  1.539083  0.006148  0.243866  0.612336  0.004903  4.108669  0.006
C  C147  1  0.17787217  0.87018475  0.51393279  1  1.539263  0.006142  0.243783  0.61221  0.004898  4.10947  0.006
C  C148  1  0.62982144  0.48606888  0.67785716  1  1.538723  0.006143  0.243752  0.612193  0.004899  4.109321  0.006
C  C149  1  0.67785460  0.62983717  0.48606619  1  1.538455  0.006148  0.243775  0.612232  0.004899  4.109801  0.006
C  C150  1  0.37014469  0.98604290  0.82214601  1  1.537534  0.006152  0.243759  0.612274  0.004901  4.109962  0.006
C  C151  1  0.87017733  0.51394498  0.17784807  1  1.538002  0.006142  0.243693  0.61196  0.004898  4.109648  0.006
C  C152  1  0.82214145  0.37015453  0.98605676  1  1.537789  0.006154  0.243842  0.612119  0.004905  4.110264  0.006
C  C153  1  0.48606031  0.67787631  0.62983249  1  1.539559  0.006138  0.243768  0.611979  0.004898  4.109702  0.006
C  C154  1  0.51393798  0.17787252  0.87017289  1  1.538768  0.006141  0.243566  0.611743  0.004897  4.109982  0.006
C  C155  1  0.98606481  0.82215546  0.37013595  1  1.539554  0.006143  0.243751  0.612076  0.0049  4.110805  0.006
C  C156  1  0.98605610  0.67789542  0.87018079  1  1.539323  0.006141  0.243829  0.61233  0.004899  4.109446  0.006
C  C157  1  0.87017795  0.98606102  0.67787863  1  1.539027  0.006157  0.24379  0.611901  0.00491  4.109496  0.006
C  C158  1  0.67787698  0.87018228  0.98606790  1  1.538349  0.006151  0.243961  0.612519  0.004902  4.108791  0.006
C  C159  1  0.82212904  0.12980995  0.48606556  1  1.539386  0.006137  0.243856  0.612393  0.004895  4.109186  0.006
C  C160  1  0.37017505  0.51393264  0.32213121  1  1.539097  0.006138  0.243798  0.61229  0.004895  4.109589  0.006
C  C161  1  0.32214137  0.37016750  0.51393111  1  1.538875  0.006148  0.243634  0.61198  0.004902  4.109983  0.006
C  C162  1  0.62984287  0.01395285  0.17784814  1  1.5378  0.006149  0.243792  0.612122  0.004901  4.110043  0.006
C  C163  1  0.12982126  0.48605181  0.82214818  1  1.538909  0.006139  0.243636  0.61174  0.0049  4.10978  0.006
C  C164  1  0.17786607  0.62984909  0.01393791  1  1.538356  0.006152  0.243645  0.612136  0.004906  4.110609  0.006
C  C165  1  0.51393723  0.32212784  0.37017164  1  1.539242  0.006139  0.243763  0.612028  0.004898  4.109931  0.006
C  C166  1  0.48606534  0.82213268  0.12982546  1  1.538042  0.00615  0.243764  0.612131  0.004899  4.109305  0.006
C  C167  1  0.01393746  0.17784502  0.62985347  1  1.537946  0.006151  0.24367  0.612159  0.004904  4.110384  0.006
C  C168  1  0.25234332  0.37939853  0.21770529  1  1.561956  0.004724  0.232117  0.605856  0.003252  4.144757  0.004
C  C169  1  0.21776336  0.25230952  0.37939233  1  1.562061  0.004737  0.231738  0.604733  0.003265  4.145947  0.004
C  C170  1  0.37942158  0.21770470  0.25232466  1  1.562643  0.004709  0.23199  0.605516  0.003243  4.144688  0.004
C  C171  1  0.12057700  0.78230288  0.75234957  1  1.562327  0.004711  0.232245  0.606353  0.003242  4.144772  0.004
C  C172  1  0.71769813  0.24764130  0.62059144  1  1.561856  0.004713  0.232252  0.606035  0.003243  4.144611  0.004
C  C173  1  0.62060057  0.71773625  0.24766879  1  1.561699  0.004721  0.231651  0.604917  0.003253  4.146035  0.004
C  C174  1  0.28224667  0.74766441  0.87941497  1  1.562711  0.004722  0.231922  0.605689  0.003256  4.145488  0.004
C  C175  1  0.78231055  0.75235684  0.12056855  1  1.561799  0.00471  0.23206  0.606105  0.003241  4.144473  0.004
C  C176  1  0.87939750  0.28223295  0.74768414  1  1.561763  0.004737  0.231671  0.604796  0.003266  4.145808  0.004
C  C177  1  0.24765901  0.62060014  0.71773751  1  1.562137  0.004723  0.231715  0.605069  0.003255  4.146007  0.004
C  C178  1  0.75233916  0.12056833  0.78229310  1  1.563889  0.004715  0.232093  0.605866  0.003248  4.144961  0.004
C  C179  1  0.74767092  0.87941083  0.28225239  1  1.5626  0.004713  0.231797  0.605259  0.00325  4.145441  0.004
C  C180  1  0.74765580  0.62060299  0.78229673  1  1.561895  0.004721  0.232155  0.6059  0.003249  4.144593  0.004
C  C181  1  0.78223943  0.74769253  0.62062388  1  1.561922  0.004736  0.231596  0.604648  0.003263  4.145727  0.004
C  C182  1  0.62057596  0.78229735  0.74767053  1  1.561956  0.004711  0.232047  0.605647  0.003241  4.144523  0.004
C  C183  1  0.87942789  0.21769286  0.24765246  1  1.562165  0.004709  0.232215  0.606375  0.00324  4.144588  0.004
C  C184  1  0.28229731  0.75235813  0.37941584  1  1.561789  0.004718  0.232241  0.606143  0.003246  4.144813  0.004
C  C185  1  0.37939959  0.28226685  0.75233324  1  1.562036  0.004717  0.23163  0.60478  0.003249  4.145987  0.004
C  C186  1  0.71775665  0.25233134  0.12059493  1  1.562701  0.004724  0.231743  0.605082  0.003259  4.145841  0.004
C  C187  1  0.21769381  0.24763786  0.87944188  1  1.56186  0.004712  0.231986  0.606062  0.003242  4.144414  0.004
C  C188  1  0.12061054  0.71775912  0.25231631  1  1.562283  0.004734  0.231684  0.604967  0.003264  4.146565  0.004
C  C189  1  0.75233433  0.37939351  0.28226714  1  1.562388  0.004715  0.231726  0.60507  0.003251  4.14589  0.004
C  C190  1  0.24766101  0.87943161  0.21770945  1  1.56392  0.004721  0.232129  0.60598  0.003253  4.145133  0.004
C  C191  1  0.25232872  0.12060329  0.71774964  1  1.562036  0.004717  0.231804  0.605189  0.003251  4.145592  0.004
C  C192  1  0.13441868  0.35359100  0.16784175  1  -0.039047  0.007605  -0.064853  -0.087726  0.003481  3.910106  0.004
C  C193  1  0.16786975  0.13440636  0.35360234  1  -0.040393  0.007616  -0.065096  -0.088345  0.003486  3.909891  0.004
C  C194  1  0.35360615  0.16785205  0.13439796  1  -0.045804  0.007612  -0.064997  -0.088089  0.003484  3.910483  0.004
C  C195  1  0.14638711  0.83215872  0.63442503  1  -0.046089  0.0076  -0.064922  -0.087837  0.003478  3.909904  0.004
C  C196  1  0.66784698  0.36557929  0.64636811  1  -0.046181  0.007597  -0.064915  -0.087847  0.003476  3.909798  0.004
C  C197  1  0.64636575  0.66786355  0.36558711  1  -0.046773  0.007619  -0.064924  -0.088127  0.003486  3.909492  0.004
C  C198  1  0.33211604  0.86557440  0.85361987  1  -0.047079  0.007617  -0.064869  -0.088091  0.003485  3.909544  0.004
C  C199  1  0.83216440  0.63444142  0.14636279  1  -0.044789  0.007604  -0.065058  -0.088253  0.00348  3.909745  0.004
C  C200  1  0.85360981  0.33211611  0.86558135  1  -0.040224  0.00762  -0.06497  -0.088307  0.003488  3.909648  0.004
C  C201  1  0.36558976  0.64638563  0.66786718  1  -0.046061  0.007611  -0.064919  -0.088157  0.003483  3.909619  0.004
C  C202  1  0.63442411  0.14638757  0.83214766  1  -0.046533  0.007615  -0.064859  -0.087974  0.003485  3.909825  0.004
C  C203  1  0.86558300  0.85363202  0.33211752  1  -0.046651  0.00761  -0.064915  -0.088108  0.003481  3.909599  0.004
C  C204  1  0.86557886  0.64641315  0.83215398  1  -0.039476  0.0076  -0.064908  -0.087796  0.003479  3.909859  0.004
C  C205  1  0.83213147  0.86559516  0.64639916  1  -0.046193  0.007615  -0.065119  -0.088415  0.003485  3.910149  0.004
C  C206  1  0.64638298  0.83214894  0.86559934  1  -0.045889  0.007607  -0.064969  -0.087963  0.003481  3.910363  0.004
C  C207  1  0.85362146  0.16783860  0.36557384  1  -0.045548  0.007595  -0.064883  -0.087848  0.003476  3.910218  0.004
C  C208  1  0.33215843  0.63442276  0.35362866  1  -0.045676  0.007599  -0.064957  -0.08801  0.003477  3.909765  0.004
C  C209  1  0.35363022  0.33213955  0.63441544  1  -0.046284  0.007617  -0.064955  -0.088227  0.003486  3.909647  0.004
C  C210  1  0.66787309  0.13442239  0.14637795  1  -0.046477  0.007614  -0.06496  -0.088088  0.003484  3.909543  0.004
C  C211  1  0.16784154  0.36556010  0.85363871  1  -0.045041  0.007607  -0.065113  -0.088406  0.003482  3.909631  0.004
C  C212  1  0.14640664  0.66788016  0.13441490  1  -0.039983  0.007619  -0.064909  -0.087991  0.003488  3.909692  0.004
C  C213  1  0.63441146  0.35361537  0.33214167  1  -0.046111  0.007605  -0.064903  -0.08804  0.00348  3.909942  0.004
C  C214  1  0.36557553  0.85361658  0.16784911  1  -0.046251  0.00762  -0.064872  -0.08789  0.003487  3.909612  0.004
C  C215  1  0.13441979  0.14638054  0.66787978  1  -0.046759  0.00761  -0.064867  -0.088173  0.003482  3.909501  0.004
C  C216  1  0.20736378  0.35128315  0.16024164  1  -0.00073  0.010234  -0.014289  -0.043751  0.004773  3.973732  0.008
C  C217  1  0.16029066  0.20735418  0.35127580  1  -0.001729  0.010207  -0.013893  -0.042501  0.004756  3.973043  0.008
C  C218  1  0.35129246  0.16024986  0.20734250  1  -0.000914  0.01021  -0.014105  -0.043056  0.004759  3.973426  0.008
C  C219  1  0.14870007  0.83976352  0.70736637  1  -0.0005  0.01022  -0.014195  -0.043519  0.004766  3.973657  0.008
C  C220  1  0.66023194  0.29263328  0.64869373  1  -0.001218  0.010231  -0.014231  -0.043437  0.004771  3.973427  0.008
C  C221  1  0.64869753  0.66026515  0.29263889  1  -0.00245  0.01022  -0.013967  -0.042824  0.004763  3.973226  0.008
C  C222  1  0.33972406  0.79263027  0.85130584  1  -0.002675  0.010207  -0.013966  -0.042983  0.004756  3.973201  0.008
C  C223  1  0.83977941  0.70738007  0.14868247  1  -0.001408  0.010226  -0.013891  -0.042767  0.004769  3.973132  0.008
C  C224  1  0.85129137  0.33971454  0.79263633  1  -0.002319  0.010212  -0.014025  -0.042796  0.00476  3.973094  0.008
C  C225  1  0.29264217  0.64869873  0.66026833  1  -0.002321  0.010225  -0.014015  -0.042846  0.004765  3.97302  0.008
C  C226  1  0.70736497  0.14870770  0.83975229  1  -0.001661  0.010213  -0.014226  -0.043487  0.00476  3.973593  0.008
C  C227  1  0.79263572  0.85130348  0.33973076  1  -0.002374  0.010205  -0.013929  -0.042806  0.004755  3.972976  0.008
C  C228  1  0.79263323  0.64872152  0.83976249  1  -0.000684  0.010235  -0.014206  -0.043713  0.004773  3.973711  0.008
C  C229  1  0.83971423  0.79265207  0.64873095  1  -0.002085  0.010204  -0.013882  -0.042469  0.004754  3.973081  0.008
C  C230  1  0.64869930  0.83975639  0.79265690  1  -0.000271  0.010209  -0.014087  -0.043005  0.004759  3.973444  0.008
C  C231  1  0.85130745  0.16023013  0.29263880  1  -0.001761  0.01022  -0.014263  -0.043601  0.004766  3.973639  0.008
C  C232  1  0.33976297  0.70736929  0.35131040  1  -0.002452  0.010233  -0.014217  -0.043437  0.004772  3.973218  0.008
C  C233  1  0.35129949  0.33973743  0.70736261  1  -0.002503  0.010224  -0.014012  -0.042759  0.004765  3.973433  0.008
C  C234  1  0.66027243  0.20736653  0.14869356  1  -0.002672  0.010202  -0.013954  -0.042966  0.004754  3.973273  0.008
C  C235  1  0.16022811  0.29261830  0.85132113  1  -0.001866  0.010228  -0.013884  -0.042657  0.00477  3.972942  0.008
C  C236  1  0.14871878  0.66027910  0.20736045  1  -0.00176  0.010216  -0.014058  -0.043043  0.004762  3.973125  0.008
C  C237  1  0.70735432  0.35129702  0.33974525  1  -0.001966  0.010229  -0.014136  -0.043012  0.004767  3.973357  0.008
C  C238  1  0.29263467  0.85129539  0.16025446  1  -0.002266  0.010214  -0.014168  -0.043397  0.00476  3.973481  0.008
C  C239  1  0.20736498  0.14870960  0.66027284  1  -0.002374  0.010204  -0.013977  -0.042786  0.004755  3.97291  0.008
C  C240  1  0.09112172  0.32227304  0.11748545  1  -0.028202  0.012765  -0.013867  -0.048965  0.005994  3.980344  0.009
C  C241  1  0.11750392  0.09111286  0.32228735  1  -0.027029  0.012758  -0.013771  -0.048646  0.005991  3.980555  0.009
C  C242  1  0.32228351  0.11749353  0.09110536  1  -0.021914  0.012764  -0.013889  -0.048822  0.005995  3.980787  0.009
C  C243  1  0.17770368  0.88251569  0.59111768  1  -0.021186  0.012767  -0.013854  -0.048958  0.005997  3.980307  0.009
C  C244  1  0.61749384  0.40888292  0.67769238  1  -0.021485  0.01277  -0.013915  -0.048961  0.005999  3.980589  0.009
C  C245  1  0.67768119  0.61750465  0.40888866  1  -0.021522  0.012781  -0.01394  -0.048688  0.006004  3.980041  0.009
C  C246  1  0.38247927  0.90887107  0.82230347  1  -0.020784  0.01276  -0.013848  -0.048609  0.005994  3.979774  0.009
C  C247  1  0.88250965  0.59112990  0.17768829  1  -0.022106  0.012782  -0.013887  -0.048839  0.006004  3.979934  0.009
C  C248  1  0.82229729  0.38248078  0.90887870  1  -0.027298  0.012778  -0.013871  -0.048519  0.006001  3.980021  0.009
C  C249  1  0.40888707  0.67770466  0.61750120  1  -0.021611  0.012741  -0.013874  -0.048667  0.005984  3.980527  0.009
C  C250  1  0.59111856  0.17770491  0.88250576  1  -0.021409  0.012776  -0.01381  -0.048593  0.006001  3.980547  0.009
C  C251  1  0.90888821  0.82231519  0.38247225  1  -0.021275  0.012777  -0.013894  -0.048401  0.006002  3.979764  0.009
C  C252  1  0.90887635  0.67772796  0.88250817  1  -0.027644  0.012762  -0.013785  -0.048881  0.005993  3.980449  0.009
C  C253  1  0.88249887  0.90888814  0.67770785  1  -0.021595  0.012751  -0.013817  -0.048613  0.005988  3.980729  0.009
C  C254  1  0.67771141  0.88250327  0.90889299  1  -0.02182  0.012761  -0.014021  -0.049073  0.005993  3.980838  0.009
C  C255  1  0.82230593  0.11747796  0.40888066  1  -0.021719  0.012769  -0.013873  -0.048893  0.005998  3.980054  0.009
C  C256  1  0.38250737  0.59111493  0.32230492  1  -0.02166  0.01277  -0.013789  -0.048704  0.005998  3.98025  0.009
C  C257  1  0.32231425  0.38249898  0.59111389  1  -0.02163  0.012785  -0.013865  -0.048726  0.006006  3.980071  0.009
C  C258  1  0.61750777  0.09112835  0.17769435  1  -0.020837  0.012762  -0.013728  -0.04855  0.005994  3.980078  0.009
C  C259  1  0.11749577  0.40886795  0.82230796  1  -0.021517  0.012785  -0.013813  -0.048695  0.006005  3.979946  0.009
C  C260  1  0.17771811  0.61751707  0.09111492  1  -0.027939  0.012774  -0.013885  -0.048783  0.006  3.98021  0.009
C  C261  1  0.59110837  0.32229477  0.38250082  1  -0.021947  0.012741  -0.013906  -0.04866  0.005983  3.980403  0.009
C  C262  1  0.40888160  0.82229452  0.11749312  1  -0.021358  0.01278  -0.013804  -0.048694  0.006004  3.980416  0.009
C  C263  1  0.09111721  0.17769579  0.61752505  1  -0.020998  0.012782  -0.013853  -0.048555  0.006005  3.979896  0.009
C  C264  1  0.12100774  0.28773393  0.05957474  1  -0.030633  0.006407  -0.064684  -0.062669  0.002993  3.915047  0.004
C  C265  1  0.05959682  0.12100508  0.28776141  1  -0.031919  0.00641  -0.064363  -0.062289  0.002994  3.914914  0.004
C  C266  1  0.28775540  0.05957533  0.12099153  1  -0.031282  0.006412  -0.064533  -0.062426  0.002995  3.915264  0.004
C  C267  1  0.21224703  0.94042442  0.62100744  1  -0.031118  0.006406  -0.064533  -0.062393  0.002992  3.914799  0.004
C  C268  1  0.55958289  0.37900368  0.71222824  1  -0.031627  0.006398  -0.064447  -0.062218  0.002988  3.915264  0.004
C  C269  1  0.71221598  0.55959883  0.37900775  1  -0.031589  0.006401  -0.064343  -0.062493  0.00299  3.914852  0.004
C  C270  1  0.44039326  0.87899514  0.78777917  1  -0.032195  0.006404  -0.064401  -0.062421  0.002991  3.91507  0.004
C  C271  1  0.94041423  0.62101595  0.21223155  1  -0.031077  0.006402  -0.064501  -0.062385  0.00299  3.915386  0.004
C  C272  1  0.78776669  0.44038556  0.87899942  1  -0.031702  0.006403  -0.064411  -0.062309  0.00299  3.914901  0.004
C  C273  1  0.37901308  0.71223119  0.55958941  1  -0.031826  0.006402  -0.064356  -0.062248  0.00299  3.915369  0.004
C  C274  1  0.62100019  0.21224570  0.94040808  1  -0.031722  0.006406  -0.064542  -0.06243  0.002992  3.915475  0.004
C  C275  1  0.87900610  0.78779381  0.44039033  1  -0.031223  0.0064  -0.064496  -0.062936  0.00299  3.914941  0.004
C  C276  1  0.87898665  0.71226970  0.94041731  1  -0.031132  0.006407  -0.06462  -0.062644  0.002992  3.91521  0.004
C  C277  1  0.94040649  0.87900275  0.71223536  1  -0.031503  0.006408  -0.064322  -0.062185  0.002993  3.914468  0.004
C  C278  1  0.71224214  0.94041936  0.87900734  1  -0.031342  0.006409  -0.064438  -0.062316  0.002994  3.914882  0.004
C  C279  1  0.78775891  0.05957185  0.37899353  1  -0.031764  0.006403  -0.064542  -0.062406  0.00299  3.9149  0.004
C  C280  1  0.44041518  0.62100099  0.28776590  1  -0.031585  0.006398  -0.06455  -0.062303  0.002988  3.915318  0.004
C  C281  1  0.28777893  0.44040427  0.62099795  1  -0.031869  0.006403  -0.064341  -0.062348  0.00299  3.914781  0.004
C  C282  1  0.55959272  0.12100586  0.21221866  1  -0.032305  0.006404  -0.064497  -0.062578  0.002991  3.915413  0.004
C  C283  1  0.05959224  0.37897664  0.78776522  1  -0.031314  0.006406  -0.064501  -0.062373  0.002991  3.915079  0.004
C  C284  1  0.21224556  0.55960651  0.12098632  1  -0.031538  0.006403  -0.064378  -0.062449  0.002991  3.915369  0.004
C  C285  1  0.62098446  0.28776299  0.44041156  1  -0.031306  0.006401  -0.064414  -0.062416  0.00299  3.915037  0.004
C  C286  1  0.37899945  0.78775792  0.05959237  1  -0.031714  0.006406  -0.064468  -0.062318  0.002992  3.915521  0.004
C  C287  1  0.12099669  0.21221822  0.55960749  1  -0.03175  0.006399  -0.064401  -0.062516  0.002989  3.914892  0.004
C  C288  1  0.19387983  0.28546074  0.05245570  1  -0.072366  0.000816  -0.085722  -0.080687  0.000153  3.97482  0.0
C  C289  1  0.05248672  0.19388253  0.28548162  1  -0.073699  0.000815  -0.08585  -0.080856  0.000151  3.974423  0.0
C  C290  1  0.28547795  0.05245841  0.19386202  1  -0.07382  0.000817  -0.085792  -0.081005  0.000152  3.974818  0.0
C  C291  1  0.21451744  0.94754604  0.69388524  1  -0.072694  0.000815  -0.085775  -0.080702  0.000153  3.974598  0.0
C  C292  1  0.55245995  0.30613226  0.71451919  1  -0.071927  0.000817  -0.085851  -0.081091  0.000155  3.975201  0.0
C  C293  1  0.71450523  0.55248308  0.30613464  1  -0.073227  0.000821  -0.085935  -0.081055  0.000155  3.974034  0.0
C  C294  1  0.44751601  0.80612505  0.78549927  1  -0.073273  0.000817  -0.085875  -0.080956  0.000152  3.974457  0.0
C  C295  1  0.94754448  0.69388895  0.21450764  1  -0.072243  0.000817  -0.085773  -0.080809  0.000154  3.975005  0.0
C  C296  1  0.78549236  0.44751026  0.80612635  1  -0.073708  0.000819  -0.085913  -0.081196  0.000154  3.97446  0.0
C  C297  1  0.30614216  0.71451120  0.55247426  1  -0.072923  0.000817  -0.085889  -0.08116  0.000152  3.974415  0.0
C  C298  1  0.69387173  0.21452277  0.94753478  1  -0.074257  0.000821  -0.085795  -0.080935  0.000155  3.974707  0.0
C  C299  1  0.80613392  0.78551832  0.44752303  1  -0.073505  0.000817  -0.085807  -0.080732  0.000153  3.974307  0.0
C  C300  1  0.80611718  0.71454183  0.94754055  1  -0.072576  0.000815  -0.085779  -0.080772  0.000153  3.97511  0.0
C  C301  1  0.94751870  0.80612582  0.71452198  1  -0.073143  0.000814  -0.085846  -0.080978  0.00015  3.974043  0.0
C  C302  1  0.71451801  0.94753996  0.80613423  1  -0.073146  0.000816  -0.08578  -0.08089  0.000151  3.97476  0.0
C  C303  1  0.78548115  0.05245128  0.30611994  1  -0.07265  0.000815  -0.085785  -0.080844  0.000153  3.974601  0.0
C  C304  1  0.44753812  0.69387084  0.28547968  1  -0.072562  0.000818  -0.085757  -0.08092  0.000155  3.974737  0.0
C  C305  1  0.28549283  0.44752002  0.69387368  1  -0.073431  0.000822  -0.085987  -0.081121  0.000156  3.974242  0.0
C  C306  1  0.55247943  0.19387858  0.21449592  1  -0.073215  0.000816  -0.085756  -0.080726  0.000151  3.974613  0.0
C  C307  1  0.05246566  0.30610417  0.78548965  1  -0.072448  0.000817  -0.085733  -0.080628  0.000154  3.974658  0.0
C  C308  1  0.21451096  0.55247760  0.19385992  1  -0.073167  0.000818  -0.085928  -0.081066  0.000153  3.974516  0.0
C  C309  1  0.69385958  0.28548664  0.44753091  1  -0.073331  0.000817  -0.085919  -0.081251  0.000152  3.974485  0.0
C  C310  1  0.30613001  0.78547613  0.05246567  1  -0.074285  0.000821  -0.085878  -0.081117  0.000155  3.974799  0.0
C  C311  1  0.19386835  0.21449949  0.55248058  1  -0.073703  0.000818  -0.085891  -0.080938  0.000153  3.974327  0.0
C  C312  1  0.23725246  0.31790419  0.10182936  1  0.044883  0.008207  -0.063065  -0.057063  0.003897  3.904591  0.005
C  C313  1  0.10187990  0.23724639  0.31791054  1  0.047832  0.008198  -0.063316  -0.058052  0.003895  3.904607  0.005
C  C314  1  0.31791870  0.10183695  0.23723602  1  0.047479  0.008202  -0.063207  -0.057509  0.003897  3.904429  0.005
C  C315  1  0.18207804  0.89817274  0.73725719  1  0.046113  0.008192  -0.063212  -0.05746  0.003889  3.904505  0.005
C  C316  1  0.60182785  0.26274826  0.68208679  1  0.045707  0.008187  -0.063099  -0.057224  0.003887  3.904588  0.005
C  C317  1  0.68207165  0.60185617  0.26275275  1  0.047632  0.008195  -0.063384  -0.057932  0.003893  3.904353  0.005
C  C318  1  0.39813907  0.76273807  0.81793589  1  0.047469  0.0082  -0.063462  -0.057998  0.003896  3.904256  0.005
C  C319  1  0.89818660  0.73727034  0.18205928  1  0.046872  0.0082  -0.063226  -0.057499  0.003893  3.904768  0.005
C  C320  1  0.81792301  0.39812825  0.76274706  1  0.048034  0.008201  -0.063153  -0.057676  0.003896  3.903778  0.005
C  C321  1  0.26275871  0.68207824  0.60185289  1  0.047435  0.008199  -0.06332  -0.057817  0.003895  3.904114  0.005
C  C322  1  0.73725130  0.18208415  0.89816457  1  0.047958  0.008197  -0.06316  -0.057364  0.003894  3.904486  0.005
C  C323  1  0.76274732  0.81793647  0.39814777  1  0.048064  0.008185  -0.063402  -0.057996  0.003889  3.904352  0.005
C  C324  1  0.76274456  0.68209996  0.89816846  1  0.04476  0.008202  -0.063155  -0.057076  0.003894  3.904925  0.005
C  C325  1  0.89812447  0.76275724  0.68209989  1  0.047416  0.008203  -0.063322  -0.057996  0.003897  3.904334  0.005
C  C326  1  0.68207569  0.89816457  0.76276075  1  0.047098  0.0082  -0.063259  -0.057708  0.003895  3.904696  0.005
C  C327  1  0.81792475  0.10182248  0.26274221  1  0.04757  0.008195  -0.063263  -0.057412  0.003891  3.904328  0.005
C  C328  1  0.39816917  0.73725747  0.31791839  1  0.047117  0.008189  -0.063187  -0.057451  0.003889  3.904382  0.005
C  C329  1  0.31792799  0.39814535  0.73725348  1  0.047912  0.008193  -0.063316  -0.057826  0.003892  3.904594  0.005
C  C330  1  0.60185584  0.23726083  0.18206246  1  0.04789  0.008198  -0.063525  -0.058083  0.003895  3.904315  0.005
C  C331  1  0.10182040  0.26272646  0.81794485  1  0.047399  0.008201  -0.063395  -0.057882  0.003894  3.905078  0.005
C  C332  1  0.18208240  0.60185594  0.23724078  1  0.047072  0.0082  -0.063273  -0.057727  0.003895  3.903928  0.005
C  C333  1  0.73724146  0.31791908  0.39815439  1  0.047348  0.008194  -0.063337  -0.057686  0.003893  3.904536  0.005
C  C334  1  0.26274939  0.81791474  0.10184061  1  0.047677  0.008201  -0.063202  -0.057394  0.003896  3.904236  0.005
C  C335  1  0.23725390  0.18207504  0.60185530  1  0.048011  0.008187  -0.063366  -0.057801  0.00389  3.904172  0.005
O  O336  1  0.84906717  0.34904410  0.15092133  1  -0.919281  0.105001  -0.473658  -0.859391  0.037293  2.059375  0.06
O  O337  1  0.15094852  0.84908786  0.34903216  1  -0.919084  0.104842  -0.473752  -0.859478  0.037175  2.058694  0.06
O  O338  1  0.34904050  0.15091969  0.84906541  1  -0.919271  0.104997  -0.473727  -0.859533  0.037327  2.059596  0.06
O  O339  1  0.65092628  0.65096715  0.65095048  1  -0.919052  0.105011  -0.47373  -0.859389  0.037326  2.059443  0.06
O  O340  1  0.15092669  0.65095480  0.84907912  1  -0.919294  0.104947  -0.473631  -0.859391  0.037244  2.059097  0.06
O  O341  1  0.84905164  0.15090736  0.65096829  1  -0.919387  0.104915  -0.473811  -0.859588  0.037221  2.058986  0.06
O  O342  1  0.65095809  0.84907974  0.15093871  1  -0.919223  0.104973  -0.473782  -0.859604  0.037305  2.059536  0.06
O  O343  1  0.34907178  0.34903437  0.34904944  1  -0.919309  0.104984  -0.473699  -0.859332  0.037273  2.05905  0.06
O  O344  1  0.95269303  0.39417678  0.31412125  1  -0.932739  0.309809  -0.507653  -0.655494  0.142445  1.724848  0.24
O  O345  1  0.31412572  0.95270120  0.39416388  1  -0.932585  0.309597  -0.507732  -0.655745  0.142371  1.724906  0.24
O  O346  1  0.39415198  0.31415617  0.95268474  1  -0.932955  0.309863  -0.507642  -0.655687  0.142492  1.724291  0.24
O  O347  1  0.10580111  0.68586185  0.45266913  1  -0.932965  0.310045  -0.507797  -0.655763  0.142547  1.72491  0.24
O  O348  1  0.81419057  0.54734019  0.60582539  1  -0.932661  0.310166  -0.507813  -0.655982  0.142624  1.724902  0.24
O  O349  1  0.60580590  0.81413154  0.54733110  1  -0.932416  0.309587  -0.507576  -0.655212  0.142329  1.724811  0.24
O  O350  1  0.18583469  0.04730634  0.89418214  1  -0.932897  0.309888  -0.507673  -0.655461  0.142494  1.725535  0.24
O  O351  1  0.68585513  0.45267949  0.10578905  1  -0.932852  0.309976  -0.507684  -0.655668  0.142515  1.724713  0.24
O  O352  1  0.89418147  0.18586819  0.04731278  1  -0.932797  0.309749  -0.507678  -0.655355  0.142422  1.725688  0.24
O  O353  1  0.54732753  0.60581498  0.81412964  1  -0.932501  0.309724  -0.507718  -0.655466  0.142402  1.725285  0.24
O  O354  1  0.45268004  0.10577264  0.68587735  1  -0.932493  0.309762  -0.507629  -0.655507  0.142402  1.724633  0.24
O  O355  1  0.04734069  0.89418980  0.18584168  1  -0.93255  0.309871  -0.507848  -0.655379  0.142469  1.726004  0.24
O  O356  1  0.04730346  0.60582579  0.68587394  1  -0.932864  0.309841  -0.507794  -0.655678  0.142475  1.724988  0.24
O  O357  1  0.68586920  0.04729192  0.60583762  1  -0.932369  0.309531  -0.507618  -0.655666  0.142345  1.724515  0.24
O  O358  1  0.60584871  0.68583853  0.04732202  1  -0.932864  0.309923  -0.507734  -0.655761  0.142521  1.724458  0.24
O  O359  1  0.89419748  0.31414020  0.54733237  1  -0.932957  0.310089  -0.507766  -0.655729  0.142567  1.725011  0.24
O  O360  1  0.18581642  0.45265871  0.39417716  1  -0.932691  0.310158  -0.507856  -0.655836  0.142618  1.725286  0.24
O  O361  1  0.39419584  0.18587996  0.45267197  1  -0.932659  0.309613  -0.507622  -0.655106  0.142335  1.725116  0.24
O  O362  1  0.81414972  0.95268731  0.10580518  1  -0.932607  0.30986  -0.507639  -0.655465  0.142467  1.7255  0.24
O  O363  1  0.31413348  0.54732256  0.89421087  1  -0.932913  0.309971  -0.507772  -0.655721  0.142511  1.725216  0.24
O  O364  1  0.10581187  0.81413123  0.95268557  1  -0.932907  0.309709  -0.507682  -0.655373  0.142401  1.725595  0.24
O  O365  1  0.45267526  0.39417919  0.18585874  1  -0.932454  0.309695  -0.507671  -0.655438  0.142398  1.725198  0.24
O  O366  1  0.54732170  0.89422415  0.31412783  1  -0.932365  0.309755  -0.507744  -0.655655  0.142405  1.724491  0.24
O  O367  1  0.95265737  0.10579229  0.81414827  1  -0.932639  0.309904  -0.507796  -0.655375  0.142474  1.726192  0.24
O  O368  1  0.99396688  0.34265428  0.19073043  1  -1.103829  0.144765  -0.286373  -0.51703  0.067772  2.341499  0.117
O  O369  1  0.19075517  0.99397094  0.34264602  1  -1.10351  0.144865  -0.286299  -0.516911  0.067821  2.341308  0.117
O  O370  1  0.34264589  0.19074266  0.99396031  1  -1.103883  0.144855  -0.286243  -0.516866  0.067812  2.341211  0.117
O  O371  1  0.15732854  0.80926536  0.49395585  1  -1.10364  0.144845  -0.286329  -0.517028  0.067811  2.341472  0.117
O  O372  1  0.69076082  0.50603783  0.65735379  1  -1.10394  0.144907  -0.286426  -0.517219  0.067835  2.341035  0.117
O  O373  1  0.65732349  0.69077414  0.50602091  1  -1.103073  0.144979  -0.286446  -0.517173  0.067878  2.341382  0.117
O  O374  1  0.30918669  0.00599617  0.84262907  1  -1.103421  0.145023  -0.286336  -0.517183  0.067894  2.341498  0.117
O  O375  1  0.80923883  0.49398340  0.15731740  1  -1.103082  0.144938  -0.286383  -0.516932  0.067861  2.341026  0.117
O  O376  1  0.84266092  0.30921195  0.00600973  1  -1.103256  0.145045  -0.286538  -0.517139  0.067902  2.34167  0.117
O  O377  1  0.50602746  0.65739267  0.69078100  1  -1.104331  0.144888  -0.286406  -0.51716  0.067825  2.341393  0.117
O  O378  1  0.49397791  0.15730725  0.80924329  1  -1.103236  0.144916  -0.286336  -0.516816  0.067846  2.341185  0.117
O  O379  1  0.00601180  0.84265410  0.30918210  1  -1.103971  0.144986  -0.286598  -0.517299  0.067882  2.341692  0.117
O  O380  1  0.00603381  0.65734829  0.80927002  1  -1.103911  0.144775  -0.286382  -0.517063  0.067774  2.34159  0.117
O  O381  1  0.80924499  0.00602323  0.65735075  1  -1.10367  0.144867  -0.286374  -0.516897  0.067821  2.34123  0.117
O  O382  1  0.65735270  0.80925204  0.00604014  1  -1.10344  0.144842  -0.286341  -0.516981  0.067809  2.341157  0.117
O  O383  1  0.84267372  0.19072986  0.50604670  1  -1.103971  0.144861  -0.2863  -0.517064  0.067824  2.341406  0.117
O  O384  1  0.30924618  0.49396317  0.34265034  1  -1.104018  0.144881  -0.286385  -0.517292  0.067825  2.341186  0.117
O  O385  1  0.34266775  0.30923369  0.49397639  1  -1.103122  0.144976  -0.286323  -0.517013  0.067875  2.341515  0.117
O  O386  1  0.69079562  0.99400010  0.15735877  1  -1.10325  0.144976  -0.286402  -0.517043  0.067877  2.341497  0.117
O  O387  1  0.19075241  0.50601654  0.84268778  1  -1.10377  0.144962  -0.286388  -0.516883  0.067868  2.341186  0.117
O  O388  1  0.15735605  0.69079535  0.99399177  1  -1.103596  0.144992  -0.286418  -0.517151  0.067878  2.341887  0.117
O  O389  1  0.49396798  0.34261463  0.30922943  1  -1.104163  0.144845  -0.286317  -0.517078  0.06781  2.34148  0.117
O  O390  1  0.50602488  0.84269375  0.19075821  1  -1.102439  0.14494  -0.28645  -0.517049  0.06786  2.340958  0.117
O  O391  1  0.99398942  0.15734007  0.69080890  1  -1.103592  0.14504  -0.286458  -0.517166  0.067903  2.341331  0.117
O  O392  1  0.22371756  0.37898202  0.27853973  1  -1.106033  0.089249  -0.287466  -0.529658  0.042473  2.346596  0.072
O  O393  1  0.27859974  0.22366837  0.37898058  1  -1.105853  0.08906  -0.287015  -0.528987  0.042388  2.346542  0.072
O  O394  1  0.37898868  0.27855331  0.22371815  1  -1.106141  0.089132  -0.287361  -0.529401  0.042415  2.346606  0.072
O  O395  1  0.12101355  0.72146006  0.72374675  1  -1.106544  0.089139  -0.287465  -0.5297  0.042422  2.346541  0.072
O  O396  1  0.77854086  0.27624752  0.62101526  1  -1.106002  0.089212  -0.287439  -0.529637  0.042459  2.346549  0.072
O  O397  1  0.62099329  0.77857541  0.27630364  1  -1.105234  0.089106  -0.28701  -0.528957  0.042406  2.346838  0.072
O  O398  1  0.22141397  0.77630136  0.87899534  1  -1.105484  0.089075  -0.287127  -0.529264  0.042393  2.347196  0.072
O  O399  1  0.72147411  0.72374011  0.12101970  1  -1.105819  0.089173  -0.287412  -0.529669  0.04244  2.346748  0.072
O  O400  1  0.87899641  0.22139903  0.77633162  1  -1.105323  0.08916  -0.287066  -0.529036  0.042435  2.346534  0.072
O  O401  1  0.27628529  0.62100403  0.77857145  1  -1.105442  0.089146  -0.286985  -0.528928  0.042429  2.347318  0.072
O  O402  1  0.72371867  0.12099372  0.72145076  1  -1.106587  0.089072  -0.287368  -0.529357  0.04239  2.346717  0.072
O  O403  1  0.77631242  0.87899072  0.22141218  1  -1.105289  0.089074  -0.287079  -0.529123  0.042393  2.346988  0.072
O  O404  1  0.77628050  0.62102476  0.72145809  1  -1.10574  0.089247  -0.287472  -0.529621  0.042476  2.346397  0.072
O  O405  1  0.72140148  0.77633841  0.62104455  1  -1.105514  0.089042  -0.286908  -0.528891  0.042379  2.346181  0.072
O  O406  1  0.62101674  0.72144611  0.77628387  1  -1.105841  0.089117  -0.287248  -0.529366  0.042411  2.346311  0.072
O  O407  1  0.87898137  0.27853569  0.27625790  1  -1.10633  0.089121  -0.287379  -0.529645  0.042413  2.346479  0.072
O  O408  1  0.22145983  0.72374875  0.37899675  1  -1.105976  0.089214  -0.287455  -0.529714  0.042458  2.346903  0.072
O  O409  1  0.37901318  0.22142979  0.72369838  1  -1.105443  0.089105  -0.287015  -0.528895  0.042405  2.346805  0.072
O  O410  1  0.77859249  0.22368546  0.12101824  1  -1.105243  0.089058  -0.287007  -0.528935  0.042388  2.346923  0.072
O  O411  1  0.27852920  0.27625932  0.87899493  1  -1.106042  0.089158  -0.287296  -0.529481  0.042431  2.346704  0.072
O  O412  1  0.12101426  0.77859041  0.22366620  1  -1.105607  0.089163  -0.287013  -0.529014  0.042431  2.346926  0.072
O  O413  1  0.72369702  0.37899119  0.22143268  1  -1.10527  0.089161  -0.28699  -0.529003  0.042434  2.347129  0.072
O  O414  1  0.27627624  0.87900780  0.27855022  1  -1.106697  0.089109  -0.287341  -0.529391  0.042404  2.346673  0.072
O  O415  1  0.22368407  0.12102078  0.77858827  1  -1.105533  0.089087  -0.287096  -0.529132  0.042399  2.346979  0.072
O  O416  1  0.97333720  0.30017804  0.08158432  1  -1.100097  0.085852  -0.275821  -0.501406  0.040802  2.262329  0.067
O  O417  1  0.08160117  0.97333461  0.30018021  1  -1.100407  0.085878  -0.275759  -0.501229  0.040805  2.262812  0.067
O  O418  1  0.30017747  0.08158460  0.97332551  1  -1.100007  0.085905  -0.275999  -0.501584  0.040824  2.262219  0.067
O  O419  1  0.19979574  0.91840873  0.47332448  1  -1.100272  0.085836  -0.275924  -0.501436  0.040796  2.262591  0.067
O  O420  1  0.58159585  0.52667938  0.69975795  1  -1.099924  0.085839  -0.27575  -0.501191  0.040792  2.262566  0.067
O  O421  1  0.69976667  0.58162349  0.52667308  1  -1.099813  0.085944  -0.275706  -0.501228  0.040841  2.262726  0.067
O  O422  1  0.41837295  0.02665721  0.80026587  1  -1.098792  0.085825  -0.275714  -0.501227  0.040796  2.263073  0.067
O  O423  1  0.91839046  0.47333763  0.19976379  1  -1.099505  0.085855  -0.275675  -0.50107  0.040802  2.262947  0.067
O  O424  1  0.80024837  0.41837362  0.02666628  1  -1.099604  0.085923  -0.275603  -0.501105  0.040829  2.263408  0.067
O  O425  1  0.52667531  0.69975919  0.58160090  1  -1.100069  0.085765  -0.275712  -0.500998  0.040754  2.262623  0.067
O  O426  1  0.47333749  0.19980317  0.91839029  1  -1.099938  0.085844  -0.275636  -0.501086  0.040798  2.262987  0.067
O  O427  1  0.02667659  0.80026212  0.41834556  1  -1.100111  0.085915  -0.275651  -0.501167  0.040829  2.263729  0.067
O  O428  1  0.02666086  0.69982033  0.91841088  1  -1.100079  0.085844  -0.275814  -0.501416  0.040802  2.262508  0.067
O  O429  1  0.91840267  0.02666744  0.69980081  1  -1.100211  0.085878  -0.275785  -0.501114  0.040808  2.262934  0.067
O  O430  1  0.69980956  0.91841010  0.02667442  1  -1.099902  0.085899  -0.27598  -0.501537  0.040821  2.262414  0.067
O  O431  1  0.80019970  0.08158281  0.52667072  1  -1.099916  0.085814  -0.275902  -0.501453  0.040785  2.262414  0.067
O  O432  1  0.41839696  0.47332214  0.30022885  1  -1.100075  0.085842  -0.275871  -0.501325  0.04079  2.262592  0.067
O  O433  1  0.30023192  0.41838538  0.47332684  1  -1.100196  0.085952  -0.275736  -0.501125  0.040844  2.262855  0.067
O  O434  1  0.58161724  0.97334222  0.19974246  1  -1.099073  0.085825  -0.275718  -0.501203  0.040794  2.263059  0.067
O  O435  1  0.08161024  0.52665706  0.80022143  1  -1.099742  0.085882  -0.275666  -0.501021  0.040816  2.26288  0.067
O  O436  1  0.19974969  0.58163210  0.97332682  1  -1.09974  0.085908  -0.275581  -0.501099  0.04082  2.26385  0.067
O  O437  1  0.47332276  0.30023394  0.41839587  1  -1.099872  0.085768  -0.275766  -0.501067  0.040754  2.262857  0.067
O  O438  1  0.52666635  0.80020413  0.08160753  1  -1.100051  0.085883  -0.275715  -0.501229  0.040817  2.262893  0.067
O  O439  1  0.97332410  0.19973362  0.58164228  1  -1.099274  0.085944  -0.275688  -0.501308  0.040842  2.263641  0.067
O  O440  1  0.31399483  0.40124925  0.20444794  1  -1.147348  0.083626  -0.2962  -0.563423  0.039262  2.284491  0.067
O  O441  1  0.20453022  0.31396037  0.40124028  1  -1.147781  0.083686  -0.296135  -0.563058  0.039278  2.286025  0.067
O  O442  1  0.40128898  0.20443774  0.31396798  1  -1.147681  0.083539  -0.296074  -0.563394  0.03922  2.284097  0.067
O  O443  1  0.09871168  0.79557455  0.81399221  1  -1.147808  0.083556  -0.296401  -0.564022  0.039233  2.284382  0.067
O  O444  1  0.70442254  0.18598784  0.59874214  1  -1.14736  0.083547  -0.29641  -0.563824  0.039232  2.284146  0.067
O  O445  1  0.59876050  0.70447949  0.18600972  1  -1.14749  0.08361  -0.296149  -0.563244  0.039251  2.285046  0.067
O  O446  1  0.29549046  0.68602668  0.90129896  1  -1.148272  0.083594  -0.296208  -0.563671  0.039244  2.284998  0.067
O  O447  1  0.79557969  0.81400610  0.09869169  1  -1.147612  0.083579  -0.29623  -0.56389  0.039244  2.283823  0.067
O  O448  1  0.90125861  0.29546137  0.68603414  1  -1.147934  0.083638  -0.296127  -0.563122  0.039262  2.285693  0.067
O  O449  1  0.18600721  0.59874785  0.70448176  1  -1.147616  0.083628  -0.296173  -0.563415  0.039262  2.284772  0.067
O  O450  1  0.81398066  0.09870058  0.79556094  1  -1.147988  0.083555  -0.296279  -0.563795  0.039227  2.284614  0.067
O  O451  1  0.68602972  0.90128961  0.29550868  1  -1.148045  0.083497  -0.296126  -0.563438  0.039201  2.284566  0.067
O  O452  1  0.68600324  0.59874650  0.79555619  1  -1.147415  0.083598  -0.296244  -0.563565  0.039249  2.284354  0.067
O  O453  1  0.79547415  0.68604746  0.59875859  1  -1.147527  0.083639  -0.296054  -0.563054  0.039261  2.285613  0.067
O  O454  1  0.59870016  0.79556851  0.68602827  1  -1.147436  0.08352  -0.296183  -0.563563  0.03921  2.284162  0.067
O  O455  1  0.90129899  0.20442435  0.18600771  1  -1.147773  0.08355  -0.296424  -0.56412  0.039231  2.284189  0.067
O  O456  1  0.29557132  0.81401158  0.40125831  1  -1.147692  0.083582  -0.296376  -0.563818  0.039248  2.28439  0.067
O  O457  1  0.40123337  0.29552886  0.81399231  1  -1.147472  0.083597  -0.296099  -0.563177  0.039248  2.284867  0.067
O  O458  1  0.70451496  0.31397221  0.09870832  1  -1.148208  0.083572  -0.296147  -0.563381  0.039233  2.285063  0.067
O  O459  1  0.20441890  0.18598912  0.90131454  1  -1.147687  0.08358  -0.296281  -0.563996  0.039247  2.283848  0.067
O  O460  1  0.09875311  0.70453017  0.31396159  1  -1.147988  0.083641  -0.296102  -0.563149  0.039259  2.285958  0.067
O  O461  1  0.81398823  0.40124789  0.29552184  1  -1.147664  0.083593  -0.296161  -0.56336  0.039247  2.284825  0.067
O  O462  1  0.18601950  0.90129517  0.20444108  1  -1.148176  0.083597  -0.296308  -0.563812  0.039244  2.284782  0.067
O  O463  1  0.31396940  0.09871979  0.70449859  1  -1.147633  0.083505  -0.296085  -0.563319  0.039204  2.284726  0.067
