# generated using pymatgen
data_Cu7H36C18I7N6
_symmetry_space_group_name_H-M   'P 1'
_cell_length_a   17.31173568
_cell_length_b   17.31177597
_cell_length_c   22.31750798
_cell_angle_alpha   90.00000306
_cell_angle_beta   89.99999352
_cell_angle_gamma   120.00000993
_symmetry_Int_Tables_number   1
_chemical_formula_structural   Cu7H36C18I7N6
_chemical_formula_sum   'Cu42 H216 C108 I42 N36'
_cell_volume   5792.39970731
_cell_formula_units_Z   6
loop_
 _symmetry_equiv_pos_site_id
 _symmetry_equiv_pos_as_xyz
  1  'x, y, z'
loop_
 _atom_site_type_symbol
 _atom_site_label
 _atom_site_symmetry_multiplicity
 _atom_site_fract_x
 _atom_site_fract_y
 _atom_site_fract_z
 _atom_site_occupancy
 _atom_site_pbe_bader_charge
 _atom_site_pbe_bader_spin_density
 _atom_site_pbe_cm5_charge
 _atom_site_pbe_ddec_charge
 _atom_site_pbe_ddec_spin_density
 _atom_site_pbe_ddec_sum_bond_order
 _atom_site_pbe_magmom
Cu  Cu0  1  0.50000027  0.99999993  0.05528975  1  0.253844  0  0.115937  0.033747  0  2.841369  0
Cu  Cu1  1  0.50000020  0.50000014  0.72195559  1  0.251031  0  0.115954  0.033753  0  2.841395  0
Cu  Cu2  1  0.99999661  0.49999818  0.38861907  1  0.255151  0  0.115926  0.03382  0  2.841397  0
Cu  Cu3  1  0.00000360  0.50000119  0.27803777  1  0.287098  0  0.11591  0.033609  0  2.841571  0
Cu  Cu4  1  0.50000045  0.00000083  0.94470850  1  0.288475  0  0.115932  0.03374  0  2.841423  0
Cu  Cu5  1  0.50000020  0.50000014  0.61137425  1  0.283729  0  0.115923  0.03369  0  2.841535  0
Cu  Cu6  1  0.65966664  0.08271589  0.00856948  1  0.366528  0  0.232915  0.145481  0  2.699229  0
Cu  Cu7  1  0.57695052  0.65966807  0.67523756  1  0.36652  0  0.232941  0.14551  0  2.699156  0
Cu  Cu8  1  0.91728330  0.57695087  0.34189926  1  0.367981  0  0.232919  0.14559  0  2.699172  0
Cu  Cu9  1  0.34033386  0.91728439  0.00856951  1  0.366531  0  0.232896  0.145437  0  2.699268  0
Cu  Cu10  1  0.42304955  0.34033255  0.67523756  1  0.366529  0  0.232933  0.145483  0  2.699173  0
Cu  Cu11  1  0.08271624  0.42304916  0.34189974  1  0.367981  0  0.232898  0.145568  0  2.699198  0
Cu  Cu12  1  0.91728453  0.34033407  0.32476069  1  0.366631  0  0.232936  0.145532  0  2.699138  0
Cu  Cu13  1  0.57695123  0.91728477  0.99142968  1  0.367993  0  0.232912  0.14551  0  2.699206  0
Cu  Cu14  1  0.65966626  0.57695156  0.65809900  1  0.364804  0  0.232905  0.145585  0  2.69919  0
Cu  Cu15  1  0.08271559  0.65966655  0.32476118  1  0.366634  0  0.232942  0.145526  0  2.699157  0
Cu  Cu16  1  0.42304878  0.08271584  0.99142967  1  0.368001  0  0.232898  0.145501  0  2.699241  0
Cu  Cu17  1  0.34033323  0.42304848  0.65809901  1  0.364799  0  0.232914  0.145599  0  2.699156  0
Cu  Cu18  1  0.25778668  0.47973025  0.05552636  1  0.370586  0  0.23611  0.132198  0  2.665544  0
Cu  Cu19  1  0.77805545  0.25778649  0.72219530  1  0.371077  0  0.236094  0.132127  0  2.665605  0
Cu  Cu20  1  0.52026716  0.77805710  0.38885837  1  0.372106  0  0.236123  0.13219  0  2.665492  0
Cu  Cu21  1  0.74221324  0.52026946  0.05552634  1  0.370617  0  0.236118  0.132225  0  2.665498  0
Cu  Cu22  1  0.22194437  0.74221321  0.72219533  1  0.370963  0  0.236096  0.132125  0  2.665586  0
Cu  Cu23  1  0.47973328  0.22194318  0.38885792  1  0.372091  0  0.23612  0.132202  0  2.665464  0
Cu  Cu24  1  0.52026823  0.74221341  0.27780475  1  0.370553  0  0.23611  0.132156  0  2.665532  0
Cu  Cu25  1  0.77805663  0.52026878  0.94447371  1  0.371993  0  0.236121  0.132221  0  2.665454  0
Cu  Cu26  1  0.25778893  0.77805637  0.61114216  1  0.370223  0  0.236137  0.132271  0  2.665441  0
Cu  Cu27  1  0.47973165  0.25778629  0.27780475  1  0.37055  0  0.236095  0.132111  0  2.665632  0
Cu  Cu28  1  0.22194315  0.47973092  0.94447373  1  0.372014  0  0.236119  0.132235  0  2.665476  0
Cu  Cu29  1  0.74221057  0.22194366  0.61114213  1  0.370193  0  0.236134  0.132235  0  2.665434  0
Cu  Cu30  1  0.10817360  0.35901131  0.01209589  1  0.364885  0  0.234138  0.132064  0  2.658239  0
Cu  Cu31  1  0.74916154  0.10817306  0.67876437  1  0.366425  0  0.234118  0.132053  0  2.658295  0
Cu  Cu32  1  0.64098815  0.74916309  0.34542700  1  0.365474  0  0.234125  0.13206  0  2.658161  0
Cu  Cu33  1  0.89182723  0.64098864  0.01209586  1  0.364929  0  0.234143  0.132072  0  2.65825  0
Cu  Cu34  1  0.25083828  0.89182665  0.67876486  1  0.366425  0  0.234102  0.132037  0  2.658282  0
Cu  Cu35  1  0.35901230  0.25083719  0.34542700  1  0.365501  0  0.234121  0.132019  0  2.658243  0
Cu  Cu36  1  0.64098813  0.89182770  0.32123613  1  0.364739  0  0.234119  0.132045  0  2.658296  0
Cu  Cu37  1  0.74916268  0.64098901  0.98790463  1  0.36524  0  0.234136  0.132059  0  2.658255  0
Cu  Cu38  1  0.10817440  0.74916299  0.65457354  1  0.365485  0  0.234114  0.131969  0  2.658333  0
Cu  Cu39  1  0.35901141  0.10817233  0.32123612  1  0.364733  0  0.234119  0.132055  0  2.658303  0
Cu  Cu40  1  0.25083734  0.35901160  0.98790465  1  0.365271  0  0.234149  0.13209  0  2.658193  0
Cu  Cu41  1  0.89182567  0.25083763  0.65457350  1  0.365416  0  0.234116  0.131997  0  2.658278  0
H  H42  1  0.44292570  0.54386261  0.10006493  1  0.076238  0  0.092506  0.08175  0  1.013902  0
H  H43  1  0.89906226  0.44292414  0.76673387  1  0.057339  0  0.092508  0.081751  0  1.013953  0
H  H44  1  0.45613403  0.89906214  0.43340009  1  0.062072  0  0.092504  0.081737  0  1.013927  0
H  H45  1  0.55707420  0.45613709  0.10006537  1  0.076304  0  0.092507  0.081747  0  1.013906  0
H  H46  1  0.10093697  0.55707498  0.76673391  1  0.057283  0  0.092514  0.081759  0  1.013903  0
H  H47  1  0.54386583  0.10093757  0.43339962  1  0.061983  0  0.092496  0.08173  0  1.013945  0
H  H48  1  0.45613687  0.55707510  0.23326618  1  0.076881  0  0.092517  0.081732  0  1.013925  0
H  H49  1  0.89906248  0.45613571  0.89993557  1  0.064186  0  0.092498  0.081739  0  1.013881  0
H  H50  1  0.44292921  0.89906201  0.56660134  1  0.050732  0  0.09253  0.081817  0  1.013923  0
H  H51  1  0.54386211  0.44292436  0.23326617  1  0.076776  0  0.092505  0.081734  0  1.013958  0
H  H52  1  0.10093730  0.54386399  0.89993516  1  0.064114  0  0.092509  0.081733  0  1.013878  0
H  H53  1  0.55707063  0.10093769  0.56660087  1  0.050803  0  0.092531  0.081815  0  1.013929  0
H  H54  1  0.36893908  0.46509637  0.15306323  1  0.080863  0  0.095556  0.085291  0  0.994041  0
H  H55  1  0.90384372  0.36893785  0.81973217  1  0.040802  0  0.09554  0.085233  0  0.994006  0
H  H56  1  0.53490557  0.90384556  0.48639525  1  0.043829  0  0.095522  0.085226  0  0.993974  0
H  H57  1  0.63106015  0.53490400  0.15306322  1  0.080886  0  0.095554  0.085288  0  0.994041  0
H  H58  1  0.09615642  0.63106151  0.81973221  1  0.040804  0  0.095596  0.085348  0  0.993989  0
H  H59  1  0.46509486  0.09615472  0.48639524  1  0.043832  0  0.095536  0.085275  0  0.993945  0
H  H60  1  0.53490516  0.63106085  0.18026788  1  0.080778  0  0.095524  0.085209  0  0.994022  0
H  H61  1  0.90384301  0.53490288  0.84693683  1  0.043858  0  0.095529  0.085198  0  0.994008  0
H  H62  1  0.36894103  0.90384501  0.51360573  1  0.040855  0  0.095516  0.085216  0  0.993975  0
H  H63  1  0.46509474  0.36893885  0.18026832  1  0.080774  0  0.095549  0.085252  0  0.994088  0
H  H64  1  0.09615588  0.46509658  0.84693731  1  0.043849  0  0.095518  0.085178  0  0.994022  0
H  H65  1  0.63105915  0.09615436  0.51360526  1  0.040882  0  0.095547  0.085287  0  0.993923  0
H  H66  1  0.24947415  0.48375663  0.19399030  1  0.055512  0  0.09245  0.080173  0  1.038209  0
H  H67  1  0.76571714  0.24947291  0.86065924  1  0.05005  0  0.092447  0.080182  0  1.038156  0
H  H68  1  0.51624593  0.76571835  0.52732276  1  0.054423  0  0.092437  0.080161  0  1.03818  0
H  H69  1  0.75052632  0.51624365  0.19399027  1  0.055515  0  0.092459  0.080193  0  1.038205  0
H  H70  1  0.23428208  0.75052621  0.86065927  1  0.050053  0  0.092438  0.080156  0  1.038172  0
H  H71  1  0.48375425  0.23428102  0.52732230  1  0.054444  0  0.092432  0.080151  0  1.038186  0
H  H72  1  0.51624399  0.75052606  0.13933992  1  0.05566  0  0.092449  0.080185  0  1.038206  0
H  H73  1  0.76571640  0.51624208  0.80601022  1  0.054256  0  0.092456  0.080194  0  1.038217  0
H  H74  1  0.24947277  0.76571953  0.47267823  1  0.050256  0  0.092441  0.080157  0  1.038123  0
H  H75  1  0.48375616  0.24947456  0.13933991  1  0.055661  0  0.092454  0.080209  0  1.038223  0
H  H76  1  0.23428282  0.48375704  0.80600979  1  0.054535  0  0.092458  0.080212  0  1.038189  0
H  H77  1  0.75052732  0.23428109  0.47267775  1  0.050219  0  0.092431  0.080145  0  1.038158  0
H  H78  1  0.23058054  0.56816850  0.16592713  1  0.048904  0  0.096873  0.089719  0  0.991443  0
H  H79  1  0.66241221  0.23058205  0.83259652  1  0.047816  0  0.0969  0.089744  0  0.991539  0
H  H80  1  0.43183163  0.66241399  0.49926049  1  0.048125  0  0.09688  0.089714  0  0.991523  0
H  H81  1  0.76941903  0.43183154  0.16592710  1  0.048906  0  0.09688  0.089733  0  0.991481  0
H  H82  1  0.33758750  0.76941889  0.83259699  1  0.047809  0  0.096903  0.089751  0  0.991508  0
H  H83  1  0.56816822  0.33758572  0.49926047  1  0.048137  0  0.096868  0.089685  0  0.991542  0
H  H84  1  0.43183158  0.76941857  0.16740265  1  0.052384  0  0.096879  0.089732  0  0.991479  0
H  H85  1  0.66241109  0.43182980  0.83407294  1  0.048098  0  0.096856  0.089692  0  0.991481  0
H  H86  1  0.23058177  0.66241397  0.50074005  1  0.047668  0  0.096885  0.08971  0  0.991519  0
H  H87  1  0.56816889  0.23058171  0.16740263  1  0.052392  0  0.096881  0.089731  0  0.99147  0
H  H88  1  0.33758813  0.56816933  0.83407251  1  0.048113  0  0.096873  0.08973  0  0.991459  0
H  H89  1  0.76941808  0.33758573  0.50074002  1  0.047669  0  0.096881  0.089707  0  0.991524  0
H  H90  1  0.95119232  0.35371676  0.07649058  1  0.083362  0  0.088119  0.085746  0  1.017838  0
H  H91  1  0.59747060  0.95119084  0.74315824  1  0.075288  0  0.08813  0.085708  0  1.017774  0
H  H92  1  0.64628135  0.59747375  0.40982128  1  0.051408  0  0.088072  0.085678  0  1.017781  0
H  H93  1  0.04880926  0.64628127  0.07648929  1  0.08327  0  0.088093  0.085726  0  1.017814  0
H  H94  1  0.40252979  0.04880944  0.74315823  1  0.07529  0  0.08813  0.085737  0  1.017763  0
H  H95  1  0.35371818  0.40252628  0.40982129  1  0.051413  0  0.088077  0.085692  0  1.017777  0
H  H96  1  0.64628070  0.04881030  0.25684227  1  0.08329  0  0.088131  0.085742  0  1.017766  0
H  H97  1  0.59747527  0.64628303  0.92350901  1  0.051354  0  0.088122  0.085719  0  1.017829  0
H  H98  1  0.95119165  0.59747377  0.59017922  1  0.075379  0  0.08808  0.085698  0  1.017755  0
H  H99  1  0.35371977  0.95118998  0.25684230  1  0.083295  0  0.088124  0.085718  0  1.017712  0
H  H100  1  0.40252418  0.35371700  0.92350901  1  0.051365  0  0.088134  0.085742  0  1.017884  0
H  H101  1  0.04880785  0.40252627  0.59017925  1  0.075372  0  0.088065  0.085669  0  1.017781  0
H  H102  1  0.96080216  0.26471484  0.10765490  1  0.077748  0  0.087783  0.080254  0  1.016624  0
H  H103  1  0.69608196  0.96079981  0.77432390  1  0.070719  0  0.087805  0.080215  0  1.016652  0
H  H104  1  0.73528459  0.69608638  0.44098470  1  0.072894  0  0.087794  0.080259  0  1.016649  0
H  H105  1  0.03919884  0.73528262  0.10765495  1  0.077788  0  0.087801  0.080266  0  1.016678  0
H  H106  1  0.30391809  0.03920080  0.77432390  1  0.070719  0  0.087805  0.080244  0  1.016641  0
H  H107  1  0.26471584  0.30391390  0.44098471  1  0.072649  0  0.087801  0.080266  0  1.016651  0
H  H108  1  0.73528175  0.03919947  0.22567705  1  0.077838  0  0.087816  0.080234  0  1.016674  0
H  H109  1  0.69608782  0.73528524  0.89234558  1  0.07332  0  0.087803  0.080244  0  1.016658  0
H  H110  1  0.96080281  0.69608714  0.55901579  1  0.070516  0  0.087789  0.08025  0  1.016686  0
H  H111  1  0.26471871  0.96080082  0.22567709  1  0.077832  0  0.087812  0.080222  0  1.016654  0
H  H112  1  0.30391164  0.26471479  0.89234559  1  0.073104  0  0.087801  0.080251  0  1.016665  0
H  H113  1  0.03919728  0.30391347  0.55901582  1  0.070515  0  0.087801  0.080272  0  1.016651  0
H  H114  1  0.98517066  0.16751865  0.04492433  1  0.06185  0  0.09534  0.083342  0  0.992811  0
H  H115  1  0.81764994  0.98516990  0.71159601  1  0.066041  0  0.095388  0.083366  0  0.992894  0
H  H116  1  0.83248201  0.81765127  0.37825413  1  0.056021  0  0.095382  0.083415  0  0.992877  0
H  H117  1  0.01482992  0.83248039  0.04492528  1  0.06185  0  0.095336  0.083327  0  0.992835  0
H  H118  1  0.18235045  0.01483037  0.71159602  1  0.066044  0  0.095359  0.083333  0  0.992866  0
H  H119  1  0.16751785  0.18234844  0.37825415  1  0.056031  0  0.095367  0.083378  0  0.992897  0
H  H120  1  0.83247962  0.01482986  0.28840492  1  0.058735  0  0.095353  0.083321  0  0.992865  0
H  H121  1  0.81765302  0.83248130  0.95507615  1  0.059393  0  0.095349  0.083361  0  0.99278  0
H  H122  1  0.98517022  0.81765156  0.62174636  1  0.066211  0  0.095379  0.083394  0  0.992875  0
H  H123  1  0.16752026  0.98516985  0.28840497  1  0.058725  0  0.095355  0.083322  0  0.992865  0
H  H124  1  0.18234676  0.16751840  0.95507572  1  0.059388  0  0.095338  0.083338  0  0.992804  0
H  H125  1  0.01482985  0.18234905  0.62174639  1  0.066212  0  0.095365  0.08337  0  0.992908  0
H  H126  1  0.97821370  0.17438540  0.96583719  1  0.063532  0  0.09313  0.085861  0  1.004582  0
H  H127  1  0.80382979  0.97821456  0.63250788  1  0.062524  0  0.093142  0.085892  0  1.004495  0
H  H128  1  0.82561345  0.80382986  0.29916645  1  0.064337  0  0.093113  0.085862  0  1.004528  0
H  H129  1  0.02178641  0.82561397  0.96583724  1  0.063561  0  0.093135  0.085887  0  1.004524  0
H  H130  1  0.19616970  0.02178547  0.63250789  1  0.062523  0  0.093124  0.085863  0  1.004497  0
H  H131  1  0.17438610  0.19617017  0.29916646  1  0.064331  0  0.093115  0.085861  0  1.004521  0
H  H132  1  0.82561541  0.02178530  0.36749261  1  0.064019  0  0.093119  0.085851  0  1.004474  0
H  H133  1  0.80382874  0.82561449  0.03416374  1  0.06523  0  0.093133  0.08585  0  1.004563  0
H  H134  1  0.97821621  0.80383010  0.70083360  1  0.061768  0  0.093115  0.085854  0  1.004527  0
H  H135  1  0.17438413  0.97821474  0.36749266  1  0.064015  0  0.093106  0.085857  0  1.004453  0
H  H136  1  0.19617084  0.17438555  0.03416331  1  0.065257  0  0.093117  0.085832  0  1.004611  0
H  H137  1  0.02178418  0.19617017  0.70083408  1  0.061773  0  0.093111  0.085851  0  1.004534  0
H  H138  1  0.96342820  0.29411778  0.92201240  1  0.061263  0  0.085874  0.078167  0  1.034299  0
H  H139  1  0.66931051  0.96342923  0.58868176  1  0.071733  0  0.085871  0.07815  0  1.034351  0
H  H140  1  0.70588075  0.66930989  0.25534390  1  0.06686  0  0.085903  0.078174  0  1.034362  0
H  H141  1  0.03657249  0.70588216  0.92201245  1  0.061343  0  0.085872  0.078145  0  1.03432  0
H  H142  1  0.33068933  0.03657048  0.58868220  1  0.071733  0  0.085877  0.07816  0  1.034343  0
H  H143  1  0.29411971  0.33069039  0.25534392  1  0.066825  0  0.085909  0.078176  0  1.034369  0
H  H144  1  0.70588245  0.03657306  0.41131829  1  0.062489  0  0.085863  0.078138  0  1.034408  0
H  H145  1  0.66931003  0.70588278  0.07798764  1  0.067245  0  0.085857  0.078152  0  1.034283  0
H  H146  1  0.96342748  0.66930899  0.74465659  1  0.07024  0  0.085866  0.07817  0  1.03437  0
H  H147  1  0.29411708  0.96342698  0.41131833  1  0.062483  0  0.085864  0.078136  0  1.034387  0
H  H148  1  0.33068955  0.29411726  0.07798764  1  0.067251  0  0.085849  0.07814  0  1.034285  0
H  H149  1  0.03657142  0.33069046  0.74465662  1  0.070206  0  0.0859  0.078187  0  1.034354  0
H  H150  1  0.94341751  0.36429996  0.97025838  1  0.062436  0  0.088625  0.077491  0  1.02747  0
H  H151  1  0.57911687  0.94341780  0.63692729  1  0.057284  0  0.088613  0.077451  0  1.02739  0
H  H152  1  0.63569747  0.57911663  0.30358944  1  0.066873  0  0.088613  0.077471  0  1.027395  0
H  H153  1  0.05658294  0.63569908  0.97025843  1  0.062426  0  0.088602  0.077452  0  1.027413  0
H  H154  1  0.42088320  0.05658281  0.63692728  1  0.057293  0  0.088595  0.077439  0  1.027434  0
H  H155  1  0.36430241  0.42088308  0.30358944  1  0.066869  0  0.088602  0.077467  0  1.027408  0
H  H156  1  0.63570027  0.05658449  0.36307322  1  0.062456  0  0.088609  0.07747  0  1.027403  0
H  H157  1  0.57911750  0.63569982  0.02974166  1  0.066851  0  0.088613  0.077456  0  1.027455  0
H  H158  1  0.94341853  0.57911667  0.69641106  1  0.057249  0  0.088612  0.077509  0  1.027355  0
H  H159  1  0.36429984  0.94341613  0.36307325  1  0.062458  0  0.088611  0.077468  0  1.027404  0
H  H160  1  0.42088242  0.36429989  0.02974166  1  0.06684  0  0.088608  0.077444  0  1.027464  0
H  H161  1  0.05658186  0.42088361  0.69641109  1  0.057265  0  0.088616  0.077477  0  1.027397  0
H  H162  1  0.78992756  0.26204677  0.96200926  1  0.065874  0  0.091429  0.077012  0  1.056226  0
H  H163  1  0.52788422  0.78992965  0.62867637  1  0.019513  0  0.091428  0.077029  0  1.056303  0
H  H164  1  0.73795310  0.52788334  0.29533896  1  0.07003  0  0.091413  0.076978  0  1.056297  0
H  H165  1  0.21007213  0.73795418  0.96200885  1  0.065869  0  0.091415  0.076993  0  1.056276  0
H  H166  1  0.47211560  0.21007005  0.62867636  1  0.01951  0  0.091423  0.077022  0  1.056309  0
H  H167  1  0.26204677  0.47211637  0.29533898  1  0.070036  0  0.091404  0.076981  0  1.056286  0
H  H168  1  0.73795645  0.21007236  0.37132279  1  0.065871  0  0.09143  0.077042  0  1.056257  0
H  H169  1  0.52788116  0.73795432  0.03799034  1  0.070069  0  0.091451  0.077041  0  1.056204  0
H  H170  1  0.78992768  0.52788164  0.70466019  1  0.019475  0  0.091415  0.07698  0  1.056264  0
H  H171  1  0.26204366  0.78992826  0.37132282  1  0.06586  0  0.091424  0.077025  0  1.056279  0
H  H172  1  0.47211900  0.26204629  0.03799034  1  0.070033  0  0.091428  0.077024  0  1.056231  0
H  H173  1  0.21007074  0.47211600  0.70466111  1  0.019477  0  0.091418  0.07699  0  1.056289  0
H  H174  1  0.81089013  0.18633319  0.92087653  1  0.049015  0  0.087951  0.078044  0  1.035029  0
H  H175  1  0.62456049  0.81089156  0.58754364  1  0.049151  0  0.087904  0.078007  0  1.034937  0
H  H176  1  0.81366681  0.62455883  0.25420488  1  0.053814  0  0.087922  0.078013  0  1.03494  0
H  H177  1  0.18911015  0.81366833  0.92087567  1  0.049396  0  0.087901  0.078006  0  1.034963  0
H  H178  1  0.37543992  0.18910872  0.58754363  1  0.049154  0  0.087906  0.07801  0  1.034924  0
H  H179  1  0.18633308  0.37544088  0.25420490  1  0.053811  0  0.08792  0.078007  0  1.034947  0
H  H180  1  0.81367087  0.18911056  0.41245597  1  0.047775  0  0.087913  0.077992  0  1.034921  0
H  H181  1  0.62455774  0.81366818  0.07912352  1  0.052685  0  0.087945  0.078044  0  1.035  0
H  H182  1  0.81089041  0.62455787  0.74579427  1  0.048564  0  0.087926  0.078022  0  1.034997  0
H  H183  1  0.18632957  0.81088972  0.41245601  1  0.047777  0  0.087913  0.077998  0  1.034913  0
H  H184  1  0.37544241  0.18633243  0.07912307  1  0.052695  0  0.087943  0.078057  0  1.035019  0
H  H185  1  0.18910891  0.37544000  0.74579518  1  0.048651  0  0.087923  0.077996  0  1.034962  0
H  H186  1  0.82371496  0.07330851  0.97184996  1  0.075978  0  0.097388  0.08063  0  1.012811  0
H  H187  1  0.75040893  0.82371680  0.63852199  1  0.072523  0  0.09737  0.080623  0  1.012838  0
H  H188  1  0.92669142  0.75040774  0.30517876  1  0.072945  0  0.097385  0.080628  0  1.012805  0
H  H189  1  0.17628482  0.92669119  0.97185045  1  0.07598  0  0.097386  0.080617  0  1.01282  0
H  H190  1  0.24959056  0.17628324  0.63852155  1  0.07252  0  0.097371  0.080626  0  1.012855  0
H  H191  1  0.07330813  0.24959230  0.30517834  1  0.072944  0  0.097379  0.080632  0  1.012764  0
H  H192  1  0.92669270  0.17628338  0.36147894  1  0.073424  0  0.097385  0.080666  0  1.012779  0
H  H193  1  0.75040729  0.92669106  0.02815008  1  0.071863  0  0.09738  0.08062  0  1.012836  0
H  H194  1  0.82371598  0.75040777  0.69482173  1  0.071253  0  0.097365  0.080597  0  1.012811  0
H  H195  1  0.07330717  0.82371632  0.36147854  1  0.073498  0  0.097383  0.080653  0  1.01289  0
H  H196  1  0.24959263  0.07330864  0.02815009  1  0.0719  0  0.097381  0.080627  0  1.012821  0
H  H197  1  0.17628384  0.24959193  0.69482175  1  0.071262  0  0.09737  0.080602  0  1.012811  0
H  H198  1  0.82819512  0.07380193  0.05155500  1  0.07051  0  0.096595  0.080447  0  0.998905  0
H  H199  1  0.75439179  0.82819524  0.71822668  1  0.073453  0  0.096601  0.080467  0  0.99883  0
H  H200  1  0.92619931  0.75439456  0.38488390  1  0.073344  0  0.096622  0.080474  0  0.998883  0
H  H201  1  0.17180479  0.92619778  0.05155550  1  0.070511  0  0.096607  0.080462  0  0.998881  0
H  H202  1  0.24560769  0.17180480  0.71822669  1  0.073283  0  0.096603  0.080467  0  0.998854  0
H  H203  1  0.07380113  0.24560572  0.38488348  1  0.073373  0  0.09662  0.080492  0  0.998915  0
H  H204  1  0.92619830  0.17180430  0.28177381  1  0.070776  0  0.096595  0.080467  0  0.998881  0
H  H205  1  0.75439564  0.92619854  0.94844504  1  0.07608  0  0.096612  0.080455  0  0.998865  0
H  H206  1  0.82819657  0.75439543  0.61511660  1  0.073245  0  0.096612  0.080482  0  0.99893  0
H  H207  1  0.07380158  0.82819540  0.28177386  1  0.070727  0  0.09659  0.080433  0  0.998876  0
H  H208  1  0.24560563  0.07380198  0.94844504  1  0.076057  0  0.096597  0.080441  0  0.998911  0
H  H209  1  0.17180384  0.24560485  0.61511661  1  0.073233  0  0.09662  0.080471  0  0.998932  0
H  H210  1  0.32912952  0.67149507  0.09557474  1  0.047416  0  0.088746  0.080937  0  1.020132  0
H  H211  1  0.65763394  0.32912991  0.76224279  1  0.040574  0  0.088743  0.080965  0  1.020092  0
H  H212  1  0.32850188  0.65763545  0.42890945  1  0.04141  0  0.088745  0.080951  0  1.020105  0
H  H213  1  0.67087063  0.32850554  0.09557472  1  0.047363  0  0.088735  0.080934  0  1.020088  0
H  H214  1  0.34236587  0.67086979  0.76224326  1  0.040579  0  0.088743  0.080965  0  1.020102  0
H  H215  1  0.67149764  0.34236459  0.42890898  1  0.041132  0  0.088745  0.08094  0  1.020108  0
H  H216  1  0.32850384  0.67087073  0.23775549  1  0.04735  0  0.088755  0.080929  0  1.020122  0
H  H217  1  0.65763367  0.32850401  0.90442578  1  0.041075  0  0.088742  0.080902  0  1.020066  0
H  H218  1  0.32913276  0.65763535  0.57109154  1  0.041373  0  0.088747  0.080936  0  1.02007  0
H  H219  1  0.67149596  0.32913022  0.23775547  1  0.047359  0  0.088754  0.080935  0  1.020152  0
H  H220  1  0.34236612  0.67149569  0.90442535  1  0.04098  0  0.088744  0.08091  0  1.020088  0
H  H221  1  0.67086765  0.34236493  0.57109062  1  0.041373  0  0.088749  0.080933  0  1.020143  0
H  H222  1  0.41483314  0.65866818  0.06317282  1  0.038502  0  0.081462  0.068151  0  1.073927  0
H  H223  1  0.75616594  0.41483462  0.72984177  1  0.044352  0  0.081487  0.068201  0  1.073926  0
H  H224  1  0.34132878  0.75616623  0.39650932  1  0.038848  0  0.081505  0.068219  0  1.073881  0
H  H225  1  0.58516735  0.34133210  0.06317281  1  0.038512  0  0.081452  0.068144  0  1.073943  0
H  H226  1  0.24383412  0.58516599  0.72984179  1  0.044334  0  0.081458  0.068148  0  1.073964  0
H  H227  1  0.65867075  0.24383381  0.39650885  1  0.038835  0  0.081493  0.068188  0  1.073906  0
H  H228  1  0.34133123  0.58516706  0.27015740  1  0.038774  0  0.081481  0.068189  0  1.073991  0
H  H229  1  0.75616440  0.34133135  0.93682590  1  0.039446  0  0.081445  0.06811  0  1.07397  0
H  H230  1  0.41483734  0.75616627  0.60349211  1  0.044188  0  0.081493  0.068181  0  1.073879  0
H  H231  1  0.65866832  0.41483297  0.27015738  1  0.038775  0  0.081493  0.068205  0  1.073967  0
H  H232  1  0.24383539  0.65866835  0.93682593  1  0.039448  0  0.081458  0.068165  0  1.073937  0
H  H233  1  0.58516307  0.24383401  0.60349209  1  0.044208  0  0.0815  0.068218  0  1.073855  0
H  H234  1  0.80266024  0.17768905  0.10742684  1  0.032322  0  0.093347  0.081038  0  1.003582  0
H  H235  1  0.62496805  0.80265811  0.77409538  1  0.04312  0  0.093325  0.080952  0  1.003508  0
H  H236  1  0.82231416  0.62497469  0.44075573  1  0.051353  0  0.093317  0.080995  0  1.003599  0
H  H237  1  0.19734057  0.82231090  0.10742688  1  0.032333  0  0.093351  0.081035  0  1.003571  0
H  H238  1  0.37503142  0.19734192  0.77409538  1  0.043116  0  0.093336  0.080992  0  1.003506  0
H  H239  1  0.17768570  0.37502501  0.44075620  1  0.051138  0  0.093314  0.080986  0  1.003606  0
H  H240  1  0.82231131  0.19734076  0.22590333  1  0.032316  0  0.09332  0.080964  0  1.00348  0
H  H241  1  0.62497256  0.82231187  0.89257276  1  0.051239  0  0.093344  0.081031  0  1.003579  0
H  H242  1  0.80266121  0.62497503  0.55924342  1  0.042894  0  0.093329  0.081011  0  1.003604  0
H  H243  1  0.17768792  0.80265961  0.22590382  1  0.032323  0  0.093307  0.080949  0  1.003504  0
H  H244  1  0.37502806  0.17768932  0.89257276  1  0.051242  0  0.093348  0.081038  0  1.003564  0
H  H245  1  0.19733945  0.37502616  0.55924389  1  0.043133  0  0.093292  0.080972  0  1.003687  0
H  H246  1  0.79513491  0.26332873  0.06848432  1  0.028177  0  0.093824  0.083955  0  1.0059  0
H  H247  1  0.53180502  0.79513443  0.73515107  1  0.080244  0  0.09384  0.08395  0  1.005987  0
H  H248  1  0.73667440  0.53180993  0.40181455  1  0.027409  0  0.093813  0.083905  0  1.005977  0
H  H249  1  0.20486649  0.73667180  0.06848346  1  0.028155  0  0.093813  0.083906  0  1.005944  0
H  H250  1  0.46819412  0.20486594  0.73515106  1  0.08025  0  0.093839  0.083937  0  1.006015  0
H  H251  1  0.26332604  0.46819035  0.40181457  1  0.027403  0  0.093807  0.083892  0  1.005985  0
H  H252  1  0.73667317  0.20486642  0.26484764  1  0.02819  0  0.093813  0.083889  0  1.005975  0
H  H253  1  0.53180797  0.73667190  0.93151573  1  0.027367  0  0.093839  0.083972  0  1.005922  0
H  H254  1  0.79513534  0.53180997  0.59818549  1  0.080383  0  0.093819  0.083923  0  1.005961  0
H  H255  1  0.26332662  0.79513452  0.26484768  1  0.0282  0  0.093846  0.083959  0  1.005988  0
H  H256  1  0.46819239  0.26332838  0.93151617  1  0.027368  0  0.093843  0.083972  0  1.005912  0
H  H257  1  0.20486416  0.46819006  0.59818596  1  0.080373  0  0.093828  0.083935  0  1.005971  0
C  C258  1  0.40424492  0.53617020  0.14088579  1  0.183847  0  -0.081497  -0.078527  0  3.804859  0
C  C259  1  0.86807347  0.40424352  0.80755429  1  0.233108  0  -0.081492  -0.078518  0  3.804826  0
C  C260  1  0.46382808  0.86807533  0.47421961  1  0.227988  0  -0.081411  -0.07841  0  3.804714  0
C  C261  1  0.59575464  0.46382984  0.14088579  1  0.183808  0  -0.081488  -0.07851  0  3.80485  0
C  C262  1  0.13192600  0.59575652  0.80755478  1  0.233101  0  -0.081532  -0.07861  0  3.804755  0
C  C263  1  0.53617144  0.13192471  0.47421870  1  0.227998  0  -0.081449  -0.078499  0  3.804713  0
C  C264  1  0.46382925  0.59575577  0.19244576  1  0.170205  0  -0.08146  -0.078409  0  3.80483  0
C  C265  1  0.86807375  0.46382920  0.85911381  1  0.22851  0  -0.081432  -0.078348  0  3.804709  0
C  C266  1  0.40424685  0.86807492  0.52578182  1  0.242861  0  -0.081463  -0.078496  0  3.804913  0
C  C267  1  0.53617031  0.40424427  0.19244575  1  0.170236  0  -0.081473  -0.078447  0  3.80484  0
C  C268  1  0.13192604  0.53617050  0.85911385  1  0.228495  0  -0.081446  -0.07831  0  3.804715  0
C  C269  1  0.59575357  0.13192536  0.52578180  1  0.242842  0  -0.081457  -0.078555  0  3.804751  0
C  C270  1  0.28290704  0.55338774  0.17923372  1  0.240571  0  -0.08301  -0.086824  0  3.807846  0
C  C271  1  0.72951635  0.28290664  0.84590266  1  0.249099  0  -0.083021  -0.086934  0  3.808016  0
C  C272  1  0.44661233  0.72951973  0.51256663  1  0.242325  0  -0.083015  -0.086845  0  3.807955  0
C  C273  1  0.71709285  0.44661197  0.17923325  1  0.240575  0  -0.083019  -0.086875  0  3.807885  0
C  C274  1  0.27048254  0.71709282  0.84590314  1  0.249001  0  -0.082985  -0.086809  0  3.807864  0
C  C275  1  0.55338694  0.27047940  0.51256662  1  0.242216  0  -0.082968  -0.086735  0  3.807871  0
C  C276  1  0.44661181  0.71709291  0.15409695  1  0.238086  0  -0.082976  -0.086866  0  3.807946  0
C  C277  1  0.72952057  0.44661278  0.82076590  1  0.240886  0  -0.083004  -0.086839  0  3.807922  0
C  C278  1  0.28290748  0.72952039  0.48743390  1  0.249531  0  -0.082987  -0.086734  0  3.807776  0
C  C279  1  0.55338834  0.28290770  0.15409649  1  0.238083  0  -0.083023  -0.086935  0  3.80803  0
C  C280  1  0.27047865  0.55338635  0.82076547  1  0.240712  0  -0.083012  -0.086856  0  3.807843  0
C  C281  1  0.71709295  0.27047989  0.48743343  1  0.249623  0  -0.082983  -0.086773  0  3.80784  0
C  C282  1  0.93115385  0.28313483  0.07083225  1  0.171495  0  -0.084618  -0.089283  0  3.806982  0
C  C283  1  0.64802064  0.93115319  0.73750214  1  0.212887  0  -0.084681  -0.089223  0  3.806897  0
C  C284  1  0.71687032  0.64802450  0.40416339  1  0.23028  0  -0.084533  -0.089198  0  3.806801  0
C  C285  1  0.06884721  0.71686603  0.07083229  1  0.171567  0  -0.084622  -0.089307  0  3.806972  0
C  C286  1  0.35197942  0.06884742  0.73750213  1  0.212849  0  -0.084726  -0.089373  0  3.806903  0
C  C287  1  0.28312955  0.35197520  0.40416340  1  0.230516  0  -0.084535  -0.089247  0  3.806809  0
C  C288  1  0.71686822  0.06884687  0.26249792  1  0.1725  0  -0.084712  -0.089321  0  3.806934  0
C  C289  1  0.64802202  0.71686781  0.92916735  1  0.230181  0  -0.084656  -0.089216  0  3.806973  0
C  C290  1  0.93115352  0.64802395  0.59583666  1  0.213301  0  -0.084532  -0.089204  0  3.806772  0
C  C291  1  0.28313100  0.93115350  0.26249795  1  0.172504  0  -0.084711  -0.089261  0  3.806814  0
C  C292  1  0.35197859  0.28313337  0.92916735  1  0.230388  0  -0.084685  -0.089313  0  3.807061  0
C  C293  1  0.06884574  0.35197518  0.59583669  1  0.213289  0  -0.084551  -0.089236  0  3.806806  0
C  C294  1  0.95012762  0.18023108  0.00858336  1  0.219359  0  -0.080173  -0.081351  0  3.805454  0
C  C295  1  0.76989647  0.95012758  0.67525593  1  0.213613  0  -0.080219  -0.081353  0  3.805535  0
C  C296  1  0.81976933  0.76989759  0.34191584  1  0.22147  0  -0.080246  -0.081558  0  3.805597  0
C  C297  1  0.04987296  0.81976795  0.00858431  1  0.219374  0  -0.080188  -0.081394  0  3.805495  0
C  C298  1  0.23010360  0.04987303  0.67525594  1  0.213295  0  -0.080142  -0.081266  0  3.805423  0
C  C299  1  0.18023078  0.23010302  0.34191496  1  0.221464  0  -0.080221  -0.081504  0  3.805571  0
C  C300  1  0.81976924  0.04987293  0.32474411  1  0.222086  0  -0.080136  -0.081216  0  3.805353  0
C  C301  1  0.76989730  0.81976934  0.99141623  1  0.217194  0  -0.080195  -0.081361  0  3.805435  0
C  C302  1  0.95012853  0.76989751  0.65808510  1  0.214183  0  -0.08022  -0.081472  0  3.805585  0
C  C303  1  0.18023121  0.95012736  0.32474415  1  0.222104  0  -0.080136  -0.081226  0  3.805318  0
C  C304  1  0.23010305  0.18023094  0.99141669  1  0.217165  0  -0.08016  -0.081328  0  3.805467  0
C  C305  1  0.04987187  0.23010277  0.65808468  1  0.214161  0  -0.080227  -0.081496  0  3.805548  0
C  C306  1  0.92991684  0.29577555  0.96334587  1  0.213646  0  -0.087232  -0.086235  0  3.811768  0
C  C307  1  0.63414338  0.92991699  0.63001343  1  0.214354  0  -0.087237  -0.086145  0  3.811677  0
C  C308  1  0.70422703  0.63414593  0.29667423  1  0.209918  0  -0.087248  -0.08619  0  3.811653  0
C  C309  1  0.07008376  0.70422564  0.96334502  1  0.213795  0  -0.087217  -0.086155  0  3.811626  0
C  C310  1  0.36585645  0.07008271  0.63001343  1  0.214354  0  -0.087229  -0.086132  0  3.811703  0
C  C311  1  0.29577343  0.36585435  0.29667425  1  0.209955  0  -0.087262  -0.086231  0  3.811664  0
C  C312  1  0.70422802  0.07008437  0.36998707  1  0.213143  0  -0.087247  -0.086194  0  3.811842  0
C  C313  1  0.63414216  0.70422587  0.03665462  1  0.20758  0  -0.087195  -0.086149  0  3.811686  0
C  C314  1  0.92991726  0.63414333  0.70332536  1  0.214386  0  -0.087205  -0.086229  0  3.811579  0
C  C315  1  0.29577209  0.92991624  0.36998710  1  0.213119  0  -0.087247  -0.086187  0  3.811796  0
C  C316  1  0.36585833  0.29577441  0.03665417  1  0.207243  0  -0.087199  -0.08614  0  3.811656  0
C  C317  1  0.07008231  0.36585546  0.70332584  1  0.214406  0  -0.087252  -0.086235  0  3.811597  0
C  C318  1  0.82910601  0.22831103  0.96113819  1  0.218846  0  -0.087949  -0.093038  0  3.824371  0
C  C319  1  0.60079210  0.82910640  0.62780754  1  0.267548  0  -0.087907  -0.093071  0  3.82431  0
C  C320  1  0.77168529  0.60079190  0.29446924  1  0.212543  0  -0.087821  -0.092793  0  3.824163  0
C  C321  1  0.17089428  0.77168584  0.96113868  1  0.218218  0  -0.087907  -0.093027  0  3.82428  0
C  C322  1  0.39920830  0.17089388  0.62780754  1  0.267548  0  -0.087913  -0.093079  0  3.824299  0
C  C323  1  0.22831459  0.39920780  0.29446926  1  0.212546  0  -0.087805  -0.092774  0  3.824151  0
C  C324  1  0.77168704  0.17089477  0.37219206  1  0.219076  0  -0.087909  -0.093032  0  3.824205  0
C  C325  1  0.60079528  0.77168923  0.03886186  1  0.212966  0  -0.087963  -0.09307  0  3.824344  0
C  C326  1  0.82910565  0.60079390  0.70553081  1  0.26845  0  -0.087839  -0.092836  0  3.824234  0
C  C327  1  0.22831316  0.82910459  0.37219210  1  0.219078  0  -0.087907  -0.093034  0  3.824214  0
C  C328  1  0.39920431  0.22831081  0.03886185  1  0.213259  0  -0.087911  -0.09306  0  3.8244  0
C  C329  1  0.17089432  0.39920795  0.70553083  1  0.268308  0  -0.087836  -0.092804  0  3.824155  0
C  C330  1  0.84797683  0.11642979  0.01153037  1  0.194537  0  -0.078672  -0.085936  0  3.822093  0
C  C331  1  0.73154789  0.84797754  0.67819936  1  0.224071  0  -0.078648  -0.085986  0  3.822072  0
C  C332  1  0.88357097  0.73154827  0.34485837  1  0.197101  0  -0.078711  -0.085857  0  3.822293  0
C  C333  1  0.15202309  0.88356991  0.01152952  1  0.194536  0  -0.078659  -0.085895  0  3.822095  0
C  C334  1  0.26845218  0.15202307  0.67819937  1  0.224552  0  -0.078662  -0.086015  0  3.822126  0
C  C335  1  0.11642890  0.26845144  0.34485929  1  0.197066  0  -0.078715  -0.0859  0  3.822295  0
C  C336  1  0.88357090  0.15202317  0.32180068  1  0.196746  0  -0.078668  -0.086067  0  3.822135  0
C  C337  1  0.73154867  0.88357097  0.98847056  1  0.195464  0  -0.078683  -0.085903  0  3.822098  0
C  C338  1  0.84797765  0.73154832  0.65514122  1  0.225919  0  -0.078688  -0.085886  0  3.82232  0
C  C339  1  0.11642864  0.84797687  0.32180162  1  0.196719  0  -0.078678  -0.086024  0  3.822176  0
C  C340  1  0.26845135  0.11642965  0.98846967  1  0.195461  0  -0.078659  -0.085868  0  3.822136  0
C  C341  1  0.15202275  0.26845196  0.65514035  1  0.225948  0  -0.07866  -0.085822  0  3.822278  0
C  C342  1  0.38120944  0.65499230  0.10552746  1  0.243163  0  -0.091668  -0.09679  0  3.836731  0
C  C343  1  0.72621677  0.38120965  0.77219820  1  0.260701  0  -0.091677  -0.096956  0  3.836709  0
C  C344  1  0.34500596  0.72621911  0.43886307  1  0.268768  0  -0.091728  -0.096987  0  3.836632  0
C  C345  1  0.61879105  0.34500798  0.10552789  1  0.243239  0  -0.09162  -0.096745  0  3.83676  0
C  C346  1  0.27378328  0.61879096  0.77219778  1  0.260717  0  -0.091652  -0.096905  0  3.836743  0
C  C347  1  0.65499390  0.27378059  0.43886260  1  0.269043  0  -0.091719  -0.09693  0  3.83667  0
C  C348  1  0.34500683  0.61878976  0.22780276  1  0.243811  0  -0.091702  -0.096928  0  3.836631  0
C  C349  1  0.72621827  0.34500623  0.89447305  1  0.268881  0  -0.091627  -0.096672  0  3.836709  0
C  C350  1  0.38121313  0.72621863  0.56113792  1  0.260248  0  -0.091711  -0.096867  0  3.836596  0
C  C351  1  0.65499306  0.38120994  0.22780274  1  0.243798  0  -0.091702  -0.096923  0  3.83673  0
C  C352  1  0.27378127  0.65499256  0.89447263  1  0.269006  0  -0.091681  -0.09684  0  3.836844  0
C  C353  1  0.61878762  0.27378132  0.56113700  1  0.26027  0  -0.091736  -0.096974  0  3.836681  0
C  C354  1  0.82819677  0.22322096  0.06890462  1  0.295809  0  -0.079688  -0.082838  0  3.807632  0
C  C355  1  0.60497120  0.82819560  0.73557136  1  0.208193  0  -0.079743  -0.082762  0  3.807509  0
C  C356  1  0.77677923  0.60497605  0.40223396  1  0.25765  0  -0.079648  -0.08262  0  3.807519  0
C  C357  1  0.17180414  0.77677775  0.06890376  1  0.295798  0  -0.079668  -0.082747  0  3.80758  0
C  C358  1  0.39502943  0.17180559  0.73557091  1  0.208242  0  -0.079709  -0.082751  0  3.807523  0
C  C359  1  0.22322121  0.39502423  0.40223398  1  0.25766  0  -0.07964  -0.082591  0  3.80752  0
C  C360  1  0.77677680  0.17180442  0.26442869  1  0.294056  0  -0.079669  -0.082672  0  3.807467  0
C  C361  1  0.60497565  0.77677879  0.93109543  1  0.258323  0  -0.07969  -0.082834  0  3.807642  0
C  C362  1  0.82819616  0.60497631  0.59776564  1  0.207879  0  -0.079673  -0.082686  0  3.807562  0
C  C363  1  0.22322366  0.82819586  0.26442872  1  0.294048  0  -0.079677  -0.082713  0  3.80748  0
C  C364  1  0.39502380  0.22322125  0.93109543  1  0.258326  0  -0.079664  -0.082753  0  3.807645  0
C  C365  1  0.17180358  0.39502464  0.59776611  1  0.207912  0  -0.07963  -0.082646  0  3.807594  0
I  I366  1  0.17613422  0.31430566  0.10429838  1  -0.427726  0  -0.188641  -0.320964  0  1.852351  0
I  I367  1  0.86182740  0.17613486  0.77096776  1  -0.428698  0  -0.188649  -0.320954  0  1.852355  0
I  I368  1  0.68569372  0.86183021  0.43762860  1  -0.428302  0  -0.188642  -0.32097  0  1.852334  0
I  I369  1  0.82386568  0.68569404  0.10429791  1  -0.427771  0  -0.188629  -0.320953  0  1.852347  0
I  I370  1  0.13817241  0.82386484  0.77096781  1  -0.428704  0  -0.188621  -0.320912  0  1.852347  0
I  I371  1  0.31430672  0.13817007  0.43762860  1  -0.428295  0  -0.188636  -0.320962  0  1.852351  0
I  I372  1  0.68569229  0.82386562  0.22903273  1  -0.42804  0  -0.188647  -0.320969  0  1.852358  0
I  I373  1  0.86182918  0.68569438  0.89570258  1  -0.428303  0  -0.188645  -0.320977  0  1.852338  0
I  I374  1  0.17613650  0.86182952  0.56237194  1  -0.42864  0  -0.188629  -0.320954  0  1.852337  0
I  I375  1  0.31430759  0.17613408  0.22903273  1  -0.428043  0  -0.188647  -0.320955  0  1.852373  0
I  I376  1  0.13817061  0.31430532  0.89570260  1  -0.428303  0  -0.188651  -0.320978  0  1.852317  0
I  I377  1  0.82386334  0.13817018  0.56237190  1  -0.428641  0  -0.188629  -0.32096  0  1.852361  0
I  I378  1  0.13491645  0.52460683  0.03087487  1  -0.409226  0  -0.158419  -0.281505  0  1.942581  0
I  I379  1  0.61030897  0.13491758  0.69754201  1  -0.411555  0  -0.158429  -0.281523  0  1.942647  0
I  I380  1  0.47539192  0.61031060  0.36420643  1  -0.410688  0  -0.158426  -0.281518  0  1.942615  0
I  I381  1  0.86508347  0.47539287  0.03087483  1  -0.409478  0  -0.158425  -0.28151  0  1.94258  0
I  I382  1  0.38969142  0.86508270  0.69754204  1  -0.41181  0  -0.158431  -0.281531  0  1.942645  0
I  I383  1  0.52460853  0.38968968  0.36420642  1  -0.410947  0  -0.158414  -0.281508  0  1.942611  0
I  I384  1  0.47539165  0.86508286  0.30245850  1  -0.409449  0  -0.158417  -0.281501  0  1.942642  0
I  I385  1  0.61030969  0.47539341  0.96912521  1  -0.410961  0  -0.158429  -0.281513  0  1.942574  0
I  I386  1  0.13491774  0.61031007  0.63579411  1  -0.411848  0  -0.158417  -0.281504  0  1.942617  0
I  I387  1  0.52460881  0.13491742  0.30245803  1  -0.409194  0  -0.158408  -0.281489  0  1.942641  0
I  I388  1  0.38969034  0.52460720  0.96912522  1  -0.410713  0  -0.158424  -0.281509  0  1.942569  0
I  I389  1  0.86508175  0.38968996  0.63579363  1  -0.411584  0  -0.158414  -0.281503  0  1.942618  0
I  I390  1  0.62582911  0.98546958  0.10670770  1  -0.367444  0  -0.145999  -0.217945  0  2.067403  0
I  I391  1  0.64035722  0.62582762  0.77337621  1  -0.365847  0  -0.146003  -0.217955  0  2.067442  0
I  I392  1  0.01452849  0.64035689  0.44003929  1  -0.367648  0  -0.146051  -0.218067  0  2.067408  0
I  I393  1  0.37417204  0.01453003  0.10670769  1  -0.367446  0  -0.145989  -0.217917  0  2.067443  0
I  I394  1  0.35964316  0.37417266  0.77337621  1  -0.365846  0  -0.146005  -0.217955  0  2.067457  0
I  I395  1  0.98547227  0.35964305  0.44003969  1  -0.367659  0  -0.14601  -0.218006  0  2.067376  0
I  I396  1  0.01453255  0.37417131  0.22662298  1  -0.367399  0  -0.146011  -0.21797  0  2.06756  0
I  I397  1  0.64036019  0.01453154  0.89329191  1  -0.367629  0  -0.14602  -0.217972  0  2.067486  0
I  I398  1  0.62582917  0.64036024  0.55995991  1  -0.365631  0  -0.146028  -0.218005  0  2.067512  0
I  I399  1  0.98546892  0.62582797  0.22662294  1  -0.367398  0  -0.146015  -0.217972  0  2.067567  0
I  I400  1  0.35964018  0.98546874  0.89329194  1  -0.36764  0  -0.146007  -0.217958  0  2.067506  0
I  I401  1  0.37417033  0.35963979  0.55995991  1  -0.365645  0  -0.14602  -0.217995  0  2.067498  0
I  I402  1  0.59373772  0.18747584  0.99999998  1  -0.357738  0  -0.121812  -0.204652  0  2.220872  0
I  I403  1  0.40626080  0.59373679  0.66666627  1  -0.355361  0  -0.121809  -0.204667  0  2.220826  0
I  I404  1  0.81252333  0.40626114  0.33333244  1  -0.357734  0  -0.1218  -0.204631  0  2.220781  0
I  I405  1  0.40626278  0.81252444  1.00000000  1  -0.357738  0  -0.121798  -0.204634  0  2.220869  0
I  I406  1  0.59373902  0.40626291  0.66666626  1  -0.355361  0  -0.121806  -0.204657  0  2.22083  0
I  I407  1  0.18747654  0.59373856  0.33333202  1  -0.357736  0  -0.1218  -0.204623  0  2.220778  0
N  N408  1  0.97155828  0.27449045  0.01421929  1  -0.976796  0  -0.367588  -0.056472  0  3.490318  0
N  N409  1  0.69706573  0.97155718  0.68088784  1  -0.975383  0  -0.367519  -0.056496  0  3.490323  0
N  N410  1  0.72550828  0.69706749  0.34754909  1  -0.973326  0  -0.367567  -0.056441  0  3.490129  0
N  N411  1  0.02844231  0.72550859  0.01421934  1  -0.976776  0  -0.367567  -0.05645  0  3.490307  0
N  N412  1  0.30293409  0.02844252  0.68088784  1  -0.975374  0  -0.367519  -0.05645  0  3.490278  0
N  N413  1  0.27449159  0.30293221  0.34754955  1  -0.973342  0  -0.367578  -0.056371  0  3.49007  0
N  N414  1  0.72550862  0.02844319  0.31911221  1  -0.978253  0  -0.367513  -0.056457  0  3.490331  0
N  N415  1  0.69706795  0.72550995  0.98578075  1  -0.971608  0  -0.367594  -0.056557  0  3.490355  0
N  N416  1  0.97155946  0.69706819  0.65245140  1  -0.97418  0  -0.367586  -0.056432  0  3.490119  0
N  N417  1  0.27449183  0.97155709  0.31911225  1  -0.978244  0  -0.367522  -0.056508  0  3.490355  0
N  N418  1  0.30293149  0.27449008  0.98578075  1  -0.971552  0  -0.367577  -0.05647  0  3.49027  0
N  N419  1  0.02844061  0.30293242  0.65245099  1  -0.974175  0  -0.367574  -0.056377  0  3.490058  0
N  N420  1  0.80038296  0.16773189  0.01364172  1  -0.969789  0  -0.361841  -0.066024  0  3.484862  0
N  N421  1  0.63265211  0.80038313  0.68031026  1  -1.004871  0  -0.361799  -0.065911  0  3.484725  0
N  N422  1  0.83226897  0.63265300  0.34697106  1  -0.981256  0  -0.361912  -0.066403  0  3.485201  0
N  N423  1  0.19961720  0.83226872  0.01364176  1  -0.969787  0  -0.361841  -0.06603  0  3.484801  0
N  N424  1  0.36734771  0.19961657  0.68031026  1  -1.00488  0  -0.361802  -0.065895  0  3.484744  0
N  N425  1  0.16773090  0.36734670  0.34697109  1  -0.981252  0  -0.361917  -0.066426  0  3.485202  0
N  N426  1  0.83227039  0.19961730  0.31968889  1  -0.967561  0  -0.36182  -0.065964  0  3.484771  0
N  N427  1  0.63265202  0.83226781  0.98635788  1  -0.981104  0  -0.361833  -0.066085  0  3.484945  0
N  N428  1  0.80038416  0.63265301  0.65302853  1  -1.004845  0  -0.361908  -0.066342  0  3.485223  0
N  N429  1  0.16773006  0.80038298  0.31968893  1  -0.967548  0  -0.361794  -0.065933  0  3.484725  0
N  N430  1  0.36734809  0.16773155  0.98635832  1  -0.981111  0  -0.361874  -0.06621  0  3.485108  0
N  N431  1  0.19961600  0.36734635  0.65302855  1  -1.004828  0  -0.361926  -0.066371  0  3.485136  0
N  N432  1  0.33568737  0.56048360  0.12500589  1  -0.964083  0  -0.370231  -0.058587  0  3.503839  0
N  N433  1  0.77520377  0.33568756  0.79167528  1  -0.981516  0  -0.370256  -0.058409  0  3.503683  0
N  N434  1  0.43951602  0.77520473  0.45834015  1  -0.982606  0  -0.370257  -0.058467  0  3.503697  0
N  N435  1  0.66431162  0.43951586  0.12500632  1  -0.964122  0  -0.370233  -0.058561  0  3.503842  0
N  N436  1  0.22479603  0.66431214  0.79167531  1  -0.981596  0  -0.370268  -0.058448  0  3.503734  0
N  N437  1  0.56048441  0.22479555  0.45834013  1  -0.982722  0  -0.370241  -0.058484  0  3.503706  0
N  N438  1  0.43951666  0.66431207  0.20832433  1  -0.964988  0  -0.370242  -0.058394  0  3.503649  0
N  N439  1  0.77520274  0.43951492  0.87499373  1  -0.980766  0  -0.370249  -0.058565  0  3.503833  0
N  N440  1  0.33568934  0.77520459  0.54166084  1  -0.98226  0  -0.37025  -0.058593  0  3.503806  0
N  N441  1  0.56048414  0.33568788  0.20832477  1  -0.964966  0  -0.370277  -0.058447  0  3.50367  0
N  N442  1  0.22479647  0.56048420  0.87499375  1  -0.980639  0  -0.370254  -0.058643  0  3.5039  0
N  N443  1  0.66431141  0.22479536  0.54165991  1  -0.982156  0  -0.370253  -0.058462  0  3.503671  0
