# generated using pymatgen
data_Zn3H18C23SN3O10
_symmetry_space_group_name_H-M   'P 1'
_cell_length_a   10.22595554
_cell_length_b   23.15139994
_cell_length_c   27.42721025
_cell_angle_alpha   90.00013256
_cell_angle_beta   89.99952738
_cell_angle_gamma   89.99971014
_symmetry_Int_Tables_number   1
_chemical_formula_structural   Zn3H18C23SN3O10
_chemical_formula_sum   'Zn24 H144 C184 S8 N24 O80'
_cell_volume   6493.26000607
_cell_formula_units_Z   8
loop_
 _symmetry_equiv_pos_site_id
 _symmetry_equiv_pos_as_xyz
  1  'x, y, z'
loop_
 _atom_site_type_symbol
 _atom_site_label
 _atom_site_symmetry_multiplicity
 _atom_site_fract_x
 _atom_site_fract_y
 _atom_site_fract_z
 _atom_site_occupancy
 _atom_site_pbe_bader_charge
 _atom_site_pbe_bader_spin_density
 _atom_site_pbe_cm5_charge
 _atom_site_pbe_ddec_charge
 _atom_site_pbe_ddec_spin_density
 _atom_site_pbe_ddec_sum_bond_order
 _atom_site_pbe_magmom
Zn  Zn0  1  0.58963053  0.80226834  0.95916231  1  1.309587  0  0.661937  0.951647  0  2.226957  0
Zn  Zn1  1  0.44196387  0.72887168  0.04148985  1  1.290368  0  0.652841  0.921704  0  2.367368  0
Zn  Zn2  1  0.75593523  0.77148042  0.04424141  1  1.337459  0  0.654538  0.940798  0  2.302981  0
Zn  Zn3  1  0.08962632  0.69773357  0.04083845  1  1.309551  0  0.66192  0.951569  0  2.227007  0
Zn  Zn4  1  0.94196552  0.77112987  0.95851165  1  1.290061  0  0.652844  0.921659  0  2.367394  0
Zn  Zn5  1  0.25593797  0.72851852  0.95575884  1  1.337244  0  0.654497  0.940643  0  2.303052  0
Zn  Zn6  1  0.41037504  0.19773465  0.45916000  1  1.309478  0  0.661922  0.951599  0  2.227033  0
Zn  Zn7  1  0.55803523  0.27112886  0.54148830  1  1.290202  0  0.652854  0.921684  0  2.367404  0
Zn  Zn8  1  0.24406185  0.22851538  0.54424003  1  1.337185  0  0.65455  0.940856  0  2.30301  0
Zn  Zn9  1  0.91037083  0.30226567  0.54083807  1  1.309566  0  0.661906  0.951554  0  2.227104  0
Zn  Zn10  1  0.05803518  0.22886837  0.45851159  1  1.290127  0  0.652857  0.921691  0  2.367397  0
Zn  Zn11  1  0.74406475  0.27148359  0.45575965  1  1.337391  0  0.654519  0.940791  0  2.303066  0
Zn  Zn12  1  0.41037279  0.19773494  0.04083856  1  1.309482  0  0.661919  0.951548  0  2.227086  0
Zn  Zn13  1  0.55804336  0.27112684  0.95851139  1  1.290318  0  0.652861  0.921714  0  2.367374  0
Zn  Zn14  1  0.24406809  0.22852156  0.95575764  1  1.337443  0  0.65454  0.940806  0  2.303034  0
Zn  Zn15  1  0.91037602  0.30226754  0.95916096  1  1.309562  0  0.661951  0.951608  0  2.226982  0
Zn  Zn16  1  0.05804074  0.22886952  0.04148886  1  1.290181  0  0.652857  0.921685  0  2.367473  0
Zn  Zn17  1  0.74406926  0.27148130  0.04424240  1  1.337487  0  0.654518  0.940825  0  2.302954  0
Zn  Zn18  1  0.58962632  0.80226474  0.54083978  1  1.309428  0  0.66195  0.951638  0  2.226991  0
Zn  Zn19  1  0.44196614  0.72887182  0.45851038  1  1.29021  0  0.652844  0.921639  0  2.367447  0
Zn  Zn20  1  0.75593463  0.77148142  0.45576012  1  1.337443  0  0.654568  0.94084  0  2.302991  0
Zn  Zn21  1  0.08962857  0.69773501  0.45916098  1  1.309571  0  0.661912  0.951605  0  2.227027  0
Zn  Zn22  1  0.94196129  0.77112973  0.54148929  1  1.290074  0  0.65287  0.921693  0  2.367406  0
Zn  Zn23  1  0.25593075  0.72852012  0.54424086  1  1.337532  0  0.654556  0.940796  0  2.303082  0
H  H24  1  0.49816691  0.70035796  0.94905998  1  0.618055  0  0.285343  0.382203  0  0.947425  0
H  H25  1  0.94453449  0.04741649  0.08538897  1  0.071165  0  0.098391  0.098507  0  1.004312  0
H  H26  1  0.69376178  0.98403604  0.94048307  1  0.118622  0  0.107042  0.115201  0  1.004959  0
H  H27  1  0.44003305  0.81777873  0.12456656  1  0.170213  0  0.120998  0.100905  0  1.029734  0
H  H28  1  0.78321739  0.85828389  0.12301760  1  0.155141  0  0.129576  0.109646  0  0.984668  0
H  H29  1  0.89288446  0.94331225  0.07373762  1  0.097163  0  0.103328  0.10677  0  1.007411  0
H  H30  1  0.56854922  0.90004981  0.87773418  1  0.130184  0  0.132404  0.11111  0  0.961468  0
H  H31  1  0.41320627  0.63937141  0.12299791  1  0.139759  0  0.125656  0.102367  0  0.978401  0
H  H32  1  0.40839500  0.63418740  0.21346318  1  0.07187  0  0.108664  0.114111  0  1.00321  0
H  H33  1  0.60840572  0.71930895  0.78587954  1  0.084162  0  0.111675  0.117933  0  0.997493  0
H  H34  1  0.43905023  0.82101711  0.21440764  1  0.076489  0  0.113109  0.119418  0  0.997374  0
H  H35  1  0.74164966  0.68109767  0.12373029  1  0.117585  0  0.121765  0.101408  0  1.006331  0
H  H36  1  0.56669901  0.90567699  0.78749060  1  0.070985  0  0.111909  0.118599  0  0.998961  0
H  H37  1  0.60670317  0.72189293  0.87542347  1  0.1628  0  0.123385  0.103572  0  1.010726  0
H  H38  1  0.79642394  0.86277530  0.21358385  1  0.079348  0  0.11264  0.117655  0  0.999823  0
H  H39  1  0.75063562  0.67662290  0.21431149  1  0.073541  0  0.107093  0.110441  0  1.008569  0
H  H40  1  0.23524282  0.78523582  0.46010516  1  0.632071  0  0.279521  0.377373  0  0.977015  0
H  H41  1  0.51992412  0.83086469  0.45123182  1  0.645382  0  0.285326  0.399424  0  0.931671  0
H  H42  1  0.99816273  0.79964174  0.05094025  1  0.618061  0  0.285336  0.382208  0  0.947429  0
H  H43  1  0.44454437  0.45258030  0.91461702  1  0.071132  0  0.098468  0.098561  0  1.00426  0
H  H44  1  0.19374847  0.51596477  0.05951628  1  0.118484  0  0.106974  0.115111  0  1.004948  0
H  H45  1  0.94003460  0.68222023  0.87543385  1  0.170175  0  0.121023  0.100956  0  1.029699  0
H  H46  1  0.28320719  0.64172104  0.87698074  1  0.155363  0  0.129627  0.109731  0  0.98464  0
H  H47  1  0.39290055  0.55668509  0.92626439  1  0.09728  0  0.103289  0.106706  0  1.007375  0
H  H48  1  0.06855020  0.59995647  0.12226665  1  0.130392  0  0.132435  0.111103  0  0.96153  0
H  H49  1  0.91319891  0.86062805  0.87700368  1  0.139515  0  0.125634  0.102399  0  0.978339  0
H  H50  1  0.90837685  0.86581206  0.78653805  1  0.081283  0  0.108658  0.114167  0  1.003166  0
H  H51  1  0.10841730  0.78069205  0.21412664  1  0.074183  0  0.11169  0.117997  0  0.997325  0
H  H52  1  0.93906161  0.67897970  0.78559351  1  0.086627  0  0.113077  0.119375  0  0.997443  0
H  H53  1  0.24165311  0.81890519  0.87627183  1  0.117313  0  0.121805  0.101409  0  1.006382  0
H  H54  1  0.06669612  0.59432454  0.21251061  1  0.071016  0  0.111925  0.118596  0  0.99894  0
H  H55  1  0.10670990  0.77811412  0.12458271  1  0.162531  0  0.123351  0.103585  0  1.010739  0
H  H56  1  0.29641187  0.63723176  0.78641445  1  0.079562  0  0.112623  0.117668  0  0.999864  0
H  H57  1  0.25064395  0.82338815  0.78569097  1  0.083231  0  0.107152  0.110571  0  1.008286  0
H  H58  1  0.73524256  0.71476317  0.53989369  1  0.632023  0  0.27952  0.377381  0  0.976996  0
H  H59  1  0.01992375  0.66913435  0.54876806  1  0.645377  0  0.285326  0.399413  0  0.931684  0
H  H60  1  0.50183204  0.29964198  0.44905831  1  0.618047  0  0.285334  0.382181  0  0.947451  0
H  H61  1  0.05547441  0.95258201  0.58538739  1  0.071283  0  0.098336  0.098383  0  1.004419  0
H  H62  1  0.30624323  0.01596647  0.44047307  1  0.118236  0  0.106924  0.115057  0  1.004906  0
H  H63  1  0.55996814  0.18222463  0.62456666  1  0.170268  0  0.120933  0.100874  0  1.029699  0
H  H64  1  0.21679850  0.14171515  0.62301468  1  0.155022  0  0.129588  0.109658  0  0.984787  0
H  H65  1  0.10712860  0.05668450  0.57373378  1  0.097371  0  0.103299  0.106625  0  1.00756  0
H  H66  1  0.43144250  0.09994475  0.37772979  1  0.130273  0  0.132403  0.111171  0  0.961196  0
H  H67  1  0.58679495  0.36063022  0.62299645  1  0.139499  0  0.125601  0.10229  0  0.978378  0
H  H68  1  0.59160130  0.36581275  0.71346136  1  0.072013  0  0.108714  0.114244  0  1.003337  0
H  H69  1  0.39158703  0.28069097  0.28587854  1  0.074334  0  0.111663  0.117863  0  0.997475  0
H  H70  1  0.56095290  0.17898132  0.71440773  1  0.076509  0  0.113019  0.119284  0  0.997251  0
H  H71  1  0.25833981  0.31889705  0.62373013  1  0.117618  0  0.121859  0.101551  0  1.006332  0
H  H72  1  0.43329078  0.09432250  0.28748254  1  0.063264  0  0.111924  0.118612  0  0.998933  0
H  H73  1  0.39329348  0.27810550  0.37542137  1  0.162873  0  0.123366  0.103594  0  1.010768  0
H  H74  1  0.20358996  0.13722183  0.71358023  1  0.088722  0  0.112656  0.117578  0  0.999726  0
H  H75  1  0.24934403  0.32337639  0.71430991  1  0.083529  0  0.107144  0.110508  0  1.008498  0
H  H76  1  0.76475980  0.21476501  0.96010870  1  0.632049  0  0.279527  0.37744  0  0.976933  0
H  H77  1  0.48007674  0.16913654  0.95123105  1  0.645413  0  0.285293  0.399375  0  0.931778  0
H  H78  1  0.00183225  0.20035451  0.55094139  1  0.617956  0  0.285357  0.382278  0  0.947337  0
H  H79  1  0.55547489  0.54741695  0.41461311  1  0.071289  0  0.098363  0.09845  0  1.004397  0
H  H80  1  0.80624436  0.48403193  0.55952204  1  0.118103  0  0.106983  0.115139  0  1.004795  0
H  H81  1  0.05996890  0.31777475  0.37543541  1  0.170219  0  0.12097  0.100904  0  1.029691  0
H  H82  1  0.71680116  0.35828301  0.37698289  1  0.15516  0  0.129583  0.109695  0  0.984719  0
H  H83  1  0.60712432  0.44331392  0.42626413  1  0.097296  0  0.103292  0.106675  0  1.007549  0
H  H84  1  0.93143441  0.40005337  0.62226530  1  0.130176  0  0.132439  0.111207  0  0.96118  0
H  H85  1  0.08677424  0.13936737  0.37700262  1  0.140157  0  0.125689  0.102375  0  0.978275  0
H  H86  1  0.09158851  0.13418613  0.28653733  1  0.07196  0  0.108703  0.11424  0  1.003244  0
H  H87  1  0.89159561  0.21931242  0.71412031  1  0.084271  0  0.111682  0.117946  0  0.997411  0
H  H88  1  0.06095364  0.32101720  0.28559580  1  0.086818  0  0.112999  0.119164  0  0.997253  0
H  H89  1  0.75834060  0.18109584  0.37627460  1  0.117354  0  0.121778  0.101377  0  1.006293  0
H  H90  1  0.93328553  0.40567777  0.71251108  1  0.062674  0  0.111898  0.118611  0  0.998975  0
H  H91  1  0.89329324  0.22189313  0.62457894  1  0.162856  0  0.123374  0.103555  0  1.010697  0
H  H92  1  0.70358967  0.36277075  0.28641738  1  0.088893  0  0.112625  0.117607  0  0.999852  0
H  H93  1  0.74934197  0.17661522  0.28569303  1  0.083304  0  0.107117  0.110458  0  1.008539  0
H  H94  1  0.26475461  0.28523391  0.03989237  1  0.632053  0  0.279537  0.37748  0  0.976883  0
H  H95  1  0.98007518  0.33086276  0.04877008  1  0.645412  0  0.28531  0.399389  0  0.931743  0
H  H96  1  0.50184228  0.29964273  0.05093907  1  0.618153  0  0.285337  0.382222  0  0.947346  0
H  H97  1  0.05547764  0.95258376  0.91461009  1  0.071135  0  0.098354  0.098412  0  1.004396  0
H  H98  1  0.30623470  0.01596637  0.05951890  1  0.118263  0  0.107003  0.115168  0  1.004955  0
H  H99  1  0.55996929  0.18221893  0.87543359  1  0.170169  0  0.121018  0.100903  0  1.029706  0
H  H100  1  0.21678398  0.14172068  0.87698218  1  0.155252  0  0.129571  0.109622  0  0.984824  0
H  H101  1  0.10713353  0.05668714  0.92626034  1  0.097233  0  0.10332  0.106634  0  1.007543  0
H  H102  1  0.43145117  0.09995692  0.12226232  1  0.13053  0  0.132455  0.111176  0  0.96149  0
H  H103  1  0.58679509  0.36062755  0.87700552  1  0.139089  0  0.12567  0.102444  0  0.978296  0
H  H104  1  0.59160734  0.36581458  0.78653951  1  0.081205  0  0.108668  0.114225  0  1.003133  0
H  H105  1  0.39159857  0.28069346  0.21412279  1  0.084123  0  0.111696  0.117968  0  0.997428  0
H  H106  1  0.56095114  0.17898271  0.78559215  1  0.086731  0  0.113088  0.119361  0  0.997394  0
H  H107  1  0.25833704  0.31890474  0.87626657  1  0.117438  0  0.121863  0.101519  0  1.006164  0
H  H108  1  0.43330627  0.09432801  0.21250517  1  0.07135  0  0.111902  0.118607  0  0.999007  0
H  H109  1  0.39329917  0.27811423  0.12457886  1  0.162617  0  0.123327  0.10353  0  1.010738  0
H  H110  1  0.20357841  0.13722322  0.78641666  1  0.079311  0  0.112627  0.117639  0  0.99982  0
H  H111  1  0.24933934  0.32337865  0.78568574  1  0.073361  0  0.107138  0.110495  0  1.008403  0
H  H112  1  0.76475170  0.21476400  0.53989207  1  0.632016  0  0.279513  0.377399  0  0.976978  0
H  H113  1  0.48007627  0.16913426  0.54876796  1  0.645335  0  0.285317  0.399399  0  0.931701  0
H  H114  1  0.00184157  0.20035679  0.94905917  1  0.618125  0  0.285329  0.38218  0  0.947465  0
H  H115  1  0.55546873  0.54741995  0.08538678  1  0.071192  0  0.098358  0.098434  0  1.004318  0
H  H116  1  0.80624409  0.48403418  0.94048095  1  0.118514  0  0.106961  0.115094  0  1.004978  0
H  H117  1  0.05996286  0.31778261  0.12456702  1  0.170026  0  0.121007  0.100886  0  1.029869  0
H  H118  1  0.71679319  0.35828094  0.12302123  1  0.155311  0  0.129596  0.109717  0  0.984679  0
H  H119  1  0.60711059  0.44331602  0.07373539  1  0.097336  0  0.103291  0.106695  0  1.007479  0
H  H120  1  0.93144725  0.40004508  0.87773605  1  0.130292  0  0.132408  0.111112  0  0.96142  0
H  H121  1  0.08679757  0.13937350  0.12299538  1  0.139155  0  0.125626  0.102383  0  0.978319  0
H  H122  1  0.09161571  0.13418560  0.21346246  1  0.081232  0  0.10864  0.114129  0  1.003223  0
H  H123  1  0.89159091  0.21930647  0.78586950  1  0.074305  0  0.111722  0.118099  0  0.997095  0
H  H124  1  0.06094269  0.32101839  0.21440810  1  0.07641  0  0.113099  0.119423  0  0.997431  0
H  H125  1  0.75834923  0.18109506  0.12373051  1  0.117424  0  0.121845  0.101491  0  1.006269  0
H  H126  1  0.93329938  0.40567572  0.78749246  1  0.071039  0  0.111917  0.118591  0  0.998924  0
H  H127  1  0.89330124  0.22188613  0.87541488  1  0.162584  0  0.123347  0.103634  0  1.010741  0
H  H128  1  0.70358558  0.36277022  0.21358715  1  0.079492  0  0.112633  0.117659  0  0.999817  0
H  H129  1  0.74935938  0.17661555  0.21431246  1  0.073213  0  0.107243  0.110624  0  1.008407  0
H  H130  1  0.26475293  0.28523319  0.46010572  1  0.632065  0  0.279553  0.377417  0  0.976963  0
H  H131  1  0.98008054  0.33086374  0.45123099  1  0.645368  0  0.285317  0.39938  0  0.93174  0
H  H132  1  0.49815954  0.70035784  0.55094147  1  0.618045  0  0.285349  0.382225  0  0.947347  0
H  H133  1  0.94452794  0.04741694  0.41461312  1  0.071292  0  0.098327  0.098348  0  1.004462  0
H  H134  1  0.69375814  0.98403206  0.55952598  1  0.118002  0  0.106947  0.115106  0  1.004885  0
H  H135  1  0.44003812  0.81777519  0.37543422  1  0.170252  0  0.120994  0.100882  0  1.029808  0
H  H136  1  0.78319993  0.85828596  0.37698328  1  0.155054  0  0.129593  0.109686  0  0.984737  0
H  H137  1  0.89286983  0.94331316  0.42626491  1  0.097253  0  0.103317  0.106683  0  1.007552  0
H  H138  1  0.56855105  0.90004773  0.62226671  1  0.130294  0  0.132417  0.111128  0  0.961408  0
H  H139  1  0.41320642  0.63937003  0.37700406  1  0.139496  0  0.125622  0.102347  0  0.978358  0
H  H140  1  0.40839811  0.63418621  0.28653806  1  0.081146  0  0.108729  0.114257  0  1.003249  0
H  H141  1  0.60841825  0.71930842  0.71412452  1  0.074251  0  0.111712  0.117994  0  0.99724  0
H  H142  1  0.43905825  0.82101591  0.28559533  1  0.086797  0  0.113041  0.119271  0  0.997302  0
H  H143  1  0.74165862  0.68109975  0.37627183  1  0.117551  0  0.121823  0.101472  0  1.006335  0
H  H144  1  0.56670179  0.90567387  0.71251214  1  0.062766  0  0.111898  0.118555  0  0.999006  0
H  H145  1  0.60670691  0.72188957  0.62458243  1  0.162662  0  0.123375  0.103632  0  1.01075  0
H  H146  1  0.79640651  0.86277540  0.28641809  1  0.088741  0  0.112607  0.11755  0  0.999864  0
H  H147  1  0.75065342  0.67662213  0.28569024  1  0.083501  0  0.107145  0.110552  0  1.008442  0
H  H148  1  0.23524450  0.78523308  0.03989144  1  0.632076  0  0.279556  0.377469  0  0.97689  0
H  H149  1  0.51992561  0.83086285  0.04876946  1  0.645429  0  0.285317  0.399416  0  0.931719  0
H  H150  1  0.99816423  0.79964272  0.44905949  1  0.61803  0  0.28533  0.382199  0  0.947431  0
H  H151  1  0.44453332  0.45258201  0.58538339  1  0.071308  0  0.098379  0.098463  0  1.004349  0
H  H152  1  0.19375896  0.51596659  0.44047774  1  0.118422  0  0.106989  0.115164  0  1.00479  0
H  H153  1  0.94003637  0.68222420  0.62456583  1  0.170201  0  0.120966  0.100878  0  1.029679  0
H  H154  1  0.28320020  0.64172372  0.62301689  1  0.155373  0  0.1296  0.109668  0  0.984678  0
H  H155  1  0.39288389  0.55668504  0.57373346  1  0.097339  0  0.103282  0.106736  0  1.007522  0
H  H156  1  0.06856011  0.59994775  0.37773521  1  0.130258  0  0.132367  0.111107  0  0.961306  0
H  H157  1  0.91320267  0.86062943  0.62299680  1  0.139535  0  0.12559  0.102265  0  0.97835  0
H  H158  1  0.90838743  0.86581153  0.71346208  1  0.071871  0  0.108738  0.114289  0  1.003283  0
H  H159  1  0.10841260  0.78069129  0.28587947  1  0.084273  0  0.111644  0.117817  0  0.997448  0
H  H160  1  0.93904479  0.67898046  0.71440690  1  0.076484  0  0.113062  0.119347  0  0.997321  0
H  H161  1  0.24165001  0.81890959  0.62372883  1  0.117419  0  0.12182  0.101435  0  1.006202  0
H  H162  1  0.06671681  0.59432377  0.28748870  1  0.062705  0  0.111888  0.118577  0  0.998983  0
H  H163  1  0.10670715  0.77810755  0.37542120  1  0.162819  0  0.123369  0.103577  0  1.010809  0
H  H164  1  0.29640778  0.63723166  0.71358130  1  0.088953  0  0.112636  0.117667  0  0.999902  0
H  H165  1  0.25064571  0.82338676  0.71431076  1  0.073118  0  0.107176  0.110538  0  1.008463  0
H  H166  1  0.73524773  0.71476548  0.96010705  1  0.632027  0  0.279477  0.377382  0  0.977003  0
H  H167  1  0.01992911  0.66913576  0.95123043  1  0.645281  0  0.285319  0.399411  0  0.931694  0
C  C168  1  0.87077224  0.13720071  0.03400735  1  1.603756  0  0.212851  0.591274  0  4.211729  0
C  C169  1  0.78184511  0.95772437  0.00806908  1  0.087202  0  -0.016579  -0.031657  0  3.963933  0
C  C170  1  0.77693931  0.05664499  0.97870758  1  -0.12931  0  -0.013662  -0.09901  0  3.907995  0
C  C171  1  0.58584309  0.81254047  0.77712850  1  0.057459  0  0.008274  0.092321  0  3.978798  0
C  C172  1  0.84234214  0.07532153  0.02087402  1  -0.053988  0  -0.003403  -0.014804  0  3.931096  0
C  C173  1  0.77262610  0.76977578  0.22301677  1  -0.03828  0  0.008477  0.092583  0  3.990523  0
C  C174  1  0.42531210  0.72749406  0.22303258  1  -0.096543  0  0.006664  0.091408  0  3.995551  0
C  C175  1  0.74267753  0.89567978  0.00349552  1  1.560593  0  0.218915  0.612459  0  4.142295  0
C  C176  1  0.88579712  0.03357070  0.05433703  1  -0.034376  0  -0.09204  -0.114658  0  4.005715  0
C  C177  1  0.74542399  0.99832803  0.97300727  1  -0.044523  0  -0.074435  -0.087272  0  3.942131  0
C  C178  1  0.43513961  0.77792027  0.14586180  1  0.540513  0  0.054271  0.105258  0  3.922696  0
C  C179  1  0.77644636  0.81936231  0.14536290  1  0.506342  0  0.060533  0.107444  0  3.913103  0
C  C180  1  0.85681653  0.97553536  0.04811972  1  -0.058422  0  -0.081424  -0.081188  0  3.9827  0
C  C181  1  0.57488455  0.86098864  0.85558314  1  0.475783  0  0.05878  0.100174  0  3.938605  0
C  C182  1  0.41895197  0.67840622  0.14524264  1  0.505148  0  0.052105  0.094826  0  3.957063  0
C  C183  1  0.41687142  0.67616366  0.19586135  1  -0.018726  0  -0.08645  -0.182382  0  3.96801  0
C  C184  1  0.59775592  0.76096478  0.80382747  1  -0.112777  0  -0.080766  -0.170702  0  3.946724  0
C  C185  1  0.43371620  0.77916692  0.19646557  1  -0.161505  0  -0.081443  -0.171716  0  3.943612  0
C  C186  1  0.75287846  0.71998735  0.14582406  1  0.564655  0  0.052811  0.098573  0  3.939672  0
C  C187  1  0.57463768  0.86347092  0.80478176  1  0.015048  0  -0.083976  -0.182466  0  3.95069  0
C  C188  1  0.59642345  0.76181189  0.85448702  1  0.514664  0  0.054875  0.105324  0  3.913941  0
C  C189  1  0.78361383  0.82105298  0.19593275  1  -0.07348  0  -0.080079  -0.174155  0  3.944294  0
C  C190  1  0.75851847  0.71837153  0.19633411  1  -0.143904  0  -0.08386  -0.175245  0  3.970633  0
C  C191  1  0.37076833  0.36279711  0.96599595  1  1.603588  0  0.212791  0.591082  0  4.21191  0
C  C192  1  0.28183939  0.54227668  0.99193255  1  0.088134  0  -0.016589  -0.031661  0  3.964098  0
C  C193  1  0.27693077  0.44335174  0.02129674  1  -0.128937  0  -0.013758  -0.099209  0  3.907863  0
C  C194  1  0.08584967  0.68746188  0.22287373  1  -0.093258  0  0.008236  0.092224  0  3.97879  0
C  C195  1  0.34234506  0.42467809  0.97912936  1  -0.053987  0  -0.003353  -0.014674  0  3.930799  0
C  C196  1  0.27262198  0.73023306  0.77698234  1  -0.038706  0  0.008597  0.092751  0  3.990371  0
C  C197  1  0.92530402  0.77250407  0.77696715  1  -0.096578  0  0.006652  0.091396  0  3.995685  0
C  C198  1  0.24267003  0.60431919  0.99650550  1  1.560488  0  0.218888  0.612386  0  4.142472  0
C  C199  1  0.38580225  0.46642536  0.94566476  1  -0.034296  0  -0.092111  -0.114708  0  4.00565  0
C  C200  1  0.24541645  0.50166878  0.02699520  1  -0.044676  0  -0.074349  -0.087084  0  3.941673  0
C  C201  1  0.93513922  0.72207913  0.85413862  1  0.540523  0  0.054314  0.10528  0  3.922678  0
C  C202  1  0.27644990  0.68064394  0.85463728  1  0.505789  0  0.060353  0.107177  0  3.913389  0
C  C203  1  0.35681776  0.52446249  0.95188642  1  -0.059216  0  -0.081407  -0.081154  0  3.982988  0
C  C204  1  0.07489047  0.63901590  0.14441840  1  0.47566  0  0.058588  0.099926  0  3.938706  0
C  C205  1  0.91894749  0.82159365  0.85475820  1  0.50484  0  0.052058  0.0947  0  3.957181  0
C  C206  1  0.91685825  0.82383449  0.80414023  1  -0.018747  0  -0.086408  -0.182388  0  3.968102  0
C  C207  1  0.09776250  0.73903711  0.19617619  1  -0.112986  0  -0.080784  -0.170676  0  3.946642  0
C  C208  1  0.93371791  0.72083119  0.80353377  1  -0.161388  0  -0.081459  -0.171762  0  3.943727  0
C  C209  1  0.25287893  0.78001938  0.85417656  1  0.56481  0  0.052715  0.098527  0  3.939521  0
C  C210  1  0.07464153  0.63653059  0.19521941  1  0.014984  0  -0.083974  -0.182446  0  3.950608  0
C  C211  1  0.09643506  0.73819217  0.14551628  1  0.515647  0  0.054845  0.105099  0  3.914457  0
C  C212  1  0.28361068  0.67895325  0.80406559  1  -0.073302  0  -0.080106  -0.174241  0  3.944114  0
C  C213  1  0.25851709  0.78163432  0.80366722  1  -0.143489  0  -0.084056  -0.175664  0  3.970692  0
C  C214  1  0.12923582  0.86280068  0.53400100  1  1.603577  0  0.212722  0.590973  0  4.212113  0
C  C215  1  0.21816646  0.04227349  0.50806304  1  0.088039  0  -0.016564  -0.031637  0  3.964364  0
C  C216  1  0.22306192  0.94335675  0.47869818  1  -0.129194  0  -0.013771  -0.09923  0  3.907942  0
C  C217  1  0.41415963  0.18746072  0.27712579  1  -0.093326  0  0.008246  0.092194  0  3.979207  0
C  C218  1  0.15765545  0.92467896  0.52086770  1  -0.054008  0  -0.003298  -0.014637  0  3.930977  0
C  C219  1  0.22737195  0.23022051  0.72301435  1  0.113386  0  0.008576  0.092718  0  3.990806  0
C  C220  1  0.57469768  0.27250525  0.72303099  1  0.056309  0  0.006702  0.091606  0  3.995831  0
C  C221  1  0.25733022  0.10432066  0.50348656  1  1.560317  0  0.21884  0.612232  0  4.142751  0
C  C222  1  0.11420952  0.96642858  0.55433202  1  -0.034152  0  -0.092005  -0.114547  0  4.005642  0
C  C223  1  0.25457736  0.00167240  0.47299996  1  -0.044721  0  -0.074306  -0.087062  0  3.941808  0
C  C224  1  0.56486013  0.22208056  0.64586342  1  0.540519  0  0.054325  0.105276  0  3.92274  0
C  C225  1  0.22356513  0.18063464  0.64536076  1  0.506127  0  0.060509  0.107303  0  3.913177  0
C  C226  1  0.14319415  0.02446520  0.54811315  1  -0.059303  0  -0.081453  -0.081044  0  3.983123  0
C  C227  1  0.42510570  0.13900845  0.35557629  1  0.476003  0  0.05861  0.099775  0  3.938465  0
C  C228  1  0.58105463  0.32159245  0.64524294  1  0.505392  0  0.052027  0.094705  0  3.957222  0
C  C229  1  0.58312820  0.32383817  0.69586165  1  -0.018935  0  -0.086503  -0.182563  0  3.968121  0
C  C230  1  0.40223840  0.23903346  0.30382417  1  -0.112982  0  -0.080833  -0.17067  0  3.946885  0
C  C231  1  0.56627461  0.22083664  0.69646609  1  -0.161543  0  -0.081351  -0.171613  0  3.943888  0
C  C232  1  0.24710856  0.28000959  0.64582423  1  0.564778  0  0.05266  0.098314  0  3.939677  0
C  C233  1  0.42536835  0.13652646  0.30477637  1  0.014299  0  -0.083897  -0.182238  0  3.950563  0
C  C234  1  0.40356388  0.23818693  0.35448553  1  0.514824  0  0.054932  0.105219  0  3.91375  0
C  C235  1  0.21640437  0.17894799  0.69592953  1  -0.072395  0  -0.080086  -0.173987  0  3.944511  0
C  C236  1  0.24146647  0.28162944  0.69633576  1  -0.143812  0  -0.083812  -0.175124  0  3.970294  0
C  C237  1  0.62923905  0.63719898  0.46599892  1  1.603274  0  0.212726  0.591042  0  4.212041  0
C  C238  1  0.71816840  0.45772467  0.49193416  1  0.087935  0  -0.016618  -0.031946  0  3.964522  0
C  C239  1  0.72307072  0.55664184  0.52129706  1  -0.129221  0  -0.013582  -0.098869  0  3.907723  0
C  C240  1  0.91415424  0.31254089  0.72287044  1  0.057583  0  0.008345  0.092419  0  3.979021  0
C  C241  1  0.65765616  0.57531891  0.47912957  1  -0.053516  0  -0.0034  -0.014826  0  3.931251  0
C  C242  1  0.72736804  0.26977115  0.27698720  1  0.113709  0  0.008613  0.09282  0  3.990658  0
C  C243  1  0.07469382  0.22749583  0.27696994  1  0.056378  0  0.006613  0.091416  0  3.996102  0
C  C244  1  0.75732983  0.39567871  0.49650979  1  1.560285  0  0.218966  0.612636  0  4.142242  0
C  C245  1  0.61421437  0.53357154  0.44566648  1  -0.034319  0  -0.092041  -0.11468  0  4.005843  0
C  C246  1  0.75457905  0.49832654  0.52699568  1  -0.044431  0  -0.074448  -0.087205  0  3.941881  0
C  C247  1  0.06485693  0.27791752  0.35413827  1  0.540605  0  0.054424  0.10545  0  3.922685  0
C  C248  1  0.72355699  0.31936222  0.35463898  1  0.506122  0  0.060468  0.107322  0  3.913021  0
C  C249  1  0.64319286  0.47553356  0.45188319  1  -0.059172  0  -0.081357  -0.080903  0  3.982838  0
C  C250  1  0.92509953  0.36099184  0.64441845  1  0.475953  0  0.058725  0.100044  0  3.938376  0
C  C251  1  0.08103397  0.17840602  0.35475505  1  0.504898  0  0.051922  0.094632  0  3.956964  0
C  C252  1  0.08311454  0.17616073  0.30413524  1  -0.019055  0  -0.086463  -0.182452  0  3.967843  0
C  C253  1  0.90224885  0.26096818  0.69617356  1  -0.112946  0  -0.080865  -0.170847  0  3.946909  0
C  C254  1  0.06627837  0.27916229  0.30353596  1  -0.161543  0  -0.081315  -0.171429  0  3.943925  0
C  C255  1  0.74711526  0.21998591  0.35417726  1  0.564834  0  0.052792  0.098618  0  3.939648  0
C  C256  1  0.92535517  0.36347426  0.69521873  1  0.015001  0  -0.08399  -0.182521  0  3.950681  0
C  C257  1  0.90357446  0.26181255  0.64551365  1  0.514704  0  0.05494  0.105406  0  3.913735  0
C  C258  1  0.71639048  0.32104715  0.30406731  1  -0.072852  0  -0.08004  -0.17406  0  3.944442  0
C  C259  1  0.74147332  0.21836348  0.30366794  1  -0.143732  0  -0.083882  -0.17527  0  3.970411  0
C  C260  1  0.12923206  0.86280041  0.96599572  1  1.60325  0  0.21276  0.591091  0  4.211909  0
C  C261  1  0.21816310  0.04227718  0.99193034  1  0.087941  0  -0.016614  -0.031804  0  3.964203  0
C  C262  1  0.22306499  0.94335439  0.02129476  1  -0.129411  0  -0.013674  -0.099108  0  3.908109  0
C  C263  1  0.41416120  0.18746367  0.22287018  1  0.057045  0  0.008257  0.092361  0  3.97875  0
C  C264  1  0.15766118  0.92467959  0.97912867  1  -0.053571  0  -0.00336  -0.014817  0  3.931177  0
C  C265  1  0.22736940  0.23022361  0.77698338  1  -0.038338  0  0.008478  0.092493  0  3.990923  0
C  C266  1  0.57469416  0.27250532  0.77696720  1  -0.096657  0  0.006662  0.091227  0  3.995673  0
C  C267  1  0.25733263  0.10432047  0.99650608  1  1.560572  0  0.218956  0.612522  0  4.142278  0
C  C268  1  0.11421989  0.96642998  0.94566202  1  -0.034114  0  -0.092054  -0.114548  0  4.005656  0
C  C269  1  0.25457444  0.00167222  0.02699360  1  -0.044185  0  -0.07439  -0.087139  0  3.941829  0
C  C270  1  0.56486567  0.22207912  0.85413944  1  0.540529  0  0.054434  0.105471  0  3.922711  0
C  C271  1  0.22354718  0.18063924  0.85463797  1  0.506259  0  0.060501  0.107415  0  3.913233  0
C  C272  1  0.14320341  0.02446576  0.95187824  1  -0.059359  0  -0.08142  -0.081012  0  3.983017  0
C  C273  1  0.42511193  0.13901637  0.14441190  1  0.474935  0  0.058623  0.099887  0  3.938656  0
C  C274  1  0.58104842  0.32159317  0.85475860  1  0.505449  0  0.051975  0.094541  0  3.95726  0
C  C275  1  0.58313288  0.32383659  0.80414026  1  -0.01865  0  -0.086445  -0.182389  0  3.967876  0
C  C276  1  0.40224447  0.23903849  0.19617158  1  -0.112501  0  -0.080787  -0.170738  0  3.946834  0
C  C277  1  0.56629103  0.22083333  0.80353458  1  -0.161389  0  -0.081511  -0.171704  0  3.943699  0
C  C278  1  0.24711508  0.28001377  0.85417134  1  0.564746  0  0.052583  0.098225  0  3.939675  0
C  C279  1  0.42535782  0.13653322  0.19521510  1  0.015029  0  -0.083883  -0.182424  0  3.950531  0
C  C280  1  0.40357498  0.23819398  0.14551495  1  0.514981  0  0.054882  0.105262  0  3.914056  0
C  C281  1  0.21638167  0.17894598  0.80406521  1  -0.073512  0  -0.080055  -0.174145  0  3.944322  0
C  C282  1  0.24147605  0.28162700  0.80366312  1  -0.143542  0  -0.08383  -0.175098  0  3.970642  0
C  C283  1  0.62922913  0.63720228  0.03400347  1  1.603172  0  0.212757  0.591156  0  4.211783  0
C  C284  1  0.71816002  0.45772401  0.00806578  1  0.088115  0  -0.016588  -0.03169  0  3.964239  0
C  C285  1  0.72306863  0.55664851  0.97870341  1  -0.128892  0  -0.013702  -0.09914  0  3.907874  0
C  C286  1  0.91415071  0.31253924  0.77712678  1  -0.093444  0  0.008336  0.092309  0  3.978934  0
C  C287  1  0.65766022  0.57532217  0.02087115  1  -0.053712  0  -0.00331  -0.014707  0  3.930892  0
C  C288  1  0.72737254  0.26976806  0.22301854  1  -0.038156  0  0.008644  0.092829  0  3.990415  0
C  C289  1  0.07469343  0.22749489  0.22303373  1  -0.096482  0  0.006696  0.091375  0  3.995569  0
C  C290  1  0.75732840  0.39568063  0.00349209  1  1.560457  0  0.218865  0.612367  0  4.142623  0
C  C291  1  0.61420987  0.53357360  0.05433503  1  -0.034327  0  -0.092031  -0.114577  0  4.005676  0
C  C292  1  0.75458198  0.49832932  0.97300495  1  -0.044784  0  -0.07437  -0.087129  0  3.941726  0
C  C293  1  0.06485824  0.27792371  0.14585970  1  0.540559  0  0.054284  0.105236  0  3.922898  0
C  C294  1  0.72355342  0.31935804  0.14536541  1  0.505987  0  0.060387  0.107279  0  3.913464  0
C  C295  1  0.64319142  0.47553776  0.04811701  1  -0.059141  0  -0.081395  -0.081081  0  3.982949  0
C  C296  1  0.92511677  0.36098478  0.85558357  1  0.475708  0  0.05868  0.09999  0  3.938574  0
C  C297  1  0.08105387  0.17840833  0.14524304  1  0.505149  0  0.051999  0.094581  0  3.957379  0
C  C298  1  0.08313627  0.17616404  0.19585919  1  -0.0187  0  -0.086387  -0.182304  0  3.968045  0
C  C299  1  0.90223985  0.26096314  0.80382140  1  -0.113267  0  -0.080781  -0.170753  0  3.946852  0
C  C300  1  0.06627563  0.27916906  0.19646565  1  -0.161393  0  -0.081436  -0.171713  0  3.94355  0
C  C301  1  0.74712733  0.21998303  0.14582504  1  0.564921  0  0.052654  0.098365  0  3.939355  0
C  C302  1  0.92536374  0.36347009  0.80478256  1  0.01525  0  -0.084007  -0.182429  0  3.950561  0
C  C303  1  0.90357315  0.26180679  0.85448022  1  0.51567  0  0.054721  0.104942  0  3.914559  0
C  C304  1  0.71638580  0.32104744  0.19593492  1  -0.073388  0  -0.080135  -0.17429  0  3.944293  0
C  C305  1  0.74148623  0.21836636  0.19633766  1  -0.144099  0  -0.08409  -0.17557  0  3.970556  0
C  C306  1  0.87076163  0.13719871  0.46599915  1  1.603494  0  0.212735  0.590971  0  4.212122  0
C  C307  1  0.78183197  0.95772331  0.49193637  1  0.087758  0  -0.016638  -0.03191  0  3.964662  0
C  C308  1  0.77693260  0.05664307  0.52129904  1  -0.129395  0  -0.013658  -0.098965  0  3.907724  0
C  C309  1  0.58584662  0.81253824  0.72287435  1  -0.093318  0  0.008259  0.092173  0  3.979029  0
C  C310  1  0.84233906  0.07531999  0.47913098  1  -0.053538  0  -0.003365  -0.014816  0  3.931129  0
C  C311  1  0.77262159  0.76977586  0.27698543  1  0.113566  0  0.008551  0.092758  0  3.990691  0
C  C312  1  0.42530661  0.72749457  0.27696916  1  0.056331  0  0.006642  0.091547  0  3.99581  0
C  C313  1  0.74266625  0.89567873  0.49651212  1  1.560377  0  0.218881  0.612506  0  4.142507  0
C  C314  1  0.88578500  0.03356994  0.44566666  1  -0.034184  0  -0.092001  -0.114518  0  4.005657  0
C  C315  1  0.74542107  0.99832612  0.52699764  1  -0.044299  0  -0.074413  -0.087229  0  3.94192  0
C  C316  1  0.43514515  0.77791840  0.35413854  1  0.540544  0  0.054353  0.105405  0  3.922659  0
C  C317  1  0.77643624  0.81936518  0.35463938  1  0.506297  0  0.060563  0.10732  0  3.912911  0
C  C318  1  0.85680330  0.97553159  0.45188444  1  -0.059111  0  -0.081403  -0.080941  0  3.982985  0
C  C319  1  0.57488393  0.86098575  0.64441875  1  0.475886  0  0.058649  0.099877  0  3.938782  0
C  C320  1  0.41895260  0.67840737  0.35475720  1  0.50547  0  0.051996  0.094638  0  3.957225  0
C  C321  1  0.41687414  0.67616122  0.30413849  1  -0.018791  0  -0.086498  -0.182547  0  3.968001  0
C  C322  1  0.59776590  0.76096550  0.69617671  1  -0.11311  0  -0.080804  -0.170669  0  3.946826  0
C  C323  1  0.43372969  0.77916188  0.30353479  1  -0.161498  0  -0.081393  -0.171677  0  3.943814  0
C  C324  1  0.75288400  0.71998979  0.35417555  1  0.564845  0  0.052595  0.098341  0  3.939764  0
C  C325  1  0.57462715  0.86347077  0.69522159  1  0.014993  0  -0.083914  -0.182226  0  3.950384  0
C  C326  1  0.59643064  0.76180944  0.64551826  1  0.514945  0  0.054762  0.105051  0  3.914038  0
C  C327  1  0.78359797  0.82105226  0.30406660  1  -0.072901  0  -0.080042  -0.173946  0  3.944252  0
C  C328  1  0.75852120  0.71837124  0.30366548  1  -0.14353  0  -0.083897  -0.175391  0  3.970637  0
C  C329  1  0.37076329  0.36279954  0.53400196  1  1.603245  0  0.212688  0.590986  0  4.21215  0
C  C330  1  0.28183786  0.54227515  0.50806379  1  0.087964  0  -0.016591  -0.031777  0  3.96444  0
C  C331  1  0.27693260  0.44335582  0.47870162  1  -0.12944  0  -0.013705  -0.099131  0  3.907788  0
C  C332  1  0.08584810  0.68746066  0.27712934  1  0.057587  0  0.008251  0.092279  0  3.978971  0
C  C333  1  0.34234031  0.42467918  0.52087094  1  -0.053544  0  -0.003292  -0.014667  0  3.931136  0
C  C334  1  0.27262257  0.73023083  0.72301440  1  0.113988  0  0.008676  0.092978  0  3.990588  0
C  C335  1  0.92530168  0.77250270  0.72303093  1  0.056054  0  0.006586  0.091378  0  3.995966  0
C  C336  1  0.24267642  0.60432025  0.50348744  1  1.560352  0  0.218835  0.612374  0  4.142798  0
C  C337  1  0.38578895  0.46642698  0.55433257  1  -0.034355  0  -0.092047  -0.114646  0  4.005718  0
C  C338  1  0.24542329  0.50167198  0.47300447  1  -0.044748  0  -0.074459  -0.087219  0  3.94185  0
C  C339  1  0.93513857  0.72208058  0.64586297  1  0.540596  0  0.054327  0.105316  0  3.922705  0
C  C340  1  0.27644340  0.68064322  0.64536299  1  0.505644  0  0.06041  0.107334  0  3.912986  0
C  C341  1  0.35680851  0.52446496  0.54811622  1  -0.059126  0  -0.081382  -0.08104  0  3.982824  0
C  C342  1  0.07489499  0.63901101  0.35558279  1  0.476054  0  0.058811  0.10011  0  3.938594  0
C  C343  1  0.91894588  0.82159207  0.64524364  1  0.505425  0  0.052031  0.094732  0  3.957124  0
C  C344  1  0.91686824  0.82383779  0.69586272  1  -0.018526  0  -0.086453  -0.182492  0  3.967965  0
C  C345  1  0.09776327  0.73903207  0.30382658  1  -0.112968  0  -0.080753  -0.170577  0  3.946966  0
C  C346  1  0.93371517  0.72083537  0.69646637  1  -0.161582  0  -0.081355  -0.171598  0  3.944008  0
C  C347  1  0.25287926  0.78001909  0.64582544  1  0.56478  0  0.052733  0.098403  0  3.939707  0
C  C348  1  0.07464033  0.63652728  0.30478068  1  0.014984  0  -0.083947  -0.182396  0  3.950403  0
C  C349  1  0.09643179  0.73818814  0.35448577  1  0.514701  0  0.054881  0.105234  0  3.913963  0
C  C350  1  0.28360893  0.67895396  0.69593502  1  -0.07352  0  -0.080074  -0.174225  0  3.944415  0
C  C351  1  0.25851729  0.78163763  0.69633476  1  -0.143421  0  -0.084021  -0.175462  0  3.970493  0
S  S352  1  0.74056354  0.10275837  0.92776192  1  3.187006  0  0.494053  1.174257  0  6.210338  0
S  S353  1  0.24055637  0.39724017  0.07224068  1  3.186886  0  0.494211  1.174299  0  6.210031  0
S  S354  1  0.25943098  0.89724150  0.42775196  1  3.18681  0  0.494131  1.174359  0  6.210053  0
S  S355  1  0.75943032  0.60275527  0.57224244  1  3.186847  0  0.493936  1.174031  0  6.210522  0
S  S356  1  0.25943684  0.89724231  0.07224005  1  3.186955  0  0.494126  1.174401  0  6.210156  0
S  S357  1  0.75943913  0.60275749  0.92775873  1  3.186965  0  0.49419  1.174405  0  6.210199  0
S  S358  1  0.74056353  0.10275702  0.57224636  1  3.187046  0  0.49394  1.174009  0  6.210295  0
S  S359  1  0.24056616  0.39724325  0.42775515  1  3.186739  0  0.49388  1.173885  0  6.210621  0
N  N360  1  0.75981766  0.76971000  0.12074682  1  -1.229973  0  -0.31368  -0.219306  0  3.539628  0
N  N361  1  0.58450126  0.81101630  0.88031107  1  -1.219195  0  -0.306391  -0.229344  0  3.49553  0
N  N362  1  0.42887376  0.72829517  0.12055988  1  -1.231212  0  -0.313776  -0.233645  0  3.51802  0
N  N363  1  0.25982107  0.73029498  0.87925306  1  -1.229509  0  -0.313456  -0.218876  0  3.539535  0
N  N364  1  0.08450520  0.68899123  0.11969117  1  -1.219685  0  -0.306202  -0.22891  0  3.495542  0
N  N365  1  0.92887616  0.77170382  0.87944020  1  -1.230698  0  -0.313746  -0.233551  0  3.518058  0
N  N366  1  0.24017872  0.23028860  0.62074253  1  -1.229902  0  -0.313702  -0.219223  0  3.539462  0
N  N367  1  0.41549235  0.18897956  0.38031018  1  -1.219096  0  -0.306309  -0.229089  0  3.495255  0
N  N368  1  0.57112458  0.27170646  0.62055830  1  -1.231209  0  -0.313701  -0.233488  0  3.518057  0
N  N369  1  0.74018528  0.26970822  0.37925643  1  -1.229806  0  -0.313646  -0.219295  0  3.539576  0
N  N370  1  0.91548827  0.31101903  0.61968750  1  -1.219337  0  -0.306389  -0.229328  0  3.495474  0
N  N371  1  0.07111943  0.22829160  0.37944410  1  -1.231424  0  -0.313748  -0.233714  0  3.518114  0
N  N372  1  0.24017295  0.23029327  0.87925333  1  -1.229891  0  -0.313619  -0.219128  0  3.539632  0
N  N373  1  0.41550206  0.18898956  0.11968798  1  -1.219056  0  -0.306294  -0.22903  0  3.495451  0
N  N374  1  0.57112858  0.27170336  0.87944136  1  -1.23092  0  -0.313748  -0.233547  0  3.518274  0
N  N375  1  0.74018322  0.26970657  0.12074818  1  -1.229586  0  -0.31351  -0.219064  0  3.539621  0
N  N376  1  0.91550105  0.31100859  0.88030898  1  -1.219639  0  -0.306191  -0.228975  0  3.495499  0
N  N377  1  0.07112618  0.22829816  0.12056068  1  -1.230585  0  -0.313726  -0.233431  0  3.518239  0
N  N378  1  0.75981776  0.76971079  0.37925688  1  -1.229995  0  -0.313578  -0.219094  0  3.539399  0
N  N379  1  0.58450510  0.81101508  0.61969033  1  -1.218981  0  -0.306251  -0.22906  0  3.495558  0
N  N380  1  0.42888070  0.72829293  0.37944367  1  -1.231404  0  -0.313698  -0.233543  0  3.518057  0
N  N381  1  0.25981413  0.73029895  0.62074445  1  -1.229296  0  -0.313546  -0.219017  0  3.539618  0
N  N382  1  0.08450625  0.68898122  0.38031119  1  -1.219507  0  -0.306364  -0.22923  0  3.495636  0
N  N383  1  0.92887509  0.77170519  0.62055787  1  -1.231202  0  -0.313706  -0.233532  0  3.518129  0
O  O384  1  0.55933840  0.79518373  0.03579903  1  -1.260871  0  -0.581099  -0.882097  0  2.312767  0
O  O385  1  0.75449157  0.75563902  0.96899604  1  -1.248856  0  -0.581203  -0.854458  0  2.32713  0
O  O386  1  0.78375421  0.86182999  0.03650279  1  -1.192538  0  -0.315584  -0.559837  0  2.330048  0
O  O387  1  0.99313331  0.14874070  0.03788507  1  -1.165772  0  -0.32088  -0.553592  0  2.366528  0
O  O388  1  0.77706529  0.17079836  0.04371650  1  -1.189532  0  -0.314204  -0.562692  0  2.23854  0
O  O389  1  0.66942498  0.88210058  0.96714157  1  -1.179332  0  -0.328755  -0.576208  0  2.277995  0
O  O390  1  0.45677584  0.73672472  0.95870670  1  -1.246062  0  -0.578228  -0.862299  0  2.189973  0
O  O391  1  0.77401145  0.06947087  0.88441000  1  -1.335962  0  -0.390159  -0.624227  0  2.071293  0
O  O392  1  0.60023424  0.11703024  0.93106398  1  -1.34058  0  -0.357702  -0.616958  0  2.183116  0
O  O393  1  0.82539633  0.15451110  0.93402059  1  -1.352053  0  -0.349956  -0.626842  0  2.259183  0
O  O394  1  0.05933536  0.70481565  0.96420256  1  -1.260609  0  -0.581138  -0.882064  0  2.312763  0
O  O395  1  0.25448997  0.74436252  0.03100276  1  -1.248879  0  -0.581265  -0.854555  0  2.327226  0
O  O396  1  0.28375389  0.63816544  0.96349737  1  -1.192386  0  -0.315477  -0.559729  0  2.330162  0
O  O397  1  0.49312962  0.35125641  0.96212003  1  -1.165856  0  -0.320782  -0.553514  0  2.366384  0
O  O398  1  0.27706002  0.32920226  0.95628235  1  -1.189493  0  -0.314241  -0.56262  0  2.238724  0
O  O399  1  0.16941990  0.61789942  0.03286114  1  -1.179437  0  -0.328773  -0.576212  0  2.277909  0
O  O400  1  0.95677425  0.76327507  0.04129293  1  -1.24613  0  -0.578202  -0.862261  0  2.189968  0
O  O401  1  0.27401761  0.43052587  0.11559214  1  -1.336033  0  -0.390142  -0.624194  0  2.071294  0
O  O402  1  0.10022241  0.38297337  0.06894270  1  -1.340614  0  -0.357797  -0.616984  0  2.18289  0
O  O403  1  0.32538597  0.34548726  0.06597738  1  -1.351977  0  -0.34999  -0.626808  0  2.25913  0
O  O404  1  0.44066864  0.20481420  0.53579663  1  -1.260735  0  -0.581098  -0.882087  0  2.31289  0
O  O405  1  0.24550988  0.24436313  0.46899433  1  -1.248787  0  -0.581296  -0.854556  0  2.32731  0
O  O406  1  0.21625869  0.13817097  0.53649658  1  -1.192303  0  -0.315568  -0.559823  0  2.330285  0
O  O407  1  0.00687760  0.85125940  0.53787980  1  -1.165562  0  -0.32074  -0.553395  0  2.366512  0
O  O408  1  0.22294842  0.82920694  0.54371161  1  -1.189704  0  -0.314265  -0.562657  0  2.238563  0
O  O409  1  0.33058336  0.11789940  0.46713315  1  -1.179166  0  -0.328632  -0.575996  0  2.278295  0
O  O410  1  0.54322583  0.26327524  0.45870484  1  -1.246233  0  -0.578207  -0.862264  0  2.189997  0
O  O411  1  0.22597621  0.93053148  0.38439911  1  -1.335781  0  -0.390136  -0.624225  0  2.07108  0
O  O412  1  0.39975826  0.88297310  0.43105283  1  -1.340375  0  -0.357757  -0.617013  0  2.183031  0
O  O413  1  0.17459611  0.84549268  0.43401261  1  -1.352064  0  -0.349927  -0.626759  0  2.259129  0
O  O414  1  0.94067011  0.29518346  0.46420244  1  -1.260845  0  -0.581122  -0.882083  0  2.312806  0
O  O415  1  0.74550838  0.25563713  0.53100461  1  -1.248791  0  -0.581251  -0.854511  0  2.327276  0
O  O416  1  0.71625843  0.36182806  0.46350027  1  -1.192393  0  -0.315569  -0.559917  0  2.330033  0
O  O417  1  0.50688078  0.64874140  0.46212012  1  -1.165606  0  -0.320746  -0.553397  0  2.366528  0
O  O418  1  0.72295637  0.67079251  0.45628765  1  -1.189488  0  -0.314236  -0.562673  0  2.238409  0
O  O419  1  0.83058135  0.38209980  0.53286334  1  -1.179153  0  -0.328764  -0.576173  0  2.278094  0
O  O420  1  0.04322388  0.23672202  0.54129510  1  -1.245967  0  -0.578214  -0.8624  0  2.189738  0
O  O421  1  0.72597399  0.56946451  0.61559540  1  -1.336209  0  -0.389996  -0.624104  0  2.071326  0
O  O422  1  0.89975750  0.61702725  0.56894369  1  -1.340422  0  -0.357764  -0.616944  0  2.183051  0
O  O423  1  0.67459401  0.65450558  0.56598497  1  -1.351947  0  -0.349908  -0.62673  0  2.259216  0
O  O424  1  0.44066492  0.20481652  0.96420002  1  -1.260785  0  -0.58109  -0.882067  0  2.312774  0
O  O425  1  0.24551078  0.24436166  0.03100301  1  -1.248896  0  -0.581256  -0.854569  0  2.327264  0
O  O426  1  0.21625204  0.13817069  0.96349699  1  -1.192527  0  -0.315612  -0.559921  0  2.329927  0
O  O427  1  0.00687392  0.85125869  0.96211945  1  -1.165578  0  -0.320773  -0.553477  0  2.366639  0
O  O428  1  0.22294487  0.82920535  0.95628511  1  -1.189419  0  -0.314247  -0.562658  0  2.238409  0
O  O429  1  0.33058323  0.11789967  0.03285931  1  -1.179284  0  -0.328771  -0.576167  0  2.278061  0
O  O430  1  0.54323139  0.26327597  0.04129235  1  -1.246311  0  -0.578196  -0.862312  0  2.189948  0
O  O431  1  0.22598991  0.93052808  0.11559306  1  -1.336043  0  -0.390173  -0.624226  0  2.071187  0
O  O432  1  0.39976712  0.88297001  0.06893689  1  -1.340582  0  -0.357727  -0.617016  0  2.183032  0
O  O433  1  0.17460406  0.84548959  0.06597956  1  -1.351949  0  -0.349907  -0.626809  0  2.259098  0
O  O434  1  0.94066601  0.29518373  0.03579904  1  -1.260771  0  -0.581108  -0.882081  0  2.312762  0
O  O435  1  0.74551530  0.25563773  0.96899666  1  -1.248824  0  -0.58127  -0.85457  0  2.327281  0
O  O436  1  0.71625139  0.36183266  0.03650241  1  -1.192332  0  -0.315523  -0.55983  0  2.33007  0
O  O437  1  0.50687175  0.64874297  0.03788084  1  -1.165809  0  -0.320774  -0.553512  0  2.366562  0
O  O438  1  0.72293939  0.67079756  0.04371524  1  -1.189461  0  -0.314233  -0.562694  0  2.238441  0
O  O439  1  0.83058049  0.38210169  0.96713937  1  -1.179438  0  -0.328728  -0.576112  0  2.278094  0
O  O440  1  0.04322810  0.23672302  0.95870868  1  -1.246294  0  -0.578208  -0.862281  0  2.190071  0
O  O441  1  0.72598277  0.56947266  0.88440655  1  -1.336109  0  -0.390164  -0.624219  0  2.071293  0
O  O442  1  0.89977015  0.61702861  0.93105744  1  -1.34064  0  -0.357788  -0.617034  0  2.183071  0
O  O443  1  0.67460464  0.65451256  0.93402094  1  -1.351983  0  -0.349949  -0.626845  0  2.259015  0
O  O444  1  0.55933566  0.79518475  0.46420242  1  -1.260777  0  -0.581134  -0.882118  0  2.312841  0
O  O445  1  0.75448757  0.75563540  0.53100582  1  -1.248776  0  -0.581261  -0.854504  0  2.327325  0
O  O446  1  0.78373877  0.86182885  0.46350174  1  -1.192323  0  -0.315598  -0.559944  0  2.330083  0
O  O447  1  0.99312083  0.14873912  0.46212071  1  -1.165497  0  -0.320725  -0.553311  0  2.366451  0
O  O448  1  0.77704903  0.17079245  0.45628817  1  -1.189715  0  -0.314239  -0.562626  0  2.23856  0
O  O449  1  0.66941605  0.88209912  0.53286627  1  -1.179254  0  -0.328634  -0.576045  0  2.278179  0
O  O450  1  0.45677065  0.73672544  0.54129349  1  -1.246272  0  -0.57823  -0.862324  0  2.189935  0
O  O451  1  0.77402809  0.06946748  0.61559812  1  -1.335825  0  -0.39001  -0.624118  0  2.071312  0
O  O452  1  0.60022942  0.11702197  0.56895023  1  -1.340425  0  -0.357852  -0.616994  0  2.182888  0
O  O453  1  0.82538961  0.15450714  0.56598462  1  -1.352373  0  -0.349797  -0.626599  0  2.259295  0
O  O454  1  0.05933321  0.70481550  0.53579771  1  -1.260777  0  -0.581125  -0.882125  0  2.312854  0
O  O455  1  0.25448908  0.74436485  0.46899480  1  -1.248786  0  -0.58126  -0.854485  0  2.327283  0
O  O456  1  0.28373902  0.63817133  0.53649660  1  -1.19243  0  -0.315608  -0.55988  0  2.330194  0
O  O457  1  0.49312156  0.35125842  0.53788112  1  -1.165588  0  -0.32071  -0.553394  0  2.36661  0
O  O458  1  0.27705086  0.32920429  0.54371323  1  -1.189494  0  -0.314262  -0.562675  0  2.238448  0
O  O459  1  0.16942784  0.61790088  0.46713316  1  -1.17918  0  -0.328612  -0.576067  0  2.278304  0
O  O460  1  0.95677162  0.76327564  0.45870578  1  -1.246204  0  -0.578189  -0.862249  0  2.189918  0
O  O461  1  0.27403324  0.43053401  0.38440438  1  -1.335887  0  -0.38998  -0.624048  0  2.071372  0
O  O462  1  0.10023604  0.38297732  0.43105062  1  -1.340441  0  -0.357803  -0.616906  0  2.183068  0
O  O463  1  0.32539073  0.34549165  0.43401554  1  -1.351929  0  -0.34982  -0.626626  0  2.25934  0
