# generated using pymatgen
data_Zn3H32C52(NO6)2
_symmetry_space_group_name_H-M   'P 1'
_cell_length_a   14.71581997
_cell_length_b   18.06942484
_cell_length_c   24.91583204
_cell_angle_alpha   90.00008856
_cell_angle_beta   90.05928601
_cell_angle_gamma   89.99995378
_symmetry_Int_Tables_number   1
_chemical_formula_structural   Zn3H32C52(NO6)2
_chemical_formula_sum   'Zn12 H128 C208 N8 O48'
_cell_volume   6625.27572284
_cell_formula_units_Z   4
loop_
 _symmetry_equiv_pos_site_id
 _symmetry_equiv_pos_as_xyz
  1  'x, y, z'
loop_
 _atom_site_type_symbol
 _atom_site_label
 _atom_site_symmetry_multiplicity
 _atom_site_fract_x
 _atom_site_fract_y
 _atom_site_fract_z
 _atom_site_occupancy
 _atom_site_pbe_bader_charge
 _atom_site_pbe_bader_spin_density
 _atom_site_pbe_cm5_charge
 _atom_site_pbe_ddec_charge
 _atom_site_pbe_ddec_spin_density
 _atom_site_pbe_ddec_sum_bond_order
 _atom_site_pbe_magmom
Zn  Zn0  1  0.53911355  0.06483843  0.85066441  1  1.273447  0  0.687333  0.840376  0  2.38187  0
Zn  Zn1  1  0.50640235  0.25618653  0.84892346  1  1.442302  0  0.70703  1.056392  0  2.287458  0
Zn  Zn2  1  0.46855606  0.44914067  0.84995896  1  1.273127  0  0.687342  0.842608  0  2.363301  0
Zn  Zn3  1  0.03911359  0.43516086  0.35066338  1  1.273538  0  0.68732  0.840401  0  2.381752  0
Zn  Zn4  1  0.00640327  0.24381333  0.34892301  1  1.442359  0  0.707052  1.056383  0  2.287281  0
Zn  Zn5  1  0.96855664  0.05085890  0.34995835  1  1.273123  0  0.687315  0.842518  0  2.363318  0
Zn  Zn6  1  0.96088681  0.56483850  0.64933646  1  1.273638  0  0.68738  0.840406  0  2.381754  0
Zn  Zn7  1  0.99359578  0.75618714  0.65107722  1  1.442322  0  0.706997  1.056379  0  2.287388  0
Zn  Zn8  1  0.03144240  0.94914047  0.65004109  1  1.272939  0  0.687357  0.842622  0  2.363274  0
Zn  Zn9  1  0.46088686  0.93516093  0.14933623  1  1.273461  0  0.687325  0.840406  0  2.381818  0
Zn  Zn10  1  0.49359737  0.74381283  0.15107678  1  1.442335  0  0.70701  1.056374  0  2.287415  0
Zn  Zn11  1  0.53144503  0.55086035  0.15004127  1  1.273147  0  0.6873  0.842513  0  2.363371  0
H  H12  1  0.48707824  0.94943503  0.92892161  1  0.122423  0  0.122949  0.098092  0  1.007469  0
H  H13  1  0.46507463  0.81205436  0.93128383  1  0.085948  0  0.113895  0.121213  0  1.007684  0
H  H14  1  0.55777167  0.80611041  0.76641333  1  0.105066  0  0.113447  0.121504  0  1.006193  0
H  H15  1  0.57625917  0.94331732  0.77146893  1  0.122428  0  0.13118  0.101522  0  0.957492  0
H  H16  1  0.52542067  0.56386990  0.92701202  1  0.129856  0  0.122564  0.097792  0  1.006663  0
H  H17  1  0.54828190  0.70118694  0.92978458  1  0.090074  0  0.112809  0.120143  0  1.011005  0
H  H18  1  0.44167062  0.70972055  0.76788912  1  0.113271  0  0.110966  0.117633  0  1.024054  0
H  H19  1  0.42486148  0.57218658  0.77202302  1  0.090624  0  0.127325  0.097099  0  0.967704  0
H  H20  1  0.83024595  0.08701277  0.81692853  1  0.103373  0  0.10304  0.108109  0  1.019152  0
H  H21  1  0.98757473  0.13447964  0.81032144  1  0.019831  0  0.095409  0.089248  0  1.038303  0
H  H22  1  0.90185778  0.33891127  0.88452509  1  0.063034  0  0.103074  0.103592  0  1.006693  0
H  H23  1  0.74411415  0.29139791  0.88818332  1  0.117816  0  0.108496  0.119062  0  0.997269  0
H  H24  1  0.01197188  0.38533635  0.84657484  1  0.0329  0  0.10081  0.099061  0  1.011649  0
H  H25  1  0.16864447  0.43323434  0.84535246  1  0.081738  0  0.102095  0.105194  0  1.028139  0
H  H26  1  0.27283034  0.21177898  0.83423971  1  0.138304  0  0.108423  0.122582  0  1.002875  0
H  H27  1  0.11612086  0.16191802  0.84029314  1  0.030516  0  0.100834  0.100713  0  1.007337  0
H  H28  1  0.37786848  0.01964627  0.98670078  1  0.082165  0  0.102685  0.105126  0  1.006757  0
H  H29  1  0.28713191  0.02016996  0.07036248  1  0.087184  0  0.102709  0.106647  0  1.011124  0
H  H30  1  0.25685270  0.25696720  0.05751697  1  0.085045  0  0.101726  0.102324  0  1.00217  0
H  H31  1  0.34773928  0.25510533  0.97280338  1  0.103213  0  0.107806  0.119277  0  0.990715  0
H  H32  1  0.15298671  0.03060535  0.10539496  1  0.055854  0  0.101931  0.101843  0  1.00684  0
H  H33  1  0.07400561  0.02401755  0.19331008  1  0.07723  0  0.101142  0.104317  0  1.014011  0
H  H34  1  0.17987393  0.23687547  0.23653748  1  0.076732  0  0.10759  0.118017  0  0.993597  0
H  H35  1  0.26126763  0.24428344  0.14889688  1  0.051209  0  0.097014  0.095668  0  1.014787  0
H  H36  1  0.33567888  0.03874845  0.73402535  1  0.077944  0  0.103039  0.109458  0  1.00141  0
H  H37  1  0.23533492  0.03834606  0.65414128  1  0.088663  0  0.096759  0.099602  0  1.062046  0
H  H38  1  0.34885296  0.24829344  0.60523781  1  0.041081  0  0.101099  0.100783  0  1.005532  0
H  H39  1  0.44438042  0.24961395  0.68775918  1  0.103807  0  0.107835  0.115793  0  0.993047  0
H  H40  1  0.22676958  0.02012624  0.57149659  1  0.049939  0  0.103835  0.111007  0  1.012252  0
H  H41  1  0.12758144  0.01357424  0.49152018  1  0.057811  0  0.103648  0.107651  0  1.001592  0
H  H42  1  0.11768681  0.25051315  0.48340693  1  0.102197  0  0.106141  0.118307  0  0.999882  0
H  H43  1  0.21696836  0.25875088  0.56462355  1  0.039727  0  0.099592  0.09796  0  1.010336  0
H  H44  1  0.98707882  0.55056608  0.42892100  1  0.122326  0  0.122962  0.098084  0  1.007518  0
H  H45  1  0.96507576  0.68794567  0.43128377  1  0.085968  0  0.113843  0.121103  0  1.007705  0
H  H46  1  0.05777127  0.69388843  0.26641282  1  0.105101  0  0.113429  0.121492  0  1.006295  0
H  H47  1  0.07625959  0.55668207  0.27146827  1  0.122389  0  0.131216  0.1016  0  0.95749  0
H  H48  1  0.02542139  0.93613096  0.42701219  1  0.12987  0  0.122589  0.0978  0  1.006664  0
H  H49  1  0.04828140  0.79881336  0.42978419  1  0.090069  0  0.112821  0.120142  0  1.011025  0
H  H50  1  0.94166893  0.79027859  0.26788837  1  0.112915  0  0.111006  0.117707  0  1.024023  0
H  H51  1  0.92485966  0.92781314  0.27202282  1  0.090606  0  0.127311  0.097084  0  0.967705  0
H  H52  1  0.33024398  0.41298736  0.31692948  1  0.103359  0  0.103058  0.108121  0  1.019097  0
H  H53  1  0.48757281  0.36552149  0.31032153  1  0.019838  0  0.095376  0.089236  0  1.038339  0
H  H54  1  0.40185945  0.16109008  0.38452455  1  0.062974  0  0.10308  0.103599  0  1.006668  0
H  H55  1  0.24411578  0.20860244  0.38818323  1  0.117801  0  0.108522  0.119097  0  0.997244  0
H  H56  1  0.51197172  0.11466406  0.34657430  1  0.032807  0  0.100788  0.099018  0  1.01172  0
H  H57  1  0.66864368  0.06676542  0.34535146  1  0.081745  0  0.102096  0.105197  0  1.028102  0
H  H58  1  0.77283069  0.28821957  0.33423856  1  0.138109  0  0.108431  0.122522  0  1.002963  0
H  H59  1  0.61612252  0.33808120  0.34029245  1  0.030529  0  0.100809  0.100689  0  1.007387  0
H  H60  1  0.87786660  0.48035420  0.48670065  1  0.082159  0  0.102667  0.105092  0  1.006816  0
H  H61  1  0.78713146  0.47983134  0.57036318  1  0.087156  0  0.102699  0.106613  0  1.011135  0
H  H62  1  0.75685248  0.24303354  0.55751700  1  0.085059  0  0.101735  0.102323  0  1.002158  0
H  H63  1  0.84773831  0.24489568  0.47280298  1  0.103217  0  0.107786  0.11925  0  0.990796  0
H  H64  1  0.65298695  0.46939335  0.60539564  1  0.055934  0  0.101934  0.101882  0  1.006798  0
H  H65  1  0.57400583  0.47598084  0.69331037  1  0.077243  0  0.101165  0.104374  0  1.014015  0
H  H66  1  0.67987573  0.26312349  0.73653754  1  0.076714  0  0.107597  0.117986  0  0.993592  0
H  H67  1  0.76127012  0.25571528  0.64889692  1  0.051187  0  0.097049  0.095745  0  1.014706  0
H  H68  1  0.83567770  0.46125151  0.23402479  1  0.077963  0  0.103048  0.109466  0  1.001389  0
H  H69  1  0.73533374  0.46165380  0.15414112  1  0.088643  0  0.096796  0.099607  0  1.062034  0
H  H70  1  0.84885267  0.25170569  0.10523782  1  0.041059  0  0.101107  0.100811  0  1.005487  0
H  H71  1  0.94438013  0.25038528  0.18775959  1  0.103813  0  0.107866  0.115848  0  0.992977  0
H  H72  1  0.72676974  0.47987344  0.07149645  1  0.049943  0  0.103828  0.111043  0  1.012285  0
H  H73  1  0.62758166  0.48642530  0.99152008  1  0.057799  0  0.103648  0.107679  0  1.001574  0
H  H74  1  0.61768590  0.24948693  0.98340657  1  0.102191  0  0.106125  0.118281  0  0.999876  0
H  H75  1  0.71696740  0.24124990  0.06462355  1  0.03973  0  0.099597  0.097962  0  1.010355  0
H  H76  1  0.01292023  0.44943494  0.57107884  1  0.122429  0  0.122948  0.098059  0  1.00755  0
H  H77  1  0.03492601  0.31205591  0.56871688  1  0.085983  0  0.11387  0.12113  0  1.007745  0
H  H78  1  0.94222845  0.30611204  0.73358742  1  0.105078  0  0.113425  0.121472  0  1.006308  0
H  H79  1  0.92374014  0.44331840  0.72853157  1  0.122383  0  0.13122  0.101592  0  0.957534  0
H  H80  1  0.97457833  0.06386951  0.57298805  1  0.12987  0  0.122589  0.097775  0  1.006646  0
H  H81  1  0.95171764  0.20118766  0.57021564  1  0.090064  0  0.112825  0.120125  0  1.011014  0
H  H82  1  0.05832808  0.20972133  0.73211186  1  0.113788  0  0.110995  0.117662  0  1.024034  0
H  H83  1  0.07513735  0.07218733  0.72797782  1  0.090618  0  0.127316  0.0971  0  0.96766  0
H  H84  1  0.66975507  0.58701255  0.68307116  1  0.103369  0  0.103045  0.1081  0  1.019136  0
H  H85  1  0.51242624  0.63448064  0.68967871  1  0.019853  0  0.095425  0.08926  0  1.038324  0
H  H86  1  0.59814163  0.83891150  0.61547529  1  0.063036  0  0.10308  0.103608  0  1.006671  0
H  H87  1  0.75588531  0.79139748  0.61181660  1  0.117826  0  0.108516  0.119099  0  0.997259  0
H  H88  1  0.48802868  0.88533641  0.65342514  1  0.032889  0  0.10082  0.09908  0  1.011676  0
H  H89  1  0.33135605  0.93323450  0.65464797  1  0.081741  0  0.102078  0.105176  0  1.028163  0
H  H90  1  0.22717107  0.71177924  0.66576008  1  0.138182  0  0.108424  0.122578  0  1.002927  0
H  H91  1  0.38387924  0.66191816  0.65970659  1  0.030511  0  0.100835  0.100693  0  1.007344  0
H  H92  1  0.12213244  0.51964737  0.51329919  1  0.082195  0  0.102664  0.105101  0  1.006762  0
H  H93  1  0.21286759  0.52016968  0.42963706  1  0.087207  0  0.102732  0.106655  0  1.011099  0
H  H94  1  0.24314657  0.75696693  0.44248244  1  0.085102  0  0.10172  0.102319  0  1.002174  0
H  H95  1  0.15226141  0.75510534  0.52719726  1  0.103193  0  0.107794  0.119243  0  0.990747  0
H  H96  1  0.34701210  0.53060657  0.39460500  1  0.055883  0  0.101947  0.101847  0  1.006825  0
H  H97  1  0.42599321  0.52401797  0.30669027  1  0.077242  0  0.101156  0.104342  0  1.013999  0
H  H98  1  0.32012468  0.73687532  0.26346270  1  0.076731  0  0.107599  0.117988  0  0.993619  0
H  H99  1  0.23872961  0.74428464  0.35110331  1  0.051158  0  0.097046  0.095736  0  1.014711  0
H  H100  1  0.16431999  0.53874674  0.76597585  1  0.077909  0  0.103029  0.109415  0  1.00144  0
H  H101  1  0.26466735  0.53834612  0.84585832  1  0.08863  0  0.096794  0.099633  0  1.062016  0
H  H102  1  0.15114638  0.74829367  0.89476242  1  0.041059  0  0.10108  0.100786  0  1.005526  0
H  H103  1  0.05561824  0.74961353  0.81224105  1  0.1037  0  0.10786  0.115829  0  0.992988  0
H  H104  1  0.27323135  0.52012813  0.92850419  1  0.049977  0  0.103829  0.111059  0  1.012285  0
H  H105  1  0.37241943  0.51357572  0.00847975  1  0.057802  0  0.103655  0.107655  0  1.001583  0
H  H106  1  0.38231382  0.75051354  0.01659367  1  0.102163  0  0.106137  0.11829  0  0.999872  0
H  H107  1  0.28303165  0.75875112  0.93537669  1  0.039715  0  0.099586  0.097946  0  1.010353  0
H  H108  1  0.51292217  0.05056488  0.07107943  1  0.122415  0  0.122963  0.098084  0  1.007498  0
H  H109  1  0.53492510  0.18794445  0.06871722  1  0.085988  0  0.113853  0.121107  0  1.007763  0
H  H110  1  0.44222806  0.19388840  0.23358772  1  0.105086  0  0.113449  0.121532  0  1.006189  0
H  H111  1  0.42373988  0.05668149  0.22853212  1  0.122386  0  0.131157  0.101481  0  0.957498  0
H  H112  1  0.47457906  0.43613113  0.07298741  1  0.129854  0  0.12259  0.097823  0  1.006642  0
H  H113  1  0.45171782  0.29881409  0.07021526  1  0.090057  0  0.11281  0.120137  0  1.01106  0
H  H114  1  0.55833047  0.29027936  0.23211112  1  0.112927  0  0.110984  0.117626  0  1.024075  0
H  H115  1  0.57514028  0.42781279  0.22797722  1  0.09061  0  0.127316  0.097086  0  0.967713  0
H  H116  1  0.16975581  0.91298659  0.18307171  1  0.103363  0  0.103062  0.108117  0  1.019104  0
H  H117  1  0.01242635  0.86552194  0.18967880  1  0.019841  0  0.0954  0.089242  0  1.038292  0
H  H118  1  0.09814127  0.66108976  0.11547515  1  0.062977  0  0.103057  0.103552  0  1.006635  0
H  H119  1  0.25588490  0.70860200  0.11181732  1  0.117822  0  0.108492  0.119052  0  0.997281  0
H  H120  1  0.98802921  0.61466412  0.15342620  1  0.032912  0  0.100807  0.099075  0  1.011685  0
H  H121  1  0.83135594  0.56676724  0.15464738  1  0.081676  0  0.102097  0.105234  0  1.028185  0
H  H122  1  0.72717006  0.78822204  0.16575933  1  0.138298  0  0.108418  0.122571  0  1.002898  0
H  H123  1  0.88387886  0.83808245  0.15970670  1  0.030526  0  0.100823  0.100708  0  1.007361  0
H  H124  1  0.62213124  0.98035310  0.01329906  1  0.082186  0  0.102664  0.105076  0  1.006765  0
H  H125  1  0.71286713  0.97982940  0.92963776  1  0.087202  0  0.102726  0.106636  0  1.011133  0
H  H126  1  0.74314703  0.74303326  0.94248287  1  0.085061  0  0.101739  0.102352  0  1.00216  0
H  H127  1  0.65226045  0.74489458  0.02719646  1  0.103197  0  0.107789  0.119249  0  0.990761  0
H  H128  1  0.84701301  0.96939290  0.89460448  1  0.055901  0  0.101937  0.101868  0  1.006836  0
H  H129  1  0.92599344  0.97598181  0.80668976  1  0.077262  0  0.101162  0.104368  0  1.013984  0
H  H130  1  0.82012443  0.76312389  0.76346155  1  0.076702  0  0.107597  0.118  0  0.993604  0
H  H131  1  0.73873074  0.75571537  0.85110256  1  0.051234  0  0.097001  0.0957  0  1.014705  0
H  H132  1  0.66432152  0.96125147  0.26597489  1  0.077973  0  0.103017  0.109428  0  1.001434  0
H  H133  1  0.76466549  0.96165331  0.34585816  1  0.088645  0  0.096777  0.099616  0  1.062111  0
H  H134  1  0.65114744  0.75170593  0.39476203  1  0.04108  0  0.101105  0.100825  0  1.005493  0
H  H135  1  0.55561998  0.75038541  0.31224026  1  0.103815  0  0.107868  0.115846  0  0.992977  0
H  H136  1  0.77323083  0.97987312  0.42850365  1  0.049943  0  0.103822  0.11101  0  1.012325  0
H  H137  1  0.87241829  0.98642512  0.50848006  1  0.057802  0  0.103649  0.107688  0  1.001585  0
H  H138  1  0.88231427  0.74948676  0.51659371  1  0.102103  0  0.106156  0.118302  0  0.999865  0
H  H139  1  0.78303272  0.74124959  0.43537669  1  0.03973  0  0.099591  0.097941  0  1.010392  0
C  C140  1  0.50210016  0.91496129  0.89417838  1  0.49864  0  0.05654  0.103113  0  3.937019  0
C  C141  1  0.49013961  0.83885538  0.89504169  1  0.01088  0  -0.073395  -0.163254  0  3.929915  0
C  C142  1  0.50931104  0.79769187  0.84872726  1  -0.038641  0  0.01945  0.108894  0  3.973749  0
C  C143  1  0.54047084  0.83559009  0.80318825  1  -0.052628  0  -0.07168  -0.163262  0  3.922866  0
C  C144  1  0.55162146  0.91180834  0.80581762  1  0.487479  0  0.063074  0.111956  0  3.924739  0
C  C145  1  0.50792232  0.59886489  0.89295761  1  0.492094  0  0.05655  0.1065  0  3.927591  0
C  C146  1  0.52027518  0.67493427  0.89405342  1  0.021386  0  -0.074375  -0.165989  0  3.936043  0
C  C147  1  0.49738982  0.71679389  0.84863658  1  -0.033596  0  0.018585  0.109292  0  3.974859  0
C  C148  1  0.46238602  0.67960120  0.80377356  1  0.029785  0  -0.074061  -0.164325  0  3.924308  0
C  C149  1  0.45185767  0.60330990  0.80598348  1  0.45657  0  0.058394  0.104186  0  3.939769  0
C  C150  1  0.68267233  0.15834884  0.85791064  1  1.54635  0  0.213426  0.591256  0  4.179245  0
C  C151  1  0.77767660  0.18619861  0.85330772  1  -0.003204  0  -0.019417  -0.037724  0  3.973744  0
C  C152  1  0.84688049  0.14227741  0.83142767  1  -0.061528  0  -0.086139  -0.087824  0  3.982435  0
C  C153  1  0.93513857  0.16935848  0.82803419  1  -0.038971  0  -0.097556  -0.147728  0  4.005279  0
C  C154  1  0.95738668  0.24080903  0.84663299  1  -0.042189  0  -0.008373  0.064229  0  4.008742  0
C  C155  1  0.88689302  0.28413032  0.86852224  1  -0.060586  0  -0.091239  -0.135929  0  3.979059  0
C  C156  1  0.79845861  0.25760156  0.87149906  1  -0.00433  0  -0.077794  -0.071498  0  3.961707  0
C  C157  1  0.05126528  0.26966414  0.84350019  1  -0.044678  0  -0.008917  0.059768  0  4.014614  0
C  C158  1  0.06845657  0.34637881  0.84472483  1  0.037533  0  -0.093824  -0.138563  0  3.994939  0
C  C159  1  0.15667896  0.37382071  0.84343884  1  -0.099893  0  -0.085154  -0.088512  0  3.985128  0
C  C160  1  0.23064294  0.32538306  0.83920617  1  0.027104  0  -0.017911  -0.033564  0  3.966912  0
C  C161  1  0.21471260  0.24895783  0.83678913  1  -0.043875  0  -0.078486  -0.075291  0  3.953392  0
C  C162  1  0.12651999  0.22165816  0.83962435  1  -0.037436  0  -0.093099  -0.138945  0  3.987587  0
C  C163  1  0.32623562  0.35299542  0.83790255  1  1.529447  0  0.216632  0.597503  0  4.16965  0
C  C164  1  0.42471598  0.13633391  0.92489662  1  1.543765  0  0.217811  0.600879  0  4.16921  0
C  C165  1  0.36860422  0.13743473  0.97481096  1  -0.03742  0  -0.021136  -0.039856  0  3.979555  0
C  C166  1  0.35032067  0.07136630  0.00217539  1  -0.060858  0  -0.087003  -0.094266  0  4.007084  0
C  C167  1  0.29879523  0.07184065  0.04882023  1  -0.013476  0  -0.092491  -0.138371  0  3.987364  0
C  C168  1  0.26527559  0.13862532  0.07012694  1  -0.06692  0  -0.00507  0.074152  0  3.994706  0
C  C169  1  0.28383460  0.20477902  0.04230543  1  -0.105336  0  -0.092876  -0.142937  0  3.98931  0
C  C170  1  0.33401742  0.20421608  0.99491647  1  0.014946  0  -0.083087  -0.089306  0  3.975715  0
C  C171  1  0.21397709  0.13754677  0.12098042  1  -0.035826  0  -0.006253  0.071595  0  3.99692  0
C  C172  1  0.16019181  0.07573631  0.13411967  1  -0.062276  0  -0.091579  -0.133489  0  3.987756  0
C  C173  1  0.11564575  0.07178772  0.18307098  1  0.001535  0  -0.08596  -0.089245  0  3.997505  0
C  C174  1  0.12357949  0.12935849  0.22048359  1  -0.01778  0  -0.019398  -0.038526  0  3.970147  0
C  C175  1  0.17515700  0.19203505  0.20741987  1  -0.048355  0  -0.08025  -0.078334  0  3.965369  0
C  C176  1  0.21954858  0.19603511  0.15818917  1  -0.008576  0  -0.094676  -0.142612  0  3.993491  0
C  C177  1  0.07789119  0.12328975  0.27376349  1  1.569166  0  0.217696  0.604456  0  4.164763  0
C  C178  1  0.45721458  0.14200297  0.76348310  1  1.575312  0  0.217052  0.598092  0  4.180145  0
C  C179  1  0.39664590  0.14380211  0.71542170  1  -0.08543  0  -0.019642  -0.035091  0  3.969948  0
C  C180  1  0.33737190  0.08455618  0.70561067  1  -0.001693  0  -0.088898  -0.093252  0  3.995043  0
C  C181  1  0.28186754  0.08447591  0.66057031  1  -0.061256  0  -0.098603  -0.149301  0  3.998755  0
C  C182  1  0.28521291  0.14307264  0.62334411  1  -0.046583  0  -0.007429  0.070245  0  4.002578  0
C  C183  1  0.34402880  0.20280060  0.63387260  1  -0.036638  0  -0.09211  -0.137883  0  3.982186  0
C  C184  1  0.39853682  0.20356324  0.67959614  1  0.014665  0  -0.078767  -0.076415  0  3.964618  0
C  C185  1  0.22839066  0.14009354  0.57458037  1  -0.022032  0  -0.004602  0.074313  0  3.990824  0
C  C186  1  0.20277363  0.07113560  0.55289728  1  0.015185  0  -0.089781  -0.131214  0  3.966025  0
C  C187  1  0.14714093  0.06710888  0.50796283  1  -0.052584  0  -0.085999  -0.09058  0  4.001265  0
C  C188  1  0.11482332  0.13175398  0.48344726  1  -0.04093  0  -0.023352  -0.047322  0  3.988484  0
C  C189  1  0.14158771  0.20075453  0.50380507  1  -0.007278  0  -0.084889  -0.092997  0  3.98924  0
C  C190  1  0.19781290  0.20473531  0.54865302  1  -0.068178  0  -0.093814  -0.141156  0  3.992003  0
C  C191  1  0.05230786  0.12779699  0.43635808  1  1.566549  0  0.214694  0.595429  0  4.18985  0
C  C192  1  0.00209987  0.58503896  0.39417895  1  0.49869  0  0.056566  0.103214  0  3.937109  0
C  C193  1  0.99014009  0.66114344  0.39504120  1  0.010882  0  -0.073384  -0.163191  0  3.930022  0
C  C194  1  0.00931064  0.70230773  0.34872677  1  -0.038613  0  0.019469  0.108894  0  3.973733  0
C  C195  1  0.04047047  0.66440884  0.30318811  1  -0.052649  0  -0.071687  -0.163288  0  3.923047  0
C  C196  1  0.05162253  0.58819114  0.30581660  1  0.487439  0  0.063009  0.111848  0  3.924826  0
C  C197  1  0.00792240  0.90113369  0.39295694  1  0.492155  0  0.056541  0.106481  0  3.9277  0
C  C198  1  0.02027533  0.82506320  0.39405346  1  0.021349  0  -0.074421  -0.166059  0  3.936239  0
C  C199  1  0.99738882  0.78320760  0.34863582  1  -0.033721  0  0.018608  0.109415  0  3.974911  0
C  C200  1  0.96238498  0.82039801  0.30377325  1  0.030186  0  -0.074109  -0.164476  0  3.924393  0
C  C201  1  0.95185723  0.89668987  0.30598285  1  0.456572  0  0.058394  0.104224  0  3.939778  0
C  C202  1  0.18267111  0.34165093  0.35791352  1  1.546326  0  0.213413  0.591252  0  4.17926  0
C  C203  1  0.27767812  0.31380385  0.35330815  1  -0.003129  0  -0.019424  -0.037735  0  3.973618  0
C  C204  1  0.34687858  0.35772386  0.33142815  1  -0.06158  0  -0.086141  -0.087804  0  3.982328  0
C  C205  1  0.43513871  0.33064272  0.32803424  1  -0.038969  0  -0.097532  -0.147716  0  4.005109  0
C  C206  1  0.45738622  0.25919109  0.34663256  1  -0.042159  0  -0.008403  0.064199  0  4.008587  0
C  C207  1  0.38689328  0.21587100  0.36852297  1  -0.060517  0  -0.091206  -0.135909  0  3.979039  0
C  C208  1  0.29845953  0.24239816  0.37150062  1  -0.004282  0  -0.077836  -0.071534  0  3.961568  0
C  C209  1  0.55126569  0.23033624  0.34349817  1  -0.043405  0  -0.008919  0.059705  0  4.014687  0
C  C210  1  0.56845570  0.15362156  0.34472313  1  0.037618  0  -0.093787  -0.138472  0  3.995005  0
C  C211  1  0.65667879  0.12617960  0.34343750  1  -0.099758  0  -0.085206  -0.088589  0  3.985139  0
C  C212  1  0.73064068  0.17461553  0.33920328  1  0.026976  0  -0.017892  -0.033438  0  3.966934  0
C  C213  1  0.71471094  0.25104132  0.33678673  1  -0.043639  0  -0.078515  -0.075259  0  3.953404  0
C  C214  1  0.62652035  0.27834106  0.33962199  1  -0.038781  0  -0.093063  -0.138916  0  3.987676  0
C  C215  1  0.82623610  0.14700421  0.33790083  1  1.52942  0  0.216689  0.597441  0  4.16969  0
C  C216  1  0.92471557  0.36366474  0.42489515  1  1.543813  0  0.218009  0.600995  0  4.168985  0
C  C217  1  0.86860313  0.36256682  0.47481149  1  -0.03741  0  -0.021179  -0.039986  0  3.979827  0
C  C218  1  0.85032027  0.42863426  0.50217442  1  -0.060847  0  -0.087005  -0.094207  0  4.007338  0
C  C219  1  0.79879618  0.42815950  0.54882047  1  -0.013491  0  -0.09247  -0.138322  0  3.987244  0
C  C220  1  0.76527729  0.36137434  0.57012750  1  -0.066897  0  -0.005116  0.074082  0  3.994708  0
C  C221  1  0.78383500  0.29522112  0.54230512  1  -0.105334  0  -0.092845  -0.142818  0  3.989283  0
C  C222  1  0.83401640  0.29578388  0.49491573  1  0.014933  0  -0.083118  -0.089367  0  3.975842  0
C  C223  1  0.71397811  0.36245413  0.62098139  1  -0.035808  0  -0.006235  0.071626  0  3.996946  0
C  C224  1  0.66019141  0.42426355  0.63412111  1  -0.06261  0  -0.09157  -0.133514  0  3.987807  0
C  C225  1  0.61564534  0.42821172  0.68307162  1  0.001634  0  -0.086005  -0.08935  0  3.997541  0
C  C226  1  0.62357914  0.37064103  0.72048457  1  -0.01779  0  -0.019421  -0.038579  0  3.970087  0
C  C227  1  0.67515807  0.30796440  0.70741997  1  -0.048575  0  -0.080215  -0.078161  0  3.965299  0
C  C228  1  0.71954966  0.30396421  0.65819007  1  -0.008393  0  -0.094708  -0.142747  0  3.993499  0
C  C229  1  0.57789015  0.37670936  0.77376407  1  1.569395  0  0.21767  0.604432  0  4.164768  0
C  C230  1  0.95721282  0.35799531  0.26348323  1  1.575568  0  0.21708  0.598164  0  4.180147  0
C  C231  1  0.89664278  0.35619832  0.21542102  1  -0.085543  0  -0.019663  -0.035236  0  3.970207  0
C  C232  1  0.83737280  0.41544261  0.20561126  1  -0.001718  0  -0.088902  -0.093198  0  3.995027  0
C  C233  1  0.78186708  0.41552504  0.16056930  1  -0.061137  0  -0.098621  -0.149309  0  3.99862  0
C  C234  1  0.78521116  0.35692822  0.12334343  1  -0.046643  0  -0.007392  0.0703  0  4.002609  0
C  C235  1  0.84402643  0.29719914  0.13387186  1  -0.03654  0  -0.092156  -0.137957  0  3.982206  0
C  C236  1  0.89853444  0.29643490  0.17959539  1  0.014603  0  -0.078831  -0.07648  0  3.964624  0
C  C237  1  0.72838958  0.35990615  0.07458010  1  -0.021954  0  -0.004518  0.074454  0  3.990816  0
C  C238  1  0.70277180  0.42886572  0.05289668  1  0.015178  0  -0.089795  -0.131307  0  3.966125  0
C  C239  1  0.64714045  0.43289183  0.00796304  1  -0.052618  0  -0.085992  -0.090606  0  4.001292  0
C  C240  1  0.61482365  0.36824555  0.98344743  1  -0.04087  0  -0.023327  -0.047315  0  3.988492  0
C  C241  1  0.64158737  0.29924507  0.00380553  1  -0.007298  0  -0.084885  -0.09297  0  3.989229  0
C  C242  1  0.69781121  0.29526379  0.04865308  1  -0.068213  0  -0.093836  -0.141189  0  3.992032  0
C  C243  1  0.55230547  0.37220303  0.93635866  1  1.565715  0  0.214753  0.595646  0  4.189808  0
C  C244  1  0.99790121  0.41496206  0.60582169  1  0.498595  0  0.056566  0.103184  0  3.937178  0
C  C245  1  0.00986304  0.33885703  0.60495904  1  0.010877  0  -0.073425  -0.163251  0  3.930079  0
C  C246  1  0.99069113  0.29769274  0.65127347  1  -0.038625  0  0.019448  0.108934  0  3.973836  0
C  C247  1  0.95953061  0.33559218  0.69681213  1  -0.052588  0  -0.071678  -0.163308  0  3.923179  0
C  C248  1  0.94837856  0.41180988  0.69418364  1  0.487437  0  0.063039  0.111913  0  3.924927  0
C  C249  1  0.99207461  0.09886733  0.60704250  1  0.492118  0  0.05653  0.106566  0  3.927649  0
C  C250  1  0.97972235  0.17493561  0.60594717  1  0.02135  0  -0.074389  -0.165965  0  3.936162  0
C  C251  1  0.00260955  0.21679343  0.65136401  1  -0.033592  0  0.018613  0.109318  0  3.974886  0
C  C252  1  0.03761203  0.17960191  0.69622780  1  0.029212  0  -0.074092  -0.164356  0  3.924321  0
C  C253  1  0.04813910  0.10331004  0.69401779  1  0.456527  0  0.05843  0.104238  0  3.939732  0
C  C254  1  0.81732658  0.65834788  0.64208873  1  1.546273  0  0.213387  0.591247  0  4.179285  0
C  C255  1  0.72232364  0.68619772  0.64669129  1  -0.003166  0  -0.019415  -0.037727  0  3.97362  0
C  C256  1  0.65311911  0.64227717  0.66857209  1  -0.061517  0  -0.086139  -0.087793  0  3.982369  0
C  C257  1  0.56486101  0.66935830  0.67196520  1  -0.039003  0  -0.097575  -0.147733  0  4.005335  0
C  C258  1  0.54261351  0.74080882  0.65336688  1  -0.042184  0  -0.008386  0.064213  0  4.008804  0
C  C259  1  0.61310712  0.78413002  0.63147727  1  -0.06058  0  -0.091212  -0.135919  0  3.978965  0
C  C260  1  0.70154156  0.75760120  0.62850042  1  -0.004323  0  -0.077829  -0.071549  0  3.96167  0
C  C261  1  0.44873540  0.76966312  0.65649966  1  -0.044706  0  -0.008946  0.059679  0  4.014725  0
C  C262  1  0.43154403  0.84637891  0.65527470  1  0.03778  0  -0.093806  -0.138552  0  3.994912  0
C  C263  1  0.34332025  0.87382032  0.65656113  1  -0.100094  0  -0.085176  -0.088549  0  3.985196  0
C  C264  1  0.26935700  0.82538273  0.66079414  1  0.027096  0  -0.017908  -0.033508  0  3.966926  0
C  C265  1  0.28528878  0.74895804  0.66321070  1  -0.043723  0  -0.07853  -0.075428  0  3.953565  0
C  C266  1  0.37348073  0.72165830  0.66037544  1  -0.037452  0  -0.093053  -0.138779  0  3.987574  0
C  C267  1  0.17376430  0.85299625  0.66209700  1  1.529468  0  0.216714  0.597622  0  4.16957  0
C  C268  1  0.07528619  0.63633407  0.57510348  1  1.543625  0  0.217815  0.600795  0  4.169251  0
C  C269  1  0.13139659  0.63743475  0.52518834  1  -0.037406  0  -0.02118  -0.039975  0  3.979689  0
C  C270  1  0.14967878  0.57136620  0.49782421  1  -0.060844  0  -0.086988  -0.094195  0  4.007138  0
C  C271  1  0.20120287  0.57184097  0.45117937  1  -0.013529  0  -0.092474  -0.138341  0  3.987359  0
C  C272  1  0.23472311  0.63862613  0.42987314  1  -0.066981  0  -0.00508  0.074138  0  3.994743  0
C  C273  1  0.21616404  0.70477935  0.45769392  1  -0.105367  0  -0.092829  -0.142859  0  3.989333  0
C  C274  1  0.16598265  0.70421714  0.50508371  1  0.014936  0  -0.083114  -0.089294  0  3.975748  0
C  C275  1  0.28602161  0.63754578  0.37901885  1  -0.035792  0  -0.006246  0.071563  0  3.996911  0
C  C276  1  0.33980831  0.57573637  0.36587953  1  -0.062586  0  -0.09156  -0.133411  0  3.987722  0
C  C277  1  0.38435371  0.57178764  0.31692862  1  0.001628  0  -0.085999  -0.089313  0  3.997548  0
C  C278  1  0.37641991  0.62935834  0.27951607  1  -0.017803  0  -0.01942  -0.038622  0  3.970231  0
C  C279  1  0.32484166  0.69203496  0.29257987  1  -0.048378  0  -0.080222  -0.078161  0  3.965381  0
C  C280  1  0.28045006  0.69603571  0.34181017  1  -0.00855  0  -0.094696  -0.142713  0  3.993476  0
C  C281  1  0.42210957  0.62329000  0.22623657  1  1.569394  0  0.217725  0.604498  0  4.164647  0
C  C282  1  0.04278419  0.64200128  0.73651982  1  1.575262  0  0.217029  0.598076  0  4.180356  0
C  C283  1  0.10335490  0.64380104  0.78457962  1  -0.085274  0  -0.019646  -0.035241  0  3.970338  0
C  C284  1  0.16262829  0.58455509  0.79438938  1  -0.001678  0  -0.088837  -0.093037  0  3.994972  0
C  C285  1  0.21813400  0.58447488  0.83943014  1  -0.061281  0  -0.098664  -0.149455  0  3.998807  0
C  C286  1  0.21479061  0.64307280  0.87665440  1  -0.046321  0  -0.007383  0.070328  0  4.002617  0
C  C287  1  0.15597194  0.70280133  0.86612838  1  -0.036663  0  -0.092111  -0.13793  0  3.982212  0
C  C288  1  0.10146460  0.70356280  0.82040525  1  0.014846  0  -0.0788  -0.076414  0  3.964661  0
C  C289  1  0.27161015  0.64009432  0.92541933  1  -0.02224  0  -0.00454  0.074443  0  3.990669  0
C  C290  1  0.29722793  0.57113586  0.94710315  1  0.015202  0  -0.089819  -0.131433  0  3.966069  0
C  C291  1  0.35285995  0.56710809  0.99203760  1  -0.052617  0  -0.085936  -0.090415  0  4.001122  0
C  C292  1  0.38517743  0.63175437  0.01655241  1  -0.040855  0  -0.023366  -0.04734  0  3.988505  0
C  C293  1  0.35841304  0.70075540  0.99619511  1  -0.007315  0  -0.084896  -0.093012  0  3.989299  0
C  C294  1  0.30218920  0.70473668  0.95134756  1  -0.068184  0  -0.093857  -0.141181  0  3.991953  0
C  C295  1  0.44769630  0.62779744  0.06364198  1  1.565755  0  0.214733  0.59548  0  4.189961  0
C  C296  1  0.49790160  0.08503807  0.10582106  1  0.498558  0  0.056548  0.103221  0  3.937192  0
C  C297  1  0.50986215  0.16114232  0.10495855  1  0.010876  0  -0.073375  -0.163205  0  3.929987  0
C  C298  1  0.49069004  0.20230804  0.15127338  1  -0.038619  0  0.019461  0.109032  0  3.973742  0
C  C299  1  0.45952821  0.16440983  0.19681159  1  -0.052533  0  -0.071702  -0.1634  0  3.92288  0
C  C300  1  0.44837963  0.08819102  0.19418342  1  0.487357  0  0.063054  0.112018  0  3.924759  0
C  C301  1  0.49207808  0.40113392  0.10704223  1  0.492167  0  0.056521  0.10644  0  3.927562  0
C  C302  1  0.47972455  0.32506288  0.10594642  1  0.021412  0  -0.074381  -0.165928  0  3.936035  0
C  C303  1  0.50261058  0.28320547  0.15136486  1  -0.033621  0  0.01858  0.109146  0  3.975045  0
C  C304  1  0.53761507  0.32039761  0.19622628  1  0.030075  0  -0.074079  -0.164289  0  3.924312  0
C  C305  1  0.54814410  0.39669113  0.19401595  1  0.456648  0  0.058402  0.104213  0  3.939709  0
C  C306  1  0.31732943  0.84165163  0.14208879  1  1.546381  0  0.21342  0.591281  0  4.179298  0
C  C307  1  0.22232381  0.81380130  0.14669332  1  -0.003136  0  -0.019412  -0.037713  0  3.973655  0
C  C308  1  0.15312059  0.85772361  0.16857257  1  -0.06161  0  -0.086113  -0.087747  0  3.982278  0
C  C309  1  0.06486252  0.83064199  0.17196565  1  -0.038974  0  -0.097584  -0.147798  0  4.00525  0
C  C310  1  0.04261305  0.75919144  0.15336845  1  -0.042154  0  -0.00842  0.064209  0  4.00871  0
C  C311  1  0.11310739  0.71587070  0.13147800  1  -0.060469  0  -0.091169  -0.135827  0  3.97893  0
C  C312  1  0.20154247  0.74239780  0.12850158  1  -0.004351  0  -0.077818  -0.071546  0  3.961699  0
C  C313  1  0.94873376  0.73033688  0.15650005  1  -0.044689  0  -0.008911  0.059772  0  4.01465  0
C  C314  1  0.93154315  0.65362111  0.15527581  1  0.037767  0  -0.093781  -0.138531  0  3.994975  0
C  C315  1  0.84332008  0.62618031  0.15656060  1  -0.10011  0  -0.085216  -0.088676  0  3.985314  0
C  C316  1  0.76935815  0.67461851  0.16079286  1  0.027184  0  -0.017834  -0.03339  0  3.966761  0
C  C317  1  0.78528713  0.75104264  0.16321071  1  -0.043911  0  -0.078504  -0.075287  0  3.953416  0
C  C318  1  0.87347973  0.77834287  0.16037508  1  -0.037479  0  -0.093105  -0.13898  0  3.987669  0
C  C319  1  0.67376411  0.64700450  0.16209528  1  1.529448  0  0.216625  0.597451  0  4.169581  0
C  C320  1  0.57528443  0.86366601  0.07510362  1  1.543759  0  0.217876  0.600975  0  4.169149  0
C  C321  1  0.63139619  0.86256463  0.02518888  1  -0.037435  0  -0.021203  -0.040039  0  3.979651  0
C  C322  1  0.64967905  0.92863362  0.99782445  1  -0.060829  0  -0.086965  -0.094143  0  4.007026  0
C  C323  1  0.70120450  0.92815872  0.95117881  1  -0.013536  0  -0.092482  -0.138321  0  3.987382  0
C  C324  1  0.73472345  0.86137515  0.92987250  1  -0.066902  0  -0.005119  0.074066  0  3.994847  0
C  C325  1  0.71616513  0.79522145  0.95769521  1  -0.105282  0  -0.092864  -0.142927  0  3.989297  0
C  C326  1  0.66598095  0.79578328  0.00508457  1  0.014895  0  -0.083094  -0.089282  0  3.975724  0
C  C327  1  0.78602331  0.86245370  0.87901902  1  -0.035803  0  -0.006235  0.071635  0  3.996903  0
C  C328  1  0.83980927  0.92426305  0.86587976  1  -0.062293  0  -0.091557  -0.133454  0  3.98775  0
C  C329  1  0.88435398  0.92821164  0.81692926  1  0.001473  0  -0.086026  -0.089387  0  3.997516  0
C  C330  1  0.87641956  0.87064087  0.77951625  1  -0.017854  0  -0.019428  -0.038588  0  3.970137  0
C  C331  1  0.82484137  0.80796431  0.79257997  1  -0.048219  0  -0.080204  -0.078164  0  3.965394  0
C  C332  1  0.78045114  0.80396370  0.84181027  1  -0.008657  0  -0.094653  -0.142692  0  3.993433  0
C  C333  1  0.92210854  0.87671183  0.72623635  1  1.569157  0  0.217717  0.60447  0  4.164558  0
C  C334  1  0.54278515  0.85799584  0.23651714  1  1.575718  0  0.217081  0.598108  0  4.180227  0
C  C335  1  0.60335654  0.85619781  0.28457854  1  -0.085435  0  -0.019682  -0.035248  0  3.970214  0
C  C336  1  0.66262715  0.91544207  0.29438877  1  -0.001791  0  -0.088812  -0.0931  0  3.99502  0
C  C337  1  0.71813423  0.91552512  0.33943034  1  -0.061183  0  -0.098641  -0.149358  0  3.998786  0
C  C338  1  0.71478953  0.85692894  0.37665573  1  -0.046635  0  -0.007419  0.070241  0  4.002654  0
C  C339  1  0.65597228  0.79720042  0.36612804  1  -0.036529  0  -0.092099  -0.137925  0  3.982221  0
C  C340  1  0.60146563  0.79643501  0.32040451  1  0.014566  0  -0.078832  -0.076452  0  3.964689  0
C  C341  1  0.77160907  0.85990638  0.42541987  1  -0.021976  0  -0.004572  0.074382  0  3.990856  0
C  C342  1  0.79722746  0.92886542  0.44710336  1  0.015183  0  -0.089749  -0.131181  0  3.966154  0
C  C343  1  0.85285880  0.93289159  0.49203741  1  -0.052608  0  -0.086035  -0.090716  0  4.001295  0
C  C344  1  0.88517573  0.86824538  0.51655298  1  -0.040959  0  -0.023382  -0.047305  0  3.988313  0
C  C345  1  0.85841202  0.79924539  0.49619477  1  -0.007192  0  -0.084858  -0.092938  0  3.989215  0
C  C346  1  0.80218750  0.79526405  0.45134681  1  -0.068203  0  -0.093846  -0.141178  0  3.992003  0
C  C347  1  0.94769255  0.87220459  0.56364336  1  1.56649  0  0.214769  0.595588  0  4.18966  0
N  N348  1  0.53267426  0.95085889  0.85041233  1  -1.236749  0  -0.322911  -0.225029  0  3.543027  0
N  N349  1  0.47424219  0.56348299  0.84970003  1  -1.248191  0  -0.322691  -0.227107  0  3.538407  0
N  N350  1  0.03267332  0.54914125  0.35041207  1  -1.236679  0  -0.322891  -0.225053  0  3.542925  0
N  N351  1  0.97424308  0.93651575  0.34969985  1  -1.248131  0  -0.322673  -0.227053  0  3.538473  0
N  N352  1  0.96732640  0.45085867  0.64958777  1  -1.236739  0  -0.322887  -0.224998  0  3.542992  0
N  N353  1  0.02575393  0.06348417  0.65030119  1  -1.248039  0  -0.322731  -0.227234  0  3.53855  0
N  N354  1  0.46732955  0.04914103  0.14958831  1  -1.236691  0  -0.32286  -0.225093  0  3.543155  0
N  N355  1  0.52575957  0.43651748  0.15029980  1  -1.24822  0  -0.32266  -0.22707  0  3.538439  0
O  O356  1  0.66738873  0.09155091  0.84172146  1  -1.164107  0  -0.329076  -0.550984  0  2.292349  0
O  O357  1  0.62266679  0.19977687  0.87819756  1  -1.19766  0  -0.314362  -0.579279  0  2.369429  0
O  O358  1  0.33984872  0.42038164  0.85385880  1  -1.16515  0  -0.327392  -0.55855  0  2.314634  0
O  O359  1  0.38779687  0.31049763  0.82130335  1  -1.181935  0  -0.309294  -0.564872  0  2.368754  0
O  O360  1  0.47854526  0.08038578  0.91994569  1  -1.167595  0  -0.330532  -0.565003  0  2.345733  0
O  O361  1  0.41535209  0.18792544  0.89128720  1  -1.169608  0  -0.305233  -0.559258  0  2.361634  0
O  O362  1  0.02536152  0.06683861  0.27991122  1  -1.169995  0  -0.331288  -0.562013  0  2.337114  0
O  O363  1  0.09430213  0.17128633  0.30938968  1  -1.191966  0  -0.316002  -0.572991  0  2.343897  0
O  O364  1  0.46014045  0.07968945  0.78855886  1  -1.174983  0  -0.331559  -0.564821  0  2.356712  0
O  O365  1  0.50172039  0.19917192  0.77616532  1  -1.191363  0  -0.312776  -0.566195  0  2.349101  0
O  O366  1  0.04329385  0.06359625  0.41443446  1  -1.171136  0  -0.327107  -0.562488  0  2.368593  0
O  O367  1  0.01149575  0.18575567  0.42170451  1  -1.182917  0  -0.314129  -0.568314  0  2.3631  0
O  O368  1  0.16738812  0.40845105  0.34172320  1  -1.164113  0  -0.329039  -0.550983  0  2.292294  0
O  O369  1  0.12266765  0.30022630  0.37820039  1  -1.197714  0  -0.314362  -0.579271  0  2.36949  0
O  O370  1  0.83984928  0.07961636  0.35385781  1  -1.16517  0  -0.327464  -0.558576  0  2.314511  0
O  O371  1  0.88779460  0.18950027  0.32130329  1  -1.181879  0  -0.309247  -0.564805  0  2.36887  0
O  O372  1  0.97854684  0.41961448  0.41994669  1  -1.167677  0  -0.330627  -0.565084  0  2.34559  0
O  O373  1  0.91535173  0.31207646  0.39128608  1  -1.169629  0  -0.305264  -0.559205  0  2.36152  0
O  O374  1  0.52536247  0.43315944  0.77991307  1  -1.169933  0  -0.33132  -0.562041  0  2.337239  0
O  O375  1  0.59430114  0.32871008  0.80939142  1  -1.192009  0  -0.315996  -0.573011  0  2.343827  0
O  O376  1  0.96013796  0.42031000  0.28855906  1  -1.175208  0  -0.331636  -0.564891  0  2.356544  0
O  O377  1  0.00171649  0.30082891  0.27616373  1  -1.19135  0  -0.31274  -0.566175  0  2.349229  0
O  O378  1  0.54329140  0.43640096  0.91443510  1  -1.171127  0  -0.327133  -0.562585  0  2.368651  0
O  O379  1  0.51149274  0.31423992  0.92170462  1  -1.182127  0  -0.314178  -0.568475  0  2.36306  0
O  O380  1  0.83261093  0.59155108  0.65827784  1  -1.164116  0  -0.329072  -0.550981  0  2.292364  0
O  O381  1  0.87733276  0.69977638  0.62180065  1  -1.197657  0  -0.314339  -0.579294  0  2.369368  0
O  O382  1  0.16014977  0.92038079  0.64613961  1  -1.165179  0  -0.327472  -0.558646  0  2.314582  0
O  O383  1  0.11220308  0.81049854  0.67869694  1  -1.181916  0  -0.309297  -0.564907  0  2.368738  0
O  O384  1  0.02145832  0.58038488  0.58005475  1  -1.167721  0  -0.330559  -0.564977  0  2.345727  0
O  O385  1  0.08464867  0.68792622  0.60871376  1  -1.169471  0  -0.305195  -0.559193  0  2.36155  0
O  O386  1  0.47463929  0.56684048  0.22008757  1  -1.169976  0  -0.331295  -0.562003  0  2.337175  0
O  O387  1  0.40569790  0.67128818  0.19060963  1  -1.191965  0  -0.31605  -0.573075  0  2.343776  0
O  O388  1  0.03985769  0.57968937  0.71144238  1  -1.175117  0  -0.331597  -0.564784  0  2.356703  0
O  O389  1  0.99827916  0.69917101  0.72383651  1  -1.191318  0  -0.312801  -0.566254  0  2.349078  0
O  O390  1  0.45670901  0.56359840  0.08556473  1  -1.171144  0  -0.327093  -0.562473  0  2.368686  0
O  O391  1  0.48850902  0.68575999  0.07829442  1  -1.182179  0  -0.314183  -0.568415  0  2.363172  0
O  O392  1  0.33261236  0.90844956  0.15827838  1  -1.164138  0  -0.329047  -0.550993  0  2.292353  0
O  O393  1  0.37733430  0.80022415  0.12180227  1  -1.197702  0  -0.314372  -0.579286  0  2.369422  0
O  O394  1  0.66015304  0.57961828  0.14613863  1  -1.16522  0  -0.327419  -0.558537  0  2.314663  0
O  O395  1  0.61220285  0.68950118  0.17869367  1  -1.18186  0  -0.309269  -0.564872  0  2.368755  0
O  O396  1  0.52145718  0.91961524  0.08005415  1  -1.167594  0  -0.330499  -0.564981  0  2.345741  0
O  O397  1  0.58464832  0.81207558  0.10871424  1  -1.169596  0  -0.305283  -0.55929  0  2.361533  0
O  O398  1  0.97463481  0.93316241  0.72008741  1  -1.169985  0  -0.331307  -0.562033  0  2.337207  0
O  O399  1  0.90569828  0.82871193  0.69060895  1  -1.191953  0  -0.316049  -0.573058  0  2.343688  0
O  O400  1  0.53986063  0.92030992  0.21144138  1  -1.175349  0  -0.331637  -0.564883  0  2.356647  0
O  O401  1  0.49828070  0.80082855  0.22383532  1  -1.191385  0  -0.312763  -0.566156  0  2.3492  0
O  O402  1  0.95670520  0.93640256  0.58556578  1  -1.171036  0  -0.327131  -0.562533  0  2.368622  0
O  O403  1  0.98850466  0.81423982  0.57829613  1  -1.182732  0  -0.314129  -0.568404  0  2.362982  0
