# generated using pymatgen
data_MnH28C26(N2Cl)2
_symmetry_space_group_name_H-M   'P 1'
_cell_length_a   17.24101941
_cell_length_b   17.24051833
_cell_length_c   24.55085516
_cell_angle_alpha   110.55724094
_cell_angle_beta   110.55679179
_cell_angle_gamma   90.00099777
_symmetry_Int_Tables_number   1
_chemical_formula_structural   MnH28C26(N2Cl)2
_chemical_formula_sum   'Mn8 H224 C208 N32 Cl16'
_cell_volume   6334.20530637
_cell_formula_units_Z   8
loop_
 _symmetry_equiv_pos_site_id
 _symmetry_equiv_pos_as_xyz
  1  'x, y, z'
loop_
 _atom_site_type_symbol
 _atom_site_label
 _atom_site_symmetry_multiplicity
 _atom_site_fract_x
 _atom_site_fract_y
 _atom_site_fract_z
 _atom_site_occupancy
 _atom_site_pbe_bader_charge
 _atom_site_pbe_bader_spin_density
 _atom_site_pbe_cm5_charge
 _atom_site_pbe_ddec_charge
 _atom_site_pbe_ddec_spin_density
 _atom_site_pbe_ddec_sum_bond_order
 _atom_site_pbe_magmom
Mn  Mn0  1  0.78092166  0.03093358  0.06183002  1  1.392572  4.504286  0.498129  0.651143  4.644228  2.651281  4.415
Mn  Mn1  1  0.03093315  0.78090694  0.56185424  1  1.38572  4.50563  0.498302  0.651613  4.643999  2.650806  4.414
Mn  Mn2  1  0.21907220  0.96906227  0.93816837  1  1.392787  4.504242  0.498123  0.65116  4.644228  2.651228  4.415
Mn  Mn3  1  0.96907074  0.21909038  0.43814728  1  1.385605  4.50565  0.498281  0.651592  4.644015  2.650812  4.414
Mn  Mn4  1  0.84070291  0.59058886  0.18133502  1  1.390126  4.513785  0.490957  0.660328  4.653439  2.627367  4.42
Mn  Mn5  1  0.59059485  0.84067675  0.68135834  1  1.385352  4.514723  0.491101  0.660896  4.653165  2.626597  4.42
Mn  Mn6  1  0.15929791  0.40940998  0.81866531  1  1.390133  4.513784  0.490957  0.660377  4.653442  2.627277  4.42
Mn  Mn7  1  0.40940204  0.15932370  0.31864058  1  1.385352  4.514705  0.491118  0.660922  4.653142  2.626571  4.42
H  H8  1  0.73929550  0.05963317  0.18145634  1  0.114033  0.00156  0.107104  0.073455  0.000862  1.043704  0.001
H  H9  1  0.94203401  0.12181796  0.18147889  1  0.09233  0.001576  0.107384  0.074009  0.000864  1.043346  0.001
H  H10  1  0.12185877  0.73938282  0.68154282  1  0.092101  0.001569  0.107138  0.073977  0.000863  1.042728  0.001
H  H11  1  0.05983341  0.94209778  0.68149558  1  0.114178  0.001565  0.10714  0.073856  0.000868  1.042319  0.001
H  H12  1  0.26070653  0.94036673  0.81854395  1  0.114069  0.00156  0.107105  0.073511  0.000862  1.043662  0.001
H  H13  1  0.05796160  0.87818064  0.81851875  1  0.092317  0.001575  0.107386  0.073994  0.000864  1.0433  0.001
H  H14  1  0.87814237  0.26062017  0.31846095  1  0.092167  0.001568  0.107113  0.073929  0.000863  1.042795  0.001
H  H15  1  0.94016735  0.05790221  0.31850407  1  0.11415  0.001565  0.107149  0.073863  0.000868  1.042374  0.001
H  H16  1  0.70013418  0.17092828  0.26112260  1  0.077267  0.000771  0.103271  0.113665  0.000348  1.015421  0.0
H  H17  1  0.06087449  0.09019389  0.26113080  1  0.08089  0.00077  0.103213  0.113643  0.000347  1.015278  0.0
H  H18  1  0.09013224  0.70019819  0.76118419  1  0.081826  0.000769  0.103031  0.113148  0.000348  1.015944  0.0
H  H19  1  0.17114233  0.06085537  0.76111954  1  0.089813  0.000769  0.103494  0.113814  0.000347  1.014328  0.0
H  H20  1  0.29986611  0.82906986  0.73887659  1  0.077199  0.000771  0.103249  0.113644  0.000348  1.015436  0.0
H  H21  1  0.93912146  0.90980586  0.73886657  1  0.080795  0.00077  0.103262  0.113738  0.000347  1.015157  0.0
H  H22  1  0.90986818  0.29980356  0.23881887  1  0.081853  0.000769  0.103051  0.113227  0.000348  1.015909  0.0
H  H23  1  0.82885857  0.93914329  0.23887962  1  0.089783  0.000769  0.103481  0.113792  0.000347  1.014317  0.0
H  H24  1  0.72688879  0.33936882  0.17131268  1  0.131935  0.001733  0.090877  0.11673  0.001008  1.060283  0.0
H  H25  1  0.94445459  0.83189782  0.17119200  1  0.133941  0.001716  0.091459  0.117743  0.001005  1.059834  0.0
H  H26  1  0.83190816  0.72677882  0.67120913  1  0.134819  0.001718  0.091425  0.117272  0.001007  1.061222  0.0
H  H27  1  0.33940534  0.94439940  0.67108756  1  0.129508  0.00173  0.091033  0.116906  0.001007  1.060334  0.0
H  H28  1  0.27311300  0.66063064  0.82868862  1  0.131935  0.001733  0.090903  0.116771  0.001008  1.060233  0.0
H  H29  1  0.05554574  0.16810023  0.82880661  1  0.133953  0.001716  0.091461  0.117771  0.001005  1.059767  0.0
H  H30  1  0.16809081  0.27322153  0.32879123  1  0.134837  0.001718  0.091413  0.117279  0.001007  1.061249  0.0
H  H31  1  0.66059657  0.05559979  0.32891199  1  0.129251  0.00173  0.091027  0.116887  0.001007  1.060265  0.0
H  H32  1  0.76636750  0.22052440  0.09620536  1  0.083324  0.001642  0.109012  0.083099  0.000792  1.015106  0.001
H  H33  1  0.82981109  0.87562759  0.09613202  1  0.092992  0.001635  0.108999  0.082727  0.000789  1.016063  0.001
H  H34  1  0.87570689  0.76635496  0.59616907  1  0.091977  0.001636  0.108673  0.082536  0.000791  1.015618  0.001
H  H35  1  0.22052741  0.82979587  0.59602541  1  0.088859  0.001636  0.109059  0.083411  0.000788  1.014899  0.001
H  H36  1  0.23363367  0.77947559  0.90379470  1  0.083318  0.001642  0.109001  0.083077  0.000792  1.015119  0.001
H  H37  1  0.17018804  0.12436940  0.90386663  1  0.093058  0.001634  0.108988  0.08272  0.000789  1.016031  0.001
H  H38  1  0.12429500  0.23364626  0.40383170  1  0.091975  0.001636  0.10868  0.082517  0.000791  1.015641  0.001
H  H39  1  0.77947279  0.17020351  0.40397368  1  0.088624  0.001636  0.109022  0.083361  0.000788  1.014819  0.001
H  H40  1  0.66375318  0.30954086  0.29713904  1  0.029006  0.00018  0.092192  0.092531  2.7e-05  0.993225  0.0
H  H41  1  0.13341362  0.98748835  0.29705020  1  0.068622  0.000178  0.092268  0.092764  2.8e-05  0.992279  0.0
H  H42  1  0.98748826  0.66375624  0.79709806  1  0.013566  0.000182  0.092227  0.09241  2.8e-05  0.99222  0.0
H  H43  1  0.30961139  0.13335635  0.79702271  1  0.025453  0.000181  0.092271  0.092863  2.7e-05  0.992599  0.0
H  H44  1  0.33624734  0.69045869  0.70286163  1  0.029021  0.000181  0.092161  0.092533  2.7e-05  0.993203  0.0
H  H45  1  0.86658548  0.01251369  0.70294905  1  0.068666  0.000178  0.092241  0.092738  2.8e-05  0.992288  0.0
H  H46  1  0.01251184  0.33624534  0.20290343  1  0.013567  0.000182  0.092217  0.092393  2.8e-05  0.992198  0.0
H  H47  1  0.69038927  0.86664187  0.20297747  1  0.025395  0.000181  0.092265  0.092878  2.7e-05  0.992605  0.0
H  H48  1  0.63396066  0.35994144  0.24271509  1  0.024747  0.000743  0.092983  0.09188  0.000513  0.999927  0.0
H  H49  1  0.10867737  0.88264902  0.24266030  1  0.031271  0.000745  0.093146  0.091322  0.000514  1.000178  0.0
H  H50  1  0.88266326  0.63398621  0.74267991  1  0.042013  0.000741  0.093002  0.091207  0.000514  1.000832  0.0
H  H51  1  0.36012566  0.10880197  0.74268483  1  0.033834  0.000742  0.093022  0.091091  0.000515  1.001034  0.0
H  H52  1  0.36604117  0.64005793  0.75728562  1  0.024698  0.000743  0.092979  0.09189  0.000513  0.999919  0.0
H  H53  1  0.89132271  0.11735363  0.75733992  1  0.03124  0.000746  0.093146  0.091307  0.000515  1.000165  0.0
H  H54  1  0.11733689  0.36601422  0.25732226  1  0.042012  0.000741  0.093012  0.091196  0.000514  1.000831  0.0
H  H55  1  0.63987531  0.89119749  0.25731566  1  0.033651  0.000742  0.093025  0.091098  0.000515  1.001008  0.0
H  H56  1  0.81016309  0.38279372  0.34087116  1  0.050785  0.00052  0.082093  0.082756  0.000161  1.031807  0.0
H  H57  1  0.03073329  0.95816176  0.34085609  1  0.053274  0.000518  0.081806  0.083158  0.000161  1.031296  0.0
H  H58  1  0.95803295  0.81016595  0.84085971  1  0.060427  0.000517  0.081976  0.083127  0.000161  1.031407  0.0
H  H59  1  0.38274838  0.03068298  0.84078885  1  0.030758  0.000521  0.081658  0.082571  0.000161  1.031076  0.0
H  H60  1  0.18983771  0.61720715  0.65913040  1  0.050499  0.000519  0.08211  0.082801  0.000161  1.03175  0.0
H  H61  1  0.96926622  0.04184028  0.65914357  1  0.053103  0.000518  0.081815  0.083176  0.000161  1.031318  0.0
H  H62  1  0.04196654  0.18983510  0.15914180  1  0.060436  0.000516  0.08199  0.083122  0.000161  1.031427  0.0
H  H63  1  0.61725215  0.96931657  0.15921182  1  0.030949  0.000521  0.081665  0.082582  0.000161  1.031069  0.0
H  H64  1  0.78102810  0.42970894  0.28354732  1  0.028244  0.000477  0.082863  0.085605  0.00012  1.024109  0.0
H  H65  1  0.00245970  0.85389580  0.28356071  1  0.053041  0.000467  0.082874  0.085865  0.000118  1.024576  0.0
H  H66  1  0.85380139  0.78110709  0.78351846  1  0.048316  0.000469  0.082722  0.085399  0.000119  1.025266  0.0
H  H67  1  0.42974336  0.00248668  0.78350613  1  0.048909  0.000471  0.083022  0.0855  0.000119  1.02551  0.0
H  H68  1  0.21897241  0.57029264  0.71645457  1  0.028271  0.000477  0.082842  0.085568  0.00012  1.024137  0.0
H  H69  1  0.99754051  0.14610552  0.71643902  1  0.053026  0.000467  0.082898  0.085922  0.000118  1.024505  0.0
H  H70  1  0.14619915  0.21889440  0.21648284  1  0.048318  0.000469  0.082718  0.085417  0.000119  1.025284  0.0
H  H71  1  0.57025690  0.99751154  0.21649364  1  0.048942  0.000471  0.083039  0.085512  0.000119  1.025516  0.0
H  H72  1  0.67835731  0.50175856  0.32655047  1  0.025708  0.000319  0.092922  0.092415  0.00018  0.978131  0.0
H  H73  1  0.14815636  0.82481641  0.32659887  1  0.020352  0.000321  0.093065  0.092032  0.00018  0.978072  0.0
H  H74  1  0.82466588  0.67842100  0.82651549  1  0.017161  0.000322  0.093066  0.092359  0.00018  0.978305  0.0
H  H75  1  0.50186855  0.14814942  0.82660414  1  0.029029  0.00032  0.092943  0.091937  0.00018  0.978934  0.0
H  H76  1  0.32164333  0.49824169  0.67345094  1  0.025637  0.000319  0.092929  0.09242  0.00018  0.978106  0.0
H  H77  1  0.85184378  0.17518509  0.67340203  1  0.020471  0.000322  0.093088  0.092051  0.00018  0.97808  0.0
H  H78  1  0.17533398  0.32157917  0.17348451  1  0.017173  0.000322  0.093077  0.09237  0.00018  0.978288  0.0
H  H79  1  0.49813007  0.85184882  0.17339401  1  0.029045  0.00032  0.092948  0.091937  0.00018  0.978947  0.0
H  H80  1  0.70227045  0.45154352  0.38130494  1  0.029733  0.000466  0.094499  0.096228  0.000262  0.99272  0.0
H  H81  1  0.17897838  0.92979363  0.38133278  1  0.046254  0.000463  0.09462  0.095985  0.000263  0.992554  0.0
H  H82  1  0.92965433  0.70227583  0.88124235  1  0.034933  0.000464  0.094501  0.09572  0.000263  0.993468  0.0
H  H83  1  0.45162254  0.17895836  0.88134797  1  0.023787  0.000471  0.094612  0.096193  0.000263  0.993052  0.0
H  H84  1  0.29773019  0.54845673  0.61869646  1  0.029424  0.000466  0.094493  0.096196  0.000262  0.992707  0.0
H  H85  1  0.82102130  0.07020796  0.61866830  1  0.046261  0.000463  0.094624  0.095986  0.000263  0.992551  0.0
H  H86  1  0.07034505  0.29772452  0.11875842  1  0.034917  0.000464  0.09449  0.095717  0.000263  0.99344  0.0
H  H87  1  0.54837709  0.82104040  0.11865056  1  0.023759  0.000471  0.094609  0.096188  0.000263  0.993053  0.0
H  H88  1  0.75355777  0.63843581  0.35958947  1  0.062719  0.000793  0.101914  0.109552  0.000378  1.019434  0.0
H  H89  1  0.10605087  0.72123938  0.35964555  1  0.064785  0.00079  0.101904  0.109296  0.000378  1.020909  0.0
H  H90  1  0.72111413  0.75354839  0.85955037  1  0.075949  0.000792  0.102147  0.109313  0.00038  1.0202  0.0
H  H91  1  0.63845226  0.10606175  0.85960045  1  0.090551  0.00079  0.101823  0.108667  0.000379  1.020683  0.0
H  H92  1  0.24644254  0.36156524  0.64041284  1  0.062838  0.000793  0.10193  0.109577  0.000378  1.019401  0.0
H  H93  1  0.89394987  0.27876265  0.64035532  1  0.064811  0.00079  0.1019  0.109285  0.000378  1.020901  0.0
H  H94  1  0.27888505  0.24645046  0.14044834  1  0.075723  0.000792  0.102148  0.109326  0.00038  1.020211  0.0
H  H95  1  0.36154675  0.89393454  0.14039746  1  0.090545  0.000789  0.101816  0.108654  0.000379  1.020715  0.0
H  H96  1  0.87200382  0.75034330  0.43937476  1  0.091935  0.001588  0.106977  0.073025  0.00085  1.042564  0.001
H  H97  1  0.06740874  0.68904476  0.43941691  1  0.12315  0.001565  0.106844  0.072948  0.000853  1.041898  0.001
H  H98  1  0.68892889  0.87194126  0.93932542  1  0.076  0.001599  0.107155  0.07329  0.000847  1.042146  0.001
H  H99  1  0.75042133  0.06745762  0.93938947  1  0.093709  0.001587  0.106883  0.072605  0.00085  1.042204  0.001
H  H100  1  0.12799608  0.24965775  0.56062716  1  0.091937  0.001589  0.10697  0.072993  0.00085  1.042595  0.001
H  H101  1  0.93259213  0.31095594  0.56058348  1  0.123128  0.001564  0.10684  0.072935  0.000853  1.041887  0.001
H  H102  1  0.31106887  0.12805706  0.06067250  1  0.075734  0.001599  0.107138  0.073233  0.000847  1.042143  0.001
H  H103  1  0.24957685  0.93253769  0.06060948  1  0.093772  0.001587  0.106882  0.072593  0.00085  1.042228  0.001
H  H104  1  0.98023890  0.59268293  0.52910174  1  0.115099  0.00168  0.107024  0.078829  0.000849  1.02335  0.001
H  H105  1  0.04887961  0.93643464  0.52918283  1  0.111535  0.001686  0.107378  0.079221  0.000848  1.02466  0.001
H  H106  1  0.93628792  0.98028362  0.02911483  1  0.112331  0.001688  0.107045  0.078781  0.000853  1.023878  0.001
H  H107  1  0.59284601  0.04885803  0.02915291  1  0.106729  0.001695  0.107388  0.079104  0.000853  1.023753  0.001
H  H108  1  0.01976252  0.40731644  0.47089857  1  0.11521  0.001679  0.107043  0.07881  0.000849  1.023383  0.001
H  H109  1  0.95112134  0.06356685  0.47081888  1  0.111581  0.001686  0.107342  0.079167  0.000849  1.024685  0.001
H  H110  1  0.06370963  0.01971621  0.97088475  1  0.112292  0.001689  0.107043  0.078748  0.000853  1.023859  0.001
H  H111  1  0.40715229  0.95114295  0.97084680  1  0.106689  0.001695  0.107361  0.079013  0.000853  1.0238  0.001
H  H112  1  0.86540440  0.47383209  0.45457908  1  0.131929  0.001867  0.090731  0.114072  0.001175  1.067207  0.0
H  H113  1  0.08922154  0.98080105  0.45468666  1  0.128314  0.001864  0.091036  0.114451  0.001173  1.066517  0.0
H  H114  1  0.98067298  0.86546368  0.95463258  1  0.127019  0.001861  0.091245  0.11454  0.001174  1.066051  0.0
H  H115  1  0.47391892  0.08914129  0.95462249  1  0.13299  0.001872  0.090813  0.113907  0.001174  1.066606  0.0
H  H116  1  0.13459743  0.52616728  0.54542163  1  0.131953  0.001867  0.090731  0.114099  0.001175  1.067174  0.0
H  H117  1  0.91077770  0.01920063  0.54531459  1  0.128343  0.001864  0.091027  0.114415  0.001173  1.066496  0.0
H  H118  1  0.01932498  0.13453614  0.04536740  1  0.126976  0.001861  0.091236  0.114502  0.001174  1.066071  0.0
H  H119  1  0.52608063  0.91086066  0.04537659  1  0.132967  0.001872  0.090809  0.113909  0.001174  1.066609  0.0
H  H120  1  0.93339317  0.75254402  0.30142297  1  0.107023  0.001442  0.107623  0.076426  0.000743  1.041489  0.0
H  H121  1  0.86808739  0.54884073  0.30134789  1  0.115128  0.001445  0.108099  0.077189  0.000747  1.041782  0.0
H  H122  1  0.54872955  0.93339498  0.80145184  1  0.107046  0.001441  0.10784  0.076303  0.000742  1.04219  0.0
H  H123  1  0.75246359  0.86800153  0.80136580  1  0.11786  0.00144  0.108105  0.077088  0.000744  1.040592  0.0
H  H124  1  0.06660649  0.24745562  0.69857747  1  0.106996  0.001441  0.107624  0.076406  0.000743  1.041475  0.0
H  H125  1  0.13191423  0.45116013  0.69865448  1  0.115092  0.001445  0.108095  0.077154  0.000748  1.041781  0.0
H  H126  1  0.45126979  0.06660546  0.19854951  1  0.107036  0.001441  0.107858  0.076319  0.000742  1.042159  0.0
H  H127  1  0.24753742  0.13200086  0.19863348  1  0.117782  0.00144  0.108111  0.077132  0.000744  1.040522  0.0
H  H128  1  0.90402900  0.87087153  0.38286330  1  0.086811  0.000779  0.104995  0.115983  0.000363  1.012267  0.0
H  H129  1  0.97883909  0.51186751  0.38280571  1  0.097984  0.000777  0.104696  0.115033  0.000362  1.012995  0.0
H  H130  1  0.51171602  0.90404405  0.88285155  1  0.067026  0.000779  0.104846  0.115651  0.000363  1.012476  0.0
H  H131  1  0.87089301  0.97873365  0.88279216  1  0.080959  0.000781  0.104732  0.115579  0.000362  1.011662  0.0
H  H132  1  0.09596962  0.12912766  0.61713733  1  0.086817  0.000779  0.104994  0.115949  0.000363  1.012294  0.0
H  H133  1  0.02116285  0.48813257  0.61719574  1  0.098113  0.000777  0.104705  0.115013  0.000362  1.013023  0.0
H  H134  1  0.48828308  0.09595497  0.11714832  1  0.067028  0.000779  0.104857  0.115671  0.000363  1.01242  0.0
H  H135  1  0.12910856  0.02126839  0.11720518  1  0.080922  0.000781  0.104732  0.115577  0.000362  1.011724  0.0
H  H136  1  0.64465483  0.75922896  0.29204877  1  0.043618  0.000874  0.107198  0.113822  0.000498  0.990648  0.0
H  H137  1  0.14760566  0.53285407  0.29219494  1  0.068184  0.000873  0.107393  0.114247  0.000499  0.989793  0.0
H  H138  1  0.53281784  0.64467830  0.79215979  1  0.041168  0.000873  0.107263  0.114078  0.000497  0.989976  0.0
H  H139  1  0.75930126  0.14743677  0.79210982  1  0.068142  0.000873  0.107552  0.114593  0.000498  0.989596  0.0
H  H140  1  0.35534441  0.24077175  0.70794999  1  0.043628  0.000874  0.107182  0.11379  0.000498  0.990671  0.0
H  H141  1  0.85239593  0.46714787  0.70780617  1  0.068219  0.000873  0.107359  0.114222  0.000499  0.989869  0.0
H  H142  1  0.46718199  0.35532196  0.20784080  1  0.041173  0.000873  0.10727  0.114096  0.000497  0.989948  0.0
H  H143  1  0.24069743  0.85256527  0.20788902  1  0.068135  0.000873  0.107549  0.114552  0.000499  0.989661  0.0
H  H144  1  0.68635635  0.64347041  0.21660393  1  0.131711  0.001575  0.107371  0.083802  0.000756  1.019404  0.0
H  H145  1  0.03050855  0.57329097  0.21673074  1  0.124813  0.00158  0.107664  0.084507  0.000752  1.018015  0.0
H  H146  1  0.57321320  0.68640115  0.71676586  1  0.11507  0.001592  0.10732  0.083575  0.000757  1.019255  0.0
H  H147  1  0.64338830  0.03037520  0.71670329  1  0.10947  0.001592  0.107169  0.083682  0.000752  1.019504  0.0
H  H148  1  0.31364315  0.35652968  0.78339509  1  0.13165  0.001576  0.107362  0.083792  0.000756  1.019362  0.0
H  H149  1  0.96949143  0.42670990  0.78327001  1  0.124787  0.00158  0.107696  0.084596  0.000751  1.018069  0.0
H  H150  1  0.42678565  0.31359849  0.28323377  1  0.115057  0.001592  0.107312  0.083578  0.000757  1.019243  0.0
H  H151  1  0.35660961  0.96962773  0.28329665  1  0.109592  0.001592  0.107156  0.083611  0.000752  1.019551  0.0
H  H152  1  0.80411290  0.94425448  0.42053714  1  0.050518  0.000176  0.09516  0.098961  3.1e-05  0.988585  0.0
H  H153  1  0.11646742  0.47634601  0.42057961  1  0.028358  0.000177  0.09536  0.098893  3.2e-05  0.989173  0.0
H  H154  1  0.47629803  0.80414894  0.92064459  1  0.028947  0.000177  0.095337  0.098764  3.1e-05  0.988934  0.0
H  H155  1  0.94430800  0.11642149  0.92054138  1  0.040487  0.000176  0.095065  0.098074  3.2e-05  0.99019  0.0
H  H156  1  0.19588651  0.05574578  0.57946305  1  0.050513  0.000176  0.095166  0.098957  3.1e-05  0.988563  0.0
H  H157  1  0.88353390  0.52365461  0.57942060  1  0.028342  0.000177  0.095351  0.098859  3.2e-05  0.989181  0.0
H  H158  1  0.52370139  0.19585132  0.07935559  1  0.028959  0.000177  0.095334  0.098767  3.1e-05  0.988954  0.0
H  H159  1  0.05569324  0.88358135  0.07945688  1  0.040572  0.000176  0.095061  0.098127  3.1e-05  0.990125  0.0
H  H160  1  0.70013863  0.92525511  0.36607110  1  0.051352  0.000662  0.096349  0.099394  0.000478  0.99703  0.0
H  H161  1  0.16595188  0.44077456  0.36610674  1  0.052684  0.000664  0.096333  0.09961  0.000479  0.997719  0.0
H  H162  1  0.44070822  0.70019498  0.86617914  1  0.049502  0.000666  0.096094  0.098623  0.00048  0.998688  0.0
H  H163  1  0.92534326  0.16593301  0.86609454  1  0.046894  0.000667  0.096233  0.098719  0.00048  0.997954  0.0
H  H164  1  0.29986050  0.07474586  0.63392942  1  0.051368  0.000662  0.096346  0.099359  0.000478  0.997044  0.0
H  H165  1  0.83404746  0.55922491  0.63389213  1  0.05271  0.000664  0.096323  0.099569  0.000479  0.997749  0.0
H  H166  1  0.55929088  0.29980404  0.13382074  1  0.049515  0.000665  0.096108  0.098638  0.00048  0.998703  0.0
H  H167  1  0.07465695  0.83407133  0.13390456  1  0.047291  0.000667  0.096273  0.098822  0.00048  0.997938  0.0
H  H168  1  0.66400963  0.81822126  0.40508386  1  -0.001737  0.000124  0.086473  0.077456  4.8e-05  0.985293  0.0
H  H169  1  0.24118665  0.58680769  0.40507917  1  0.012954  0.000123  0.086468  0.077852  4.8e-05  0.985083  0.0
H  H170  1  0.58681865  0.66399164  0.90510574  1  0.014926  0.000123  0.086734  0.077896  4.8e-05  0.986351  0.0
H  H171  1  0.81831254  0.24110607  0.90509611  1  0.010245  0.000123  0.086307  0.077746  4.8e-05  0.985807  0.0
H  H172  1  0.33599061  0.18177899  0.59491714  1  -0.001826  0.000124  0.086498  0.077511  4.8e-05  0.985271  0.0
H  H173  1  0.75881452  0.41319230  0.59492088  1  0.012962  0.000123  0.086461  0.077861  4.8e-05  0.985105  0.0
H  H174  1  0.41318213  0.33601030  0.09489455  1  0.014903  0.000123  0.086735  0.077915  4.8e-05  0.986352  0.0
H  H175  1  0.18168907  0.75889781  0.09490563  1  0.010227  0.000123  0.086305  0.077752  4.8e-05  0.98578  0.0
H  H176  1  0.76814412  0.84016158  0.46081120  1  0.071318  0.000472  0.084588  0.085215  0.000152  1.027384  0.0
H  H177  1  0.19267783  0.62071206  0.46073729  1  0.048158  0.000479  0.084758  0.085577  0.000151  1.025855  0.0
H  H178  1  0.62065655  0.76815845  0.96079182  1  0.071244  0.000472  0.084434  0.085128  0.000151  1.027051  0.0
H  H179  1  0.84007851  0.19259792  0.96074643  1  0.060621  0.000473  0.084419  0.084858  0.000151  1.027785  0.0
H  H180  1  0.23185656  0.15983858  0.53918962  1  0.071341  0.000472  0.084621  0.08529  0.000152  1.027396  0.0
H  H181  1  0.80732359  0.37928731  0.53926302  1  0.048059  0.000479  0.084802  0.085629  0.000151  1.025765  0.0
H  H182  1  0.37934302  0.23184243  0.03920852  1  0.071267  0.000472  0.084441  0.085127  0.000151  1.027051  0.0
H  H183  1  0.15992357  0.80740385  0.03925391  1  0.060574  0.000473  0.084396  0.084842  0.000151  1.02778  0.0
H  H184  1  0.64466237  0.96828380  0.45276724  1  0.042468  0.000392  0.094283  0.096172  0.000243  0.977633  0.0
H  H185  1  0.30810099  0.48453385  0.45292219  1  0.020299  0.000393  0.094516  0.0966  0.000242  0.977427  0.0
H  H186  1  0.48454736  0.64479560  0.95291272  1  0.039976  0.000392  0.094538  0.096867  0.000242  0.97672  0.0
H  H187  1  0.96837352  0.30802913  0.95287041  1  0.025639  0.000393  0.094408  0.096206  0.000242  0.979059  0.0
H  H188  1  0.35533761  0.03171708  0.54723350  1  0.042754  0.000392  0.094269  0.096145  0.000243  0.977621  0.0
H  H189  1  0.69189919  0.51546358  0.54707626  1  0.020345  0.000393  0.094495  0.096577  0.000242  0.977579  0.0
H  H190  1  0.51545291  0.35520457  0.04708769  1  0.039962  0.000392  0.09453  0.096839  0.000242  0.976743  0.0
H  H191  1  0.03162805  0.69197484  0.04713191  1  0.025207  0.000393  0.094386  0.096197  0.000242  0.979121  0.0
H  H192  1  0.74983012  0.99008775  0.50646856  1  0.02631  0.000515  0.095699  0.099081  0.000308  0.997689  0.0
H  H193  1  0.25648075  0.51649372  0.50651014  1  0.044476  0.000521  0.095883  0.099176  0.000312  0.997239  0.0
H  H194  1  0.51647763  0.74999414  0.00653639  1  0.03829  0.000514  0.095705  0.098635  0.000311  0.997423  0.0
H  H195  1  0.99010735  0.25645071  0.00648816  1  0.037736  0.00052  0.095529  0.098917  0.000311  0.997369  0.0
H  H196  1  0.25017005  0.00991367  0.49353176  1  0.026333  0.000515  0.095707  0.099084  0.000308  0.997649  0.0
H  H197  1  0.74351939  0.48350380  0.49348889  1  0.04448  0.000521  0.095882  0.099206  0.000312  0.997247  0.0
H  H198  1  0.48352306  0.25000603  0.99346443  1  0.038265  0.000514  0.095703  0.098637  0.000311  0.997404  0.0
H  H199  1  0.00989450  0.74355060  0.99351319  1  0.037694  0.00052  0.095555  0.09894  0.000311  0.997357  0.0
H  H200  1  0.79270394  0.89416084  0.57475070  1  0.136447  0.001754  0.090493  0.114666  0.001053  1.067293  0.0
H  H201  1  0.28197921  0.68074704  0.57481825  1  0.124222  0.001768  0.090462  0.115066  0.001049  1.067593  0.0
H  H202  1  0.68074736  0.79281900  0.07482826  1  0.135072  0.001753  0.090722  0.115157  0.00105  1.067086  0.0
H  H203  1  0.89419858  0.28191561  0.07480580  1  0.124634  0.001772  0.090614  0.115476  0.001051  1.066919  0.0
H  H204  1  0.20729451  0.10583880  0.42524852  1  0.136419  0.001754  0.090482  0.114666  0.001053  1.067286  0.0
H  H205  1  0.71802262  0.31925137  0.42517998  1  0.124168  0.001767  0.090432  0.115028  0.00105  1.067627  0.0
H  H206  1  0.31925352  0.20718170  0.92517213  1  0.135089  0.001753  0.090705  0.11512  0.00105  1.067104  0.0
H  H207  1  0.10580119  0.71808279  0.92519473  1  0.124684  0.001772  0.090618  0.115494  0.001051  1.066902  0.0
H  H208  1  0.74431112  0.84993000  0.64606533  1  0.092535  0.001672  0.107079  0.080711  0.000834  1.023202  0.001
H  H209  1  0.40165019  0.79634024  0.64606026  1  0.083494  0.001684  0.106777  0.080536  0.000839  1.02301  0.001
H  H210  1  0.79632564  0.74433097  0.14608312  1  0.088533  0.001674  0.10696  0.080707  0.000832  1.023358  0.001
H  H211  1  0.84978857  0.40159205  0.14604077  1  0.095349  0.001675  0.106891  0.080292  0.000833  1.02268  0.001
H  H212  1  0.25568681  0.15007186  0.35393587  1  0.092501  0.001672  0.107063  0.080717  0.000834  1.023221  0.001
H  H213  1  0.59834921  0.20365711  0.35393680  1  0.083414  0.001684  0.106804  0.080502  0.000839  1.02296  0.001
H  H214  1  0.20367479  0.25566982  0.85391745  1  0.088556  0.001674  0.106991  0.080724  0.000832  1.023342  0.001
H  H215  1  0.15021112  0.59840652  0.85396093  1  0.094903  0.001675  0.106905  0.080327  0.000833  1.022711  0.001
H  H216  1  0.50176942  0.88801177  0.56264449  1  0.125953  0.001672  0.109087  0.081683  0.000834  1.01024  0.001
H  H217  1  0.56078448  0.67476322  0.56268724  1  0.083917  0.001709  0.109206  0.081826  0.000838  1.009191  0.001
H  H218  1  0.67465977  0.50183208  0.06266568  1  0.085373  0.001709  0.10916  0.081668  0.000838  1.010203  0.001
H  H219  1  0.88797871  0.56076183  0.06269113  1  0.085357  0.001711  0.109142  0.081777  0.000839  1.009371  0.001
H  H220  1  0.49822962  0.11199143  0.43735408  1  0.125963  0.001672  0.109066  0.081731  0.000835  1.010194  0.001
H  H221  1  0.43921512  0.32523165  0.43731001  1  0.083979  0.001709  0.109203  0.081859  0.000838  1.00918  0.001
H  H222  1  0.32534148  0.49816871  0.93733570  1  0.085348  0.001709  0.10913  0.08163  0.000838  1.010217  0.001
H  H223  1  0.11201939  0.43923763  0.93731086  1  0.085228  0.001711  0.109108  0.08173  0.000839  1.009451  0.001
H  H224  1  0.53780507  0.92957983  0.48514654  1  0.056458  0.000843  0.103364  0.110578  0.000472  1.00723  0.0
H  H225  1  0.44725757  0.55566386  0.48521736  1  0.038301  0.000849  0.10296  0.110394  0.000472  1.005637  0.0
H  H226  1  0.55559252  0.53797082  0.98521947  1  0.047648  0.000847  0.103142  0.110314  0.000472  1.006335  0.0
H  H227  1  0.92957224  0.44723471  0.98519865  1  0.065214  0.000844  0.103188  0.110259  0.000472  1.005702  0.0
H  H228  1  0.46219471  0.07042257  0.51485152  1  0.056536  0.000843  0.103384  0.110647  0.000472  1.007253  0.0
H  H229  1  0.55274029  0.44433322  0.51478066  1  0.038396  0.000849  0.102974  0.11039  0.000472  1.005517  0.0
H  H230  1  0.44440842  0.46202872  0.01478160  1  0.047599  0.000847  0.103184  0.11039  0.000472  1.006266  0.0
H  H231  1  0.07042990  0.55276686  0.01480487  1  0.065029  0.000844  0.103188  0.11026  0.000472  1.005693  0.0
C  C232  1  0.73629242  0.12276681  0.18136421  1  0.466166  0.007806  0.045697  0.095537  0.006155  3.958087  0.005
C  C233  1  0.94501334  0.05857075  0.18133945  1  0.498955  0.007802  0.045053  0.09375  0.006174  3.959109  0.005
C  C234  1  0.05860753  0.73629751  0.68138607  1  0.467355  0.007826  0.045376  0.093543  0.006175  3.957593  0.005
C  C235  1  0.12294008  0.94498521  0.68135367  1  0.45563  0.00784  0.045606  0.094794  0.006169  3.956164  0.005
C  C236  1  0.26370698  0.87723150  0.81863533  1  0.466205  0.007806  0.045676  0.095464  0.006154  3.958114  0.005
C  C237  1  0.05498297  0.94142714  0.81865827  1  0.498733  0.007804  0.045019  0.093773  0.006175  3.959035  0.005
C  C238  1  0.94139229  0.26370372  0.31861701  1  0.467278  0.007826  0.045373  0.09356  0.006175  3.957768  0.005
C  C239  1  0.87706112  0.05501469  0.31864580  1  0.455636  0.00784  0.045604  0.09478  0.00617  3.956367  0.005
C  C240  1  0.71420588  0.18504740  0.22534472  1  -0.052418  -0.000299  -0.089218  -0.190192  -0.00076  3.942463  0.0
C  C241  1  0.01108800  0.04025914  0.22530576  1  -0.085264  -0.000285  -0.088777  -0.190041  -0.000766  3.942667  -0.001
C  C242  1  0.04025826  0.71419457  0.72534183  1  -0.05199  -0.000315  -0.088757  -0.188716  -0.000767  3.9427  -0.001
C  C243  1  0.18524289  0.01104009  0.72531008  1  -0.048697  -0.000309  -0.089439  -0.190498  -0.000759  3.941752  0.0
C  C244  1  0.28579378  0.81495029  0.77465507  1  -0.052318  -0.000299  -0.089258  -0.190274  -0.00076  3.942533  0.0
C  C245  1  0.98890887  0.95973936  0.77469252  1  -0.085133  -0.000285  -0.088829  -0.19017  -0.000766  3.94259  -0.001
C  C246  1  0.95974148  0.28580586  0.27465992  1  -0.052081  -0.000315  -0.088755  -0.188774  -0.000767  3.942662  -0.001
C  C247  1  0.81475857  0.98895920  0.27468965  1  -0.048751  -0.000309  -0.089434  -0.190439  -0.000759  3.941738  0.0
C  C248  1  0.70992152  0.26486653  0.22288386  1  -0.023565  0.006539  0.013199  0.171145  0.004965  3.935263  0.004
C  C249  1  0.01294575  0.95796737  0.22282017  1  0.007173  0.006546  0.01312  0.172377  0.004981  3.934738  0.004
C  C250  1  0.95796337  0.70988880  0.72284139  1  0.009557  0.006553  0.013098  0.171002  0.004985  3.936403  0.004
C  C251  1  0.26501929  0.01291443  0.72279179  1  -0.023118  0.006546  0.013435  0.172333  0.004969  3.935357  0.004
C  C252  1  0.29008016  0.73513222  0.77711671  1  -0.02352  0.006538  0.013306  0.171366  0.004965  3.935215  0.004
C  C253  1  0.98705314  0.04203219  0.77717887  1  0.006914  0.006548  0.013127  0.172395  0.004982  3.934698  0.004
C  C254  1  0.04203597  0.29011164  0.27715996  1  0.009436  0.006553  0.01303  0.170897  0.004985  3.936326  0.004
C  C255  1  0.73498192  0.98708548  0.27720768  1  -0.022831  0.006546  0.013464  0.172245  0.004969  3.935358  0.004
C  C256  1  0.72903568  0.27817806  0.17548788  1  -0.114056  0.000476  -0.090543  -0.192738  2e-05  3.93433  0.0
C  C257  1  0.94645611  0.89726770  0.17540308  1  -0.064422  0.000431  -0.091669  -0.195559  1.4e-05  3.936652  0.0
C  C258  1  0.89727757  0.72896271  0.67541215  1  -0.063933  0.000434  -0.091188  -0.194479  1.2e-05  3.93737  0.0
C  C259  1  0.27826876  0.94641251  0.67535343  1  -0.053254  0.000435  -0.091054  -0.194067  2.2e-05  3.934818  0.0
C  C260  1  0.27096640  0.72182069  0.82451309  1  -0.120121  0.00048  -0.090551  -0.192788  2e-05  3.934281  0.0
C  C261  1  0.05354288  0.10273062  0.82459606  1  -0.064427  0.000431  -0.091678  -0.195615  1.4e-05  3.936574  0.0
C  C262  1  0.10272266  0.27103755  0.32458884  1  -0.063722  0.000434  -0.091171  -0.194429  1.2e-05  3.937241  0.0
C  C263  1  0.72173132  0.05358616  0.32464493  1  -0.053212  0.000435  -0.09099  -0.193898  2.2e-05  3.934761  0.0
C  C264  1  0.75053802  0.21267545  0.13346825  1  0.50863  0.007211  0.042296  0.086904  0.005595  3.966567  0.005
C  C265  1  0.88291503  0.92075327  0.13339501  1  0.438081  0.007289  0.042122  0.087037  0.005612  3.966995  0.005
C  C266  1  0.92080341  0.75048688  0.63342099  1  0.442542  0.007285  0.042438  0.087866  0.005616  3.965292  0.005
C  C267  1  0.21274170  0.88287630  0.63335167  1  0.456151  0.007261  0.041792  0.086224  0.005602  3.965895  0.005
C  C268  1  0.24946311  0.78732462  0.86653239  1  0.514574  0.007207  0.04231  0.086954  0.005595  3.966562  0.005
C  C269  1  0.11708339  0.07924443  0.86660357  1  0.438114  0.007291  0.04214  0.087033  0.005614  3.966943  0.005
C  C270  1  0.07919795  0.24951461  0.36658113  1  0.442527  0.007285  0.042384  0.087794  0.005616  3.965354  0.005
C  C271  1  0.78725894  0.11712299  0.36664724  1  0.456476  0.007261  0.041753  0.086145  0.005603  3.965777  0.005
C  C272  1  0.68626049  0.33427981  0.26888764  1  0.023245  0.000362  -0.158359  -0.19799  0.000435  3.954413  0.0
C  C273  1  0.08259086  0.93454353  0.26882938  1  -0.03985  0.000374  -0.158298  -0.196843  0.000434  3.951012  0.0
C  C274  1  0.93451167  0.68627882  0.76885095  1  -0.003614  0.000367  -0.158531  -0.196877  0.000434  3.952553  0.0
C  C275  1  0.33438508  0.08260149  0.76879545  1  -0.001251  0.000368  -0.158598  -0.19765  0.000435  3.952863  0.0
C  C276  1  0.31374044  0.66571974  0.73111343  1  0.023251  0.000363  -0.158355  -0.198074  0.000435  3.954518  0.0
C  C277  1  0.91740853  0.06545780  0.73116954  1  -0.039571  0.000374  -0.158267  -0.196771  0.000434  3.950908  0.0
C  C278  1  0.06548770  0.31372153  0.23114981  1  -0.003642  0.000367  -0.158502  -0.196784  0.000434  3.952451  0.0
C  C279  1  0.66561455  0.91739727  0.23120308  1  -0.001142  0.000368  -0.158658  -0.197738  0.000435  3.953009  0.0
C  C280  1  0.75831318  0.40596104  0.31218217  1  -0.011672  0.001648  -0.16597  -0.137815  0.001462  3.903464  0.001
C  C281  1  0.05383784  0.90625078  0.31216759  1  -0.031486  0.001653  -0.165287  -0.138781  0.001463  3.903756  0.001
C  C282  1  0.90614591  0.75834543  0.81213836  1  -0.035723  0.001655  -0.165074  -0.137717  0.001463  3.903659  0.001
C  C283  1  0.40601222  0.05384378  0.81214010  1  -0.002768  0.001644  -0.165535  -0.13788  0.001461  3.903595  0.001
C  C284  1  0.24168772  0.59403859  0.68781949  1  -0.011422  0.001648  -0.165971  -0.137836  0.001462  3.903526  0.001
C  C285  1  0.94616212  0.09375117  0.68783189  1  -0.031345  0.001653  -0.165354  -0.138901  0.001463  3.903829  0.001
C  C286  1  0.09385273  0.24165572  0.18786292  1  -0.035565  0.001655  -0.165101  -0.137801  0.001463  3.903663  0.001
C  C287  1  0.59398835  0.94615568  0.18785998  1  -0.002871  0.001644  -0.165511  -0.13781  0.001461  3.903662  0.001
C  C288  1  0.72879325  0.47724708  0.35530382  1  0.007686  0.000348  -0.156151  -0.193554  0.000406  3.948962  0.0
C  C289  1  0.12647811  0.87809059  0.35534674  1  -0.013052  0.00035  -0.15658  -0.192822  0.000406  3.947371  0.0
C  C290  1  0.87796462  0.72883407  0.85527548  1  -0.001876  0.000347  -0.156389  -0.192946  0.000406  3.950137  0.0
C  C291  1  0.47730270  0.12646298  0.85531886  1  -0.011184  0.000349  -0.156105  -0.192175  0.000406  3.949933  0.0
C  C292  1  0.27120799  0.52275370  0.64469756  1  0.008054  0.000348  -0.156143  -0.19347  0.000406  3.948877  0.0
C  C293  1  0.87352116  0.12191100  0.64465393  1  -0.013212  0.00035  -0.156594  -0.19279  0.000406  3.947428  0.0
C  C294  1  0.12203464  0.27116557  0.14472455  1  -0.002003  0.000347  -0.156355  -0.192873  0.000406  3.950093  0.0
C  C295  1  0.52269704  0.87353649  0.14468041  1  -0.011148  0.000349  -0.156098  -0.192155  0.000406  3.949935  0.0
C  C296  1  0.79835773  0.54685473  0.40116859  1  0.032024  0.006383  0.012907  0.173571  0.004866  3.939027  0.004
C  C297  1  0.10280124  0.85436775  0.40122540  1  0.039508  0.006396  0.012552  0.173071  0.004876  3.939948  0.004
C  C298  1  0.85425856  0.79837159  0.90117974  1  0.021369  0.006408  0.012249  0.172128  0.004881  3.941357  0.004
C  C299  1  0.54690418  0.10274192  0.90117887  1  -0.002648  0.006424  0.012916  0.172453  0.00488  3.940515  0.004
C  C300  1  0.20164324  0.45314473  0.59883190  1  0.032221  0.006383  0.012957  0.173589  0.004865  3.939038  0.004
C  C301  1  0.89719763  0.14563384  0.59877487  1  0.039523  0.006397  0.01255  0.173018  0.004877  3.939857  0.004
C  C302  1  0.14574010  0.20162752  0.09882032  1  0.02138  0.006408  0.012246  0.172095  0.004881  3.941469  0.004
C  C303  1  0.45309613  0.89725817  0.09882096  1  -0.002662  0.006423  0.012894  0.172402  0.00488  3.940568  0.004
C  C304  1  0.80192482  0.62551809  0.39687899  1  -0.05605  -0.00027  -0.090602  -0.193449  -0.000704  3.948701  0.0
C  C305  1  0.09498358  0.77142215  0.39694940  1  -0.064474  -0.000255  -0.090151  -0.192269  -0.000712  3.949071  0.0
C  C306  1  0.77130550  0.80190900  0.89688600  1  -0.057366  -0.000269  -0.09012  -0.191803  -0.000707  3.947234  0.0
C  C307  1  0.62556947  0.09493529  0.89688624  1  -0.059761  -0.000284  -0.090091  -0.191166  -0.000712  3.947754  0.0
C  C308  1  0.19807607  0.37448154  0.60312267  1  -0.056267  -0.00027  -0.090591  -0.193409  -0.000704  3.948653  0.0
C  C309  1  0.90501630  0.22857997  0.60305125  1  -0.064571  -0.000255  -0.09017  -0.192298  -0.000712  3.949135  0.0
C  C310  1  0.22869349  0.19808932  0.10311314  1  -0.057053  -0.000269  -0.090085  -0.191777  -0.000707  3.947267  0.0
C  C311  1  0.37442985  0.90506223  0.10311199  1  -0.059734  -0.000284  -0.090069  -0.191086  -0.000711  3.947768  0.0
C  C312  1  0.86797755  0.68793386  0.44069377  1  0.473551  0.007629  0.045501  0.094967  0.00599  3.962643  0.005
C  C313  1  0.07274944  0.75278735  0.44075981  1  0.445276  0.007668  0.045908  0.095241  0.006016  3.959997  0.005
C  C314  1  0.75267132  0.86793834  0.94068931  1  0.482638  0.007631  0.045551  0.095218  0.006005  3.960355  0.005
C  C315  1  0.68801444  0.07273994  0.94070660  1  0.44734  0.007679  0.045899  0.095382  0.00601  3.959836  0.005
C  C316  1  0.13202385  0.31206755  0.55930777  1  0.47354  0.007629  0.045584  0.095063  0.005989  3.962571  0.005
C  C317  1  0.92725110  0.24721414  0.55924150  1  0.445272  0.007668  0.045941  0.095343  0.006016  3.960071  0.005
C  C318  1  0.24732678  0.13206015  0.05931019  1  0.482439  0.007633  0.045593  0.095325  0.006005  3.960259  0.005
C  C319  1  0.31198410  0.92725846  0.05929272  1  0.447262  0.007678  0.045916  0.095433  0.00601  3.959824  0.005
C  C320  1  0.92763161  0.59996954  0.49123045  1  0.474084  0.007175  0.041337  0.085895  0.005567  3.976311  0.005
C  C321  1  0.06363039  0.89128823  0.49130744  1  0.390124  0.007266  0.040895  0.084995  0.00559  3.979144  0.005
C  C322  1  0.89115753  0.92763090  0.99124901  1  0.452724  0.00722  0.041185  0.085948  0.005593  3.97719  0.005
C  C323  1  0.60008133  0.06360722  0.99127036  1  0.470822  0.007207  0.041114  0.085849  0.005596  3.975293  0.005
C  C324  1  0.07237045  0.40003028  0.50876925  1  0.47418  0.007174  0.041285  0.08598  0.005566  3.976296  0.005
C  C325  1  0.93637000  0.10871265  0.50869371  1  0.390055  0.007267  0.040986  0.085198  0.00559  3.979128  0.005
C  C326  1  0.10884153  0.07236821  0.00875145  1  0.453052  0.007221  0.041201  0.086036  0.005594  3.977257  0.005
C  C327  1  0.39991653  0.93639384  0.00872952  1  0.470871  0.007206  0.041195  0.086109  0.005594  3.975283  0.005
C  C328  1  0.86377949  0.53455637  0.44972185  1  -0.136739  0.00074  -0.09459  -0.202454  0.000242  3.950078  0.0
C  C329  1  0.08596974  0.91521030  0.44980212  1  -0.05879  0.000679  -0.094864  -0.203021  0.000233  3.950251  0.0
C  C330  1  0.91509355  0.86378979  0.94975329  1  -0.096744  0.000707  -0.094933  -0.202582  0.000233  3.950241  0.0
C  C331  1  0.53464008  0.08591678  0.94975902  1  -0.085133  0.000703  -0.094727  -0.202448  0.000229  3.949053  0.0
C  C332  1  0.13622162  0.46544176  0.55027815  1  -0.136896  0.00074  -0.094617  -0.202602  0.000242  3.950217  0.0
C  C333  1  0.91402852  0.08479076  0.55019817  1  -0.058823  0.000679  -0.094904  -0.203059  0.000233  3.950215  0.0
C  C334  1  0.08490552  0.13620932  0.05024717  1  -0.096627  0.000707  -0.094979  -0.202645  0.000233  3.950274  0.0
C  C335  1  0.46535928  0.91408464  0.05024049  1  -0.085039  0.000703  -0.094749  -0.202546  0.000229  3.949127  0.0
C  C336  1  0.87043898  0.75622947  0.30182841  1  0.47553  0.007101  0.048593  0.097721  0.005562  3.949855  0.005
C  C337  1  0.93147149  0.54553504  0.30179044  1  0.451499  0.007166  0.048537  0.097276  0.005582  3.949489  0.005
C  C338  1  0.54541334  0.87043891  0.80185720  1  0.462598  0.00712  0.048109  0.097767  0.005562  3.948881  0.005
C  C339  1  0.75620682  0.93138757  0.80179622  1  0.481675  0.007101  0.048311  0.097088  0.005581  3.948597  0.005
C  C340  1  0.12956003  0.24377079  0.69817137  1  0.475521  0.007101  0.04861  0.097727  0.005563  3.949777  0.005
C  C341  1  0.06852987  0.45446645  0.69821168  1  0.451561  0.007165  0.048559  0.09735  0.005582  3.949474  0.005
C  C342  1  0.45458522  0.12956144  0.19814276  1  0.461456  0.00712  0.048164  0.097886  0.005562  3.948952  0.005
C  C343  1  0.24379452  0.06861402  0.19820214  1  0.48167  0.007103  0.048284  0.096955  0.005583  3.948403  0.005
C  C344  1  0.85332949  0.82214513  0.34667491  1  -0.011555  -0.00028  -0.087087  -0.186471  -0.000694  3.934259  0.0
C  C345  1  0.99337081  0.52440161  0.34662674  1  -0.050164  -0.000273  -0.087255  -0.186189  -0.000701  3.934374  0.0
C  C346  1  0.52425850  0.85333334  0.84667062  1  0.021369  -0.000288  -0.086818  -0.186287  -0.000696  3.933262  0.0
C  C347  1  0.82219898  0.99328131  0.84661438  1  -0.037077  -0.000276  -0.086947  -0.186752  -0.000699  3.933204  0.0
C  C348  1  0.14666952  0.17785514  0.65332487  1  -0.01159  -0.00028  -0.087094  -0.186445  -0.000694  3.934287  0.0
C  C349  1  0.00663047  0.47559909  0.65337406  1  -0.050294  -0.000273  -0.087214  -0.186114  -0.000701  3.934313  0.0
C  C350  1  0.47574102  0.14666568  0.15332966  1  0.022509  -0.000288  -0.086904  -0.186412  -0.000696  3.93335  0.0
C  C351  1  0.17780203  0.00672011  0.15338240  1  -0.038126  -0.000277  -0.086961  -0.186721  -0.000699  3.933082  0.0
C  C352  1  0.77125441  0.82557977  0.34457219  1  0.009537  0.005874  0.014396  0.170843  0.004453  3.944957  0.004
C  C353  1  0.07336414  0.51891114  0.34456935  1  0.009922  0.005899  0.014154  0.171274  0.004473  3.945595  0.004
C  C354  1  0.51881075  0.77125992  0.84460620  1  -0.037765  0.005905  0.013924  0.170608  0.004468  3.945685  0.004
C  C355  1  0.82565690  0.07327061  0.84453436  1  0.012572  0.005897  0.014352  0.1723  0.004474  3.943983  0.004
C  C356  1  0.22874382  0.17442042  0.65542620  1  0.009558  0.005875  0.014386  0.170809  0.004454  3.944905  0.004
C  C357  1  0.92663759  0.48108947  0.65543127  1  0.009901  0.005899  0.014076  0.171257  0.004472  3.945519  0.004
C  C358  1  0.48118907  0.22874034  0.15539439  1  -0.037714  0.005905  0.013924  0.170617  0.004468  3.9456  0.004
C  C359  1  0.17434573  0.92673187  0.15546278  1  0.013485  0.005897  0.014308  0.172257  0.004475  3.943965  0.004
C  C360  1  0.70994327  0.76014885  0.29659169  1  -0.067321  -0.000323  -0.089541  -0.197652  -0.000699  3.971645  0.0
C  C361  1  0.08678177  0.53640930  0.29663317  1  -0.044586  -0.000351  -0.089679  -0.1989  -0.000702  3.97283  0.0
C  C362  1  0.53634731  0.70996374  0.79666385  1  -0.017399  -0.00035  -0.08969  -0.198858  -0.0007  3.971933  0.0
C  C363  1  0.76021340  0.08663839  0.79658656  1  -0.111667  -0.000312  -0.089766  -0.199477  -0.000705  3.972476  0.0
C  C364  1  0.29005628  0.23985310  0.70340739  1  -0.067288  -0.000323  -0.089524  -0.197574  -0.000699  3.971712  0.0
C  C365  1  0.91321952  0.46359139  0.70336762  1  -0.044469  -0.000351  -0.089731  -0.198986  -0.000702  3.972901  0.0
C  C366  1  0.46365196  0.29003590  0.20333619  1  -0.017106  -0.00035  -0.089728  -0.19891  -0.0007  3.971817  0.0
C  C367  1  0.23978757  0.91336312  0.20341082  1  -0.111543  -0.000313  -0.089711  -0.199363  -0.000705  3.972455  0.0
C  C368  1  0.73204127  0.69615422  0.25388040  1  0.4459  0.006756  0.043965  0.0882  0.005166  3.967735  0.004
C  C369  1  0.02202935  0.55776727  0.25393553  1  0.424591  0.006819  0.044018  0.088222  0.005175  3.966862  0.004
C  C370  1  0.55769986  0.73206772  0.75398401  1  0.450301  0.006768  0.04443  0.08943  0.005175  3.967365  0.004
C  C371  1  0.69612649  0.02189694  0.75390757  1  0.504953  0.006768  0.044164  0.08845  0.005185  3.968483  0.004
C  C372  1  0.26795797  0.30384649  0.74611837  1  0.445952  0.006756  0.043986  0.088151  0.005166  3.96775  0.004
C  C373  1  0.97797104  0.44223361  0.74606562  1  0.42458  0.006818  0.044043  0.08818  0.005175  3.966884  0.004
C  C374  1  0.44229866  0.26793272  0.24601653  1  0.450009  0.006769  0.044431  0.089441  0.005175  3.967292  0.004
C  C375  1  0.30387335  0.97810430  0.24609117  1  0.504822  0.006769  0.044216  0.088581  0.005186  3.968359  0.004
C  C376  1  0.74932281  0.89572606  0.39132439  1  -0.040125  0.000285  -0.157979  -0.204906  0.000311  3.946455  0.0
C  C377  1  0.14204103  0.49557690  0.39134598  1  -0.014515  0.000285  -0.157886  -0.204839  0.000312  3.948217  0.0
C  C378  1  0.49551567  0.74934243  0.89139963  1  -0.00272  0.000281  -0.15757  -0.203272  0.00031  3.947741  0.0
C  C379  1  0.89577434  0.14195761  0.89131146  1  -0.024899  0.000287  -0.157705  -0.20301  0.000311  3.946393  0.0
C  C380  1  0.25067664  0.10427411  0.60867521  1  -0.040135  0.000285  -0.157958  -0.204778  0.000311  3.946419  0.0
C  C381  1  0.85796014  0.50442309  0.60865408  1  -0.014636  0.000285  -0.15784  -0.20472  0.000312  3.948123  0.0
C  C382  1  0.50448460  0.25065774  0.10860079  1  -0.002783  0.000281  -0.157528  -0.203233  0.00031  3.947734  0.0
C  C383  1  0.10422727  0.85804530  0.10868779  1  -0.025163  0.000287  -0.157739  -0.203201  0.000311  3.946391  0.0
C  C384  1  0.71857221  0.86732573  0.43379289  1  -0.009823  0.001249  -0.161121  -0.131436  0.001105  3.922399  0.001
C  C385  1  0.21523387  0.56646814  0.43376927  1  -0.012754  0.001258  -0.161124  -0.132013  0.001113  3.921068  0.001
C  C386  1  0.56644377  0.71859561  0.93379458  1  -0.033273  0.001257  -0.161459  -0.132327  0.001109  3.924121  0.001
C  C387  1  0.86733376  0.21514354  0.93376797  1  -0.021748  0.001261  -0.1608  -0.131731  0.001113  3.921151  0.001
C  C388  1  0.28142733  0.13267524  0.56620804  1  -0.009754  0.001249  -0.161195  -0.13168  0.001106  3.922585  0.001
C  C389  1  0.78476658  0.43353061  0.56623007  1  -0.012617  0.001258  -0.161154  -0.132088  0.001113  3.920998  0.001
C  C390  1  0.43355625  0.28140518  0.06620558  1  -0.033228  0.001257  -0.161483  -0.132375  0.001109  3.924119  0.001
C  C391  1  0.13266700  0.78485645  0.06623168  1  -0.021756  0.001261  -0.160803  -0.131736  0.001112  3.9211  0.001
C  C392  1  0.69488700  0.94116938  0.47935233  1  -0.009201  0.000362  -0.155655  -0.195924  0.000442  3.938974  0.0
C  C393  1  0.28442319  0.53827233  0.47943720  1  -0.009418  0.000369  -0.15623  -0.196631  0.000445  3.939076  0.0
C  C394  1  0.53827047  0.69500492  0.97946339  1  -0.024429  0.000368  -0.155882  -0.196012  0.000444  3.937628  0.0
C  C395  1  0.94122257  0.28438200  0.97942942  1  -0.003395  0.000365  -0.155345  -0.195354  0.000445  3.938475  0.0
C  C396  1  0.30511318  0.05883204  0.52064799  1  -0.009476  0.000362  -0.155608  -0.195808  0.000442  3.9388  0.0
C  C397  1  0.71557553  0.46172466  0.52056105  1  -0.009415  0.000369  -0.156172  -0.196665  0.000445  3.939302  0.0
C  C398  1  0.46173025  0.30499516  0.02053685  1  -0.024425  0.000368  -0.155889  -0.195999  0.000444  3.937649  0.0
C  C399  1  0.05877898  0.71562002  0.02057227  1  -0.002989  0.000365  -0.155386  -0.195434  0.000445  3.938552  0.0
C  C400  1  0.66882027  0.91627925  0.52388009  1  -0.029007  0.006426  0.010337  0.170697  0.004883  3.950432  0.004
C  C401  1  0.35497866  0.60773075  0.52394256  1  -0.033326  0.006531  0.010222  0.169821  0.004962  3.953056  0.004
C  C402  1  0.60770944  0.66895222  0.02395278  1  -0.021576  0.006464  0.010611  0.170394  0.004916  3.951701  0.004
C  C403  1  0.91631947  0.35494330  0.02394476  1  0.001242  0.006494  0.009848  0.169207  0.004947  3.953846  0.004
C  C404  1  0.33118012  0.08372066  0.47611857  1  -0.029014  0.006427  0.010313  0.170721  0.004883  3.950516  0.004
C  C405  1  0.64502310  0.39226783  0.47605683  1  -0.033343  0.006532  0.010137  0.169816  0.004962  3.952728  0.004
C  C406  1  0.39229229  0.33104838  0.97604784  1  -0.0216  0.006465  0.010631  0.170431  0.004917  3.951701  0.004
C  C407  1  0.08367989  0.64505510  0.97605537  1  0.001135  0.006493  0.009941  0.169333  0.004946  3.953741  0.004
C  C408  1  0.72726964  0.89363698  0.57023725  1  -0.10076  0.000541  -0.094258  -0.195328  4.2e-05  3.939407  0.0
C  C409  1  0.34287628  0.67676517  0.57027337  1  -0.066349  0.000477  -0.094532  -0.196282  1.5e-05  3.93955  0.0
C  C410  1  0.67674229  0.72737587  0.07029512  1  -0.063134  0.000488  -0.094305  -0.196097  3e-05  3.938883  0.0
C  C411  1  0.89363559  0.34284012  0.07028548  1  -0.06036  0.000485  -0.094634  -0.196856  2.4e-05  3.939379  0.0
C  C412  1  0.27272977  0.10636328  0.42976293  1  -0.100812  0.000541  -0.094266  -0.19537  4.2e-05  3.939477  0.0
C  C413  1  0.65712450  0.32323280  0.42972506  1  -0.066169  0.000477  -0.094477  -0.196294  1.5e-05  3.939311  0.0
C  C414  1  0.32325903  0.27262474  0.92970509  1  -0.063064  0.000487  -0.094306  -0.196095  3e-05  3.938818  0.0
C  C415  1  0.10636317  0.65715775  0.92971467  1  -0.060282  0.000485  -0.094685  -0.196915  2.4e-05  3.939265  0.0
C  C416  1  0.70121252  0.86948771  0.61010624  1  0.509474  0.007248  0.042561  0.090864  0.005709  3.960848  0.005
C  C417  1  0.40879007  0.74080438  0.61011309  1  0.497033  0.007376  0.042533  0.090491  0.005794  3.960562  0.005
C  C418  1  0.74076701  0.70127669  0.11013034  1  0.476398  0.007317  0.042512  0.091159  0.005744  3.958924  0.005
C  C419  1  0.86940970  0.40873501  0.11011274  1  0.472406  0.007373  0.042647  0.091878  0.005767  3.959239  0.005
C  C420  1  0.29878553  0.13051389  0.38989321  1  0.509466  0.007249  0.042556  0.090825  0.00571  3.960907  0.005
C  C421  1  0.59121122  0.25919536  0.38988521  1  0.496906  0.007376  0.042527  0.090625  0.005793  3.96027  0.005
C  C422  1  0.25923387  0.29872401  0.88987005  1  0.476341  0.007318  0.042517  0.091225  0.005745  3.958851  0.005
C  C423  1  0.13058955  0.59126268  0.88988665  1  0.472811  0.007371  0.04267  0.09189  0.005766  3.959164  0.005
C  C424  1  0.56516663  0.88908361  0.56277064  1  0.445309  0.007686  0.044049  0.094053  0.005907  3.970634  0.005
C  C425  1  0.49750076  0.67383609  0.56279275  1  0.457168  0.007786  0.043988  0.093874  0.005987  3.968638  0.005
C  C426  1  0.67376272  0.56524847  0.06279442  1  0.473715  0.00769  0.044008  0.094113  0.005946  3.970999  0.005
C  C427  1  0.88903528  0.49746087  0.06279620  1  0.44042  0.007753  0.044507  0.094838  0.005968  3.968952  0.005
C  C428  1  0.43483185  0.11091897  0.43722737  1  0.445531  0.007687  0.044111  0.09401  0.005908  3.970661  0.005
C  C429  1  0.50250001  0.32615992  0.43720503  1  0.45638  0.007788  0.04383  0.09354  0.005988  3.968733  0.005
C  C430  1  0.32623872  0.43475285  0.93720653  1  0.473734  0.007691  0.044038  0.094206  0.005947  3.970994  0.005
C  C431  1  0.11096278  0.50253771  0.93720388  1  0.440529  0.007752  0.044573  0.094965  0.005967  3.968998  0.005
C  C432  1  0.58600681  0.91299580  0.52044985  1  -0.040011  -0.00032  -0.09567  -0.207824  -0.000699  3.975663  0.0
C  C433  1  0.43434706  0.60758592  0.52049719  1  0.015993  -0.00039  -0.094715  -0.206449  -0.000726  3.974206  -0.001
C  C434  1  0.60752776  0.58613889  0.02050772  1  -0.007088  -0.000346  -0.095378  -0.206944  -0.000711  3.975073  0.0
C  C435  1  0.91299941  0.43431481  0.02050085  1  -0.025051  -0.000368  -0.095436  -0.206871  -0.00072  3.975719  -0.001
C  C436  1  0.41399280  0.08700500  0.47954990  1  -0.040197  -0.00032  -0.095751  -0.208003  -0.000699  3.975712  0.0
C  C437  1  0.56565254  0.39240895  0.47950007  1  0.016194  -0.00039  -0.094714  -0.206348  -0.000726  3.974074  -0.001
C  C438  1  0.39247386  0.41386101  0.97949216  1  -0.007028  -0.000346  -0.095449  -0.207099  -0.000711  3.975111  0.0
C  C439  1  0.08699974  0.56568509  0.97950093  1  -0.02489  -0.000367  -0.095439  -0.206904  -0.000719  3.975733  -0.001
N  N440  1  0.75414518  0.13580848  0.13591459  1  -1.266575  0.049759  -0.32664  -0.239945  0.033296  3.538958  0.017
N  N441  1  0.88172645  0.00007507  0.13585664  1  -1.258419  0.049648  -0.326203  -0.238034  0.033277  3.537523  0.017
N  N442  1  0.00013917  0.75412635  0.63591109  1  -1.26187  0.049599  -0.326245  -0.23863  0.033252  3.536743  0.016
N  N443  1  0.13590281  0.88169342  0.63585134  1  -1.267434  0.049704  -0.326131  -0.239091  0.033291  3.537494  0.017
N  N444  1  0.24585494  0.86419107  0.86408567  1  -1.266581  0.04976  -0.32665  -0.239998  0.033298  3.539003  0.017
N  N445  1  0.11827153  0.99992272  0.86414212  1  -1.258309  0.049648  -0.326154  -0.237947  0.033274  3.537425  0.017
N  N446  1  0.99986174  0.24587523  0.36409121  1  -1.261845  0.049596  -0.326169  -0.238495  0.033249  3.536885  0.016
N  N447  1  0.86409922  0.11830648  0.36414895  1  -1.267467  0.049704  -0.326097  -0.239026  0.03329  3.537475  0.017
N  N448  1  0.93000251  0.67593648  0.48739900  1  -1.270473  0.049468  -0.324552  -0.235145  0.033308  3.534064  0.017
N  N449  1  0.05742125  0.81147999  0.48746422  1  -1.251276  0.049467  -0.325046  -0.235425  0.033298  3.535709  0.017
N  N450  1  0.81135839  0.92998097  0.98740632  1  -1.257177  0.049584  -0.325179  -0.236268  0.033345  3.535412  0.017
N  N451  1  0.67603267  0.05743643  0.98742016  1  -1.263306  0.049545  -0.325429  -0.235818  0.033326  3.533993  0.017
N  N452  1  0.06999922  0.32406413  0.51260162  1  -1.270546  0.049459  -0.324661  -0.235303  0.033312  3.534031  0.017
N  N453  1  0.94258040  0.18852079  0.51253757  1  -1.251142  0.049467  -0.325039  -0.235527  0.033299  3.535776  0.017
N  N454  1  0.18863869  0.07001700  0.01259279  1  -1.257226  0.049597  -0.325187  -0.236305  0.033345  3.535454  0.017
N  N455  1  0.32396577  0.94256322  0.01257906  1  -1.263419  0.049552  -0.325475  -0.235985  0.033327  3.53401  0.017
N  N456  1  0.81113940  0.69397208  0.25601734  1  -1.276198  0.048039  -0.320612  -0.230701  0.03217  3.516363  0.016
N  N457  1  0.94505076  0.56206383  0.25604045  1  -1.25136  0.048036  -0.321227  -0.231022  0.032226  3.516562  0.016
N  N458  1  0.56199526  0.81115596  0.75610553  1  -1.27605  0.048152  -0.32062  -0.231215  0.032218  3.51612  0.016
N  N459  1  0.69390835  0.94492807  0.75603415  1  -1.280524  0.048078  -0.320936  -0.230557  0.032168  3.51684  0.016
N  N460  1  0.18886031  0.30602747  0.74398251  1  -1.276198  0.04804  -0.32066  -0.230665  0.032168  3.516238  0.016
N  N461  1  0.05495064  0.43793757  0.74396108  1  -1.251395  0.048033  -0.321215  -0.231054  0.032226  3.516645  0.016
N  N462  1  0.43800289  0.18884440  0.24389402  1  -1.276076  0.048152  -0.320605  -0.231268  0.03222  3.516124  0.016
N  N463  1  0.30609076  0.05507397  0.24396510  1  -1.280431  0.048081  -0.320954  -0.230559  0.03217  3.516766  0.016
N  N464  1  0.62162677  0.86750461  0.60706522  1  -1.259555  0.049452  -0.322449  -0.231646  0.03309  3.522623  0.017
N  N465  1  0.48533879  0.73973504  0.60707549  1  -1.258563  0.049535  -0.322334  -0.230405  0.033009  3.5228  0.017
N  N466  1  0.73967290  0.62167775  0.10708905  1  -1.26983  0.04957  -0.322832  -0.231859  0.033055  3.52228  0.017
N  N467  1  0.86740036  0.48528466  0.10706485  1  -1.257869  0.049538  -0.322732  -0.231808  0.033076  3.522022  0.017
N  N468  1  0.37837177  0.13249681  0.39293347  1  -1.259557  0.049451  -0.322402  -0.231513  0.033091  3.522753  0.017
N  N469  1  0.51466220  0.26026142  0.39292128  1  -1.258066  0.049539  -0.322191  -0.23023  0.033007  3.522504  0.017
N  N470  1  0.26032899  0.37832348  0.89291173  1  -1.269879  0.049576  -0.322834  -0.231929  0.033055  3.522273  0.017
N  N471  1  0.13259750  0.51471339  0.89293566  1  -1.25781  0.049537  -0.322799  -0.231928  0.033078  3.522043  0.017
Cl  Cl472  1  0.67696184  0.92806008  0.06055158  1  -0.744622  0.088306  -0.304176  -0.55108  0.068964  1.151058  0.04
Cl  Cl473  1  0.88361634  0.13245448  0.06056800  1  -0.743882  0.088429  -0.303918  -0.551009  0.069065  1.15192  0.04
Cl  Cl474  1  0.13245889  0.67696934  0.56056417  1  -0.741811  0.087832  -0.304267  -0.551387  0.069088  1.152112  0.04
Cl  Cl475  1  0.92808364  0.88353714  0.56059512  1  -0.740469  0.087887  -0.304232  -0.551326  0.069046  1.15172  0.04
Cl  Cl476  1  0.32303341  0.07193435  0.93944696  1  -0.744722  0.088328  -0.304188  -0.551072  0.068963  1.151024  0.04
Cl  Cl477  1  0.11637658  0.86754068  0.93942884  1  -0.743869  0.088429  -0.303907  -0.551029  0.069065  1.151919  0.04
Cl  Cl478  1  0.86754777  0.32302921  0.43944010  1  -0.741954  0.08785  -0.304274  -0.551373  0.06909  1.152144  0.04
Cl  Cl479  1  0.07192379  0.11646353  0.43940743  1  -0.740358  0.087862  -0.30422  -0.551325  0.069044  1.151741  0.04
Cl  Cl480  1  0.73432908  0.49143985  0.18239142  1  -0.758946  0.089869  -0.358202  -0.597786  0.070171  1.048025  0.041
Cl  Cl481  1  0.94814065  0.69083613  0.18233116  1  -0.759452  0.089663  -0.358491  -0.598128  0.070089  1.046726  0.041
Cl  Cl482  1  0.69084731  0.73430224  0.68235590  1  -0.755399  0.089303  -0.358509  -0.598064  0.070129  1.046936  0.041
Cl  Cl483  1  0.49148835  0.94820290  0.68238210  1  -0.757531  0.089321  -0.358263  -0.597851  0.070125  1.047918  0.041
Cl  Cl484  1  0.26567041  0.50856024  0.81760760  1  -0.758943  0.089866  -0.358214  -0.597794  0.070168  1.047997  0.041
Cl  Cl485  1  0.05186076  0.30916033  0.81766602  1  -0.759446  0.089666  -0.358491  -0.59815  0.070092  1.046742  0.041
Cl  Cl486  1  0.30914981  0.26569962  0.31764450  1  -0.75545  0.089309  -0.358485  -0.598056  0.070127  1.04693  0.041
Cl  Cl487  1  0.50850700  0.05179632  0.31761529  1  -0.757515  0.089318  -0.35824  -0.597849  0.070126  1.047907  0.041
