# generated using pymatgen
data_CoH19C23(NO3)2
_symmetry_space_group_name_H-M   'P 1'
_cell_length_a   13.56279405
_cell_length_b   16.77810333
_cell_length_c   25.39792655
_cell_angle_alpha   90.00020092
_cell_angle_beta   90.00003961
_cell_angle_gamma   105.84400271
_symmetry_Int_Tables_number   1
_chemical_formula_structural   CoH19C23(NO3)2
_chemical_formula_sum   'Co8 H152 C184 N16 O48'
_cell_volume   5559.92905005
_cell_formula_units_Z   8
loop_
 _symmetry_equiv_pos_site_id
 _symmetry_equiv_pos_as_xyz
  1  'x, y, z'
loop_
 _atom_site_type_symbol
 _atom_site_label
 _atom_site_symmetry_multiplicity
 _atom_site_fract_x
 _atom_site_fract_y
 _atom_site_fract_z
 _atom_site_occupancy
 _atom_site_pbe_bader_charge
 _atom_site_pbe_bader_spin_density
 _atom_site_pbe_cm5_charge
 _atom_site_pbe_ddec_charge
 _atom_site_pbe_ddec_spin_density
 _atom_site_pbe_ddec_sum_bond_order
 _atom_site_pbe_magmom
Co  Co0  1  0.89356353  0.90812285  0.71829529  1  1.208779  2.549508  0.660225  0.841607  2.74385  2.562496  2.495
Co  Co1  1  0.74973715  0.73947384  0.75342864  1  1.264312  2.593442  0.644026  0.886937  2.831201  2.431266  2.567
Co  Co2  1  0.10643911  0.59187782  0.21829530  1  1.208818  2.549538  0.660076  0.841408  2.743879  2.562172  2.495
Co  Co3  1  0.25026791  0.76052952  0.25342831  1  1.264484  2.593422  0.644017  0.886815  2.831205  2.431702  2.567
Co  Co4  1  0.10643846  0.09187695  0.28170580  1  1.208894  2.549493  0.660276  0.841758  2.743839  2.562415  2.495
Co  Co5  1  0.25026042  0.26052162  0.24657087  1  1.264287  2.593453  0.643974  0.886814  2.831231  2.431258  2.567
Co  Co6  1  0.89356004  0.40812012  0.78170579  1  1.208836  2.549544  0.66006  0.841398  2.743886  2.562181  2.495
Co  Co7  1  0.74972976  0.23946841  0.74657081  1  1.264607  2.593421  0.644018  0.886827  2.831206  2.431683  2.567
H  H8  1  0.08724891  0.31458087  0.71938470  1  0.523672  0.000134  0.310178  0.289792  5.2e-05  0.994979  0.0
H  H9  1  0.57320343  0.83334559  0.79403833  1  0.498654  -6.1e-05  0.316849  0.290749  -0.000215  0.956662  0.0
H  H10  1  0.07535763  0.00269338  0.77966287  1  0.136624  0.001892  0.118027  0.09329  0.000745  1.030339  0.002
H  H11  1  0.17357049  0.15061922  0.79074665  1  0.114163  0.000616  0.114291  0.13777  0.000238  1.015653  0.0
H  H12  1  0.97438905  0.21121714  0.67330775  1  0.122124  0.000918  0.114313  0.137984  0.000275  1.011603  0.0
H  H13  1  0.88633636  0.06170109  0.66644322  1  0.115488  0.002011  0.120057  0.092849  0.000615  1.004268  0.001
H  H14  1  0.14053459  0.41917819  0.77800300  1  0.054837  4e-06  0.100052  0.109103  -7.9e-05  1.020609  0.0
H  H15  1  0.24301140  0.43567851  0.73310213  1  0.065164  4.6e-05  0.105708  0.127434  9e-06  0.969718  0.0
H  H16  1  0.36752379  0.45204168  0.80867881  1  0.033212  2.8e-05  0.08736  0.084556  1.6e-05  0.995486  0.0
H  H17  1  0.26506701  0.42958967  0.85361826  1  0.032999  1.4e-05  0.087196  0.081318  2e-06  1.004593  0.0
H  H18  1  0.21001634  0.55289128  0.81908487  1  0.019067  1.7e-05  0.082772  0.075472  -5.6e-05  0.997081  0.0
H  H19  1  0.31668492  0.57635688  0.77688147  1  0.00755  1.9e-05  0.083511  0.072377  8e-06  0.996554  0.0
H  H20  1  0.43349033  0.59632531  0.85650258  1  0.017972  -2e-06  0.084959  0.080602  -2.8e-05  0.99707  0.0
H  H21  1  0.32478485  0.57258060  0.89774369  1  0.025965  -3e-06  0.086452  0.081958  -2e-06  0.979855  0.0
H  H22  1  0.27430840  0.69677888  0.86192673  1  0.024292  6e-06  0.088505  0.083324  1e-06  0.982298  0.0
H  H23  1  0.39508506  0.72344783  0.89285136  1  0.025808  9e-06  0.086037  0.073638  -5e-06  0.993035  0.0
H  H24  1  0.47426716  0.71801009  0.80058242  1  0.052402  0.000103  0.098219  0.112237  -1.8e-05  1.031108  0.0
H  H25  1  0.35192976  0.71472971  0.77398416  1  0.088058  -2.3e-05  0.101878  0.121703  -1.6e-05  0.998403  0.0
H  H26  1  0.42925586  0.99596416  0.79257223  1  0.14374  0.000837  0.111561  0.135047  0.000374  1.026588  0.0
H  H27  1  0.52391979  0.14269735  0.77164750  1  0.082529  0.001928  0.119253  0.087431  0.000502  1.002142  0.001
H  H28  1  0.80139680  0.08562984  0.76364605  1  0.073667  0.002097  0.116014  0.085931  0.000727  1.027689  0.001
H  H29  1  0.72035958  0.93765992  0.78426997  1  0.14457  0.00096  0.109467  0.131403  0.000199  1.05159  0.0
H  H30  1  0.04304281  0.85215341  0.89648245  1  0.102673  0.000141  0.109813  0.114408  2.1e-05  0.983174  0.0
H  H31  1  0.02042138  0.86140618  0.99343486  1  0.066425  7.8e-05  0.108628  0.124909  1.6e-05  1.000427  0.0
H  H32  1  0.73037377  0.91389749  0.96793493  1  0.090878  -6e-06  0.112994  0.130054  -2.8e-05  0.977181  0.0
H  H33  1  0.75100226  0.89991115  0.87070887  1  0.099139  0.000338  0.105901  0.110126  5.6e-05  1.006334  0.0
H  H34  1  0.02250971  0.97142606  0.09477541  1  0.065899  0.000158  0.100888  0.115173  6.1e-05  1.05365  0.0
H  H35  1  0.11466971  0.89836254  0.15569685  1  0.09243  8.7e-05  0.104909  0.107175  -9.9e-05  1.013386  0.0
H  H36  1  0.89924865  0.66543091  0.11791450  1  0.091867  0.00041  0.109468  0.115319  0.000103  0.994549  0.0
H  H37  1  0.80767328  0.73843957  0.05674186  1  0.090471  0.000117  0.104785  0.116212  5.1e-05  1.032963  0.0
H  H38  1  0.82762600  0.63673819  0.90951766  1  0.077357  0.000581  0.107171  0.109001  0.000281  0.997338  0.0
H  H39  1  0.79300800  0.58405180  0.00190019  1  0.08094  3.1e-05  0.111925  0.128982  1.6e-05  0.977801  0.0
H  H40  1  0.52055549  0.66895805  0.00530839  1  0.087251  4.4e-05  0.106349  0.123604  2.5e-05  1.006732  0.0
H  H41  1  0.55468467  0.71915958  0.91280144  1  0.077919  0.000436  0.106553  0.108145  0.000243  1.010842  0.0
H  H42  1  0.64552235  0.72548560  0.11298932  1  0.096448  0.000141  0.11221  0.131033  5.7e-05  0.993414  0.0
H  H43  1  0.50195087  0.74551150  0.16873166  1  0.076447  0.000108  0.106796  0.109973  -3e-05  1.001048  0.0
H  H44  1  0.31946449  0.50089330  0.12794337  1  0.096627  0.000305  0.10226  0.105556  4.5e-05  1.022494  0.0
H  H45  1  0.46310567  0.48056452  0.07223410  1  0.097019  0.000112  0.101798  0.114154  3e-05  1.04564  0.0
H  H46  1  0.91274968  0.18541892  0.21938483  1  0.523671  0.000134  0.310179  0.289831  5.2e-05  0.994947  0.0
H  H47  1  0.42679368  0.66665367  0.29403824  1  0.498597  -6.1e-05  0.316816  0.290714  -0.000215  0.956675  0.0
H  H48  1  0.92464149  0.49730553  0.27966413  1  0.136613  0.001892  0.118026  0.093305  0.000745  1.03033  0.002
H  H49  1  0.82642898  0.34937852  0.29074713  1  0.114125  0.000616  0.114307  0.137791  0.000238  1.015593  0.0
H  H50  1  0.02560992  0.28878175  0.17330543  1  0.122078  0.000918  0.114358  0.13801  0.000275  1.011505  0.0
H  H51  1  0.11366279  0.43829838  0.16644246  1  0.115506  0.00201  0.120078  0.092872  0.000615  1.004218  0.001
H  H52  1  0.85946494  0.08082195  0.27800326  1  0.05484  4e-06  0.100053  0.109104  -7.9e-05  1.020611  0.0
H  H53  1  0.75698830  0.06432012  0.23310152  1  0.065128  4.6e-05  0.105696  0.127391  9e-06  0.969747  0.0
H  H54  1  0.63247521  0.04795679  0.30867852  1  0.033228  2.8e-05  0.087322  0.084497  1.6e-05  0.995513  0.0
H  H55  1  0.73493236  0.07040968  0.35361766  1  0.033025  1.4e-05  0.087204  0.081323  2e-06  1.004606  0.0
H  H56  1  0.78998548  0.94710875  0.31908399  1  0.01904  1.7e-05  0.082759  0.075438  -5.6e-05  0.997092  0.0
H  H57  1  0.68331602  0.92364290  0.27688089  1  0.007528  1.9e-05  0.083491  0.072335  8e-06  0.99657  0.0
H  H58  1  0.56651014  0.90367495  0.35650191  1  0.01798  -2e-06  0.084968  0.080596  -2.8e-05  0.99708  0.0
H  H59  1  0.67521629  0.92741929  0.39774272  1  0.025992  -3e-06  0.086417  0.081896  -2e-06  0.979797  0.0
H  H60  1  0.72569167  0.80322017  0.36192589  1  0.024283  6e-06  0.088496  0.083298  1e-06  0.982308  0.0
H  H61  1  0.60491385  0.77655203  0.39285080  1  0.025817  9e-06  0.086049  0.073651  -5e-06  0.993004  0.0
H  H62  1  0.52573144  0.78198921  0.30058184  1  0.052379  0.000103  0.09822  0.112215  -1.8e-05  1.031155  0.0
H  H63  1  0.64806854  0.78526881  0.27398363  1  0.088038  -2.2e-05  0.101876  0.121699  -1.6e-05  0.998413  0.0
H  H64  1  0.57074345  0.50403509  0.29257260  1  0.143736  0.000837  0.111556  0.135026  0.000374  1.026649  0.0
H  H65  1  0.47607824  0.35730275  0.27164591  1  0.082389  0.001928  0.119228  0.087425  0.000502  1.002018  0.001
H  H66  1  0.19860469  0.41436960  0.26364527  1  0.073657  0.002097  0.116012  0.085971  0.000727  1.02777  0.001
H  H67  1  0.27963770  0.56233990  0.28426958  1  0.144921  0.000959  0.10944  0.131362  0.000199  1.051631  0.0
H  H68  1  0.95695727  0.64784770  0.39648211  1  0.102627  0.000141  0.109804  0.114384  2.1e-05  0.983177  0.0
H  H69  1  0.97957765  0.63859367  0.49343451  1  0.066418  7.8e-05  0.108635  0.124919  1.6e-05  1.000441  0.0
H  H70  1  0.26962738  0.58610654  0.46793381  1  0.090871  -6e-06  0.113001  0.130067  -2.8e-05  0.977233  0.0
H  H71  1  0.24899877  0.60009291  0.37070817  1  0.099108  0.000338  0.105878  0.110114  5.5e-05  1.006305  0.0
H  H72  1  0.97749125  0.52857448  0.59477533  1  0.065925  0.000158  0.1009  0.115225  6.1e-05  1.053635  0.0
H  H73  1  0.88533240  0.60163898  0.65569848  1  0.092461  8.7e-05  0.104923  0.107171  -9.9e-05  1.013341  0.0
H  H74  1  0.10075428  0.83457101  0.61791442  1  0.091807  0.00041  0.109489  0.115318  0.000103  0.994581  0.0
H  H75  1  0.19232797  0.76156198  0.55674007  1  0.090385  0.000117  0.104813  0.116274  5.1e-05  1.033034  0.0
H  H76  1  0.17237433  0.86326362  0.40951872  1  0.077133  0.000581  0.107189  0.109046  0.000281  0.997298  0.0
H  H77  1  0.20699200  0.91595066  0.50190152  1  0.080847  3.1e-05  0.11194  0.129001  1.6e-05  0.977663  0.0
H  H78  1  0.47944411  0.83104319  0.50530805  1  0.08727  4.4e-05  0.10636  0.123617  2.5e-05  1.006744  0.0
H  H79  1  0.44531525  0.78084101  0.41280043  1  0.077898  0.000437  0.106548  0.10814  0.000243  1.010852  0.0
H  H80  1  0.35448003  0.77451691  0.61299116  1  0.096496  0.000141  0.112217  0.13108  5.7e-05  0.9933  0.0
H  H81  1  0.49805223  0.75449073  0.66873194  1  0.076483  0.000108  0.106816  0.110037  -3e-05  1.001039  0.0
H  H82  1  0.68053806  0.99910744  0.62794310  1  0.096568  0.000305  0.102241  0.105536  4.5e-05  1.022542  0.0
H  H83  1  0.53689580  0.01943562  0.57223423  1  0.09698  0.000112  0.101803  0.114163  3e-05  1.045611  0.0
H  H84  1  0.91275223  0.68542078  0.28061481  1  0.52369  0.000134  0.310193  0.289756  5.2e-05  0.995001  0.0
H  H85  1  0.42679646  0.16665235  0.20596236  1  0.498316  -6.1e-05  0.316858  0.290754  -0.000215  0.956679  0.0
H  H86  1  0.92464035  0.99730765  0.22033585  1  0.136556  0.001892  0.118003  0.093279  0.000745  1.030373  0.002
H  H87  1  0.82642928  0.84938057  0.20925247  1  0.114133  0.000616  0.114306  0.137813  0.000238  1.015538  0.0
H  H88  1  0.02561545  0.78878575  0.32668940  1  0.12221  0.000918  0.114275  0.137917  0.000275  1.011642  0.0
H  H89  1  0.11366467  0.93830242  0.33355472  1  0.115508  0.00201  0.120083  0.09288  0.000615  1.004314  0.001
H  H90  1  0.85946466  0.58082222  0.22199809  1  0.05486  4e-06  0.100082  0.109123  -7.9e-05  1.020599  0.0
H  H91  1  0.75698901  0.56432315  0.26689817  1  0.06516  4.6e-05  0.105689  0.127407  9e-06  0.969749  0.0
H  H92  1  0.63247651  0.54795749  0.19132228  1  0.033215  2.8e-05  0.08732  0.084518  1.6e-05  0.995529  0.0
H  H93  1  0.73493277  0.57041012  0.14638283  1  0.033047  1.4e-05  0.087194  0.08131  2e-06  1.004602  0.0
H  H94  1  0.78998491  0.44710851  0.18091661  1  0.019032  1.7e-05  0.082758  0.075442  -5.6e-05  0.997115  0.0
H  H95  1  0.68331633  0.42364291  0.22311962  1  0.007502  1.9e-05  0.083554  0.072405  8e-06  0.996747  0.0
H  H96  1  0.56651039  0.40367511  0.14349851  1  0.017981  -2e-06  0.084983  0.080613  -2.8e-05  0.997072  0.0
H  H97  1  0.67521735  0.42741981  0.10225739  1  0.025947  -3e-06  0.086414  0.081885  -2e-06  0.979817  0.0
H  H98  1  0.72569095  0.30321967  0.13807357  1  0.024299  6e-06  0.088508  0.083312  1e-06  0.982305  0.0
H  H99  1  0.60491345  0.27655259  0.10714855  1  0.025786  9e-06  0.086029  0.073626  -5e-06  0.993033  0.0
H  H100  1  0.52573072  0.28198846  0.19941710  1  0.052378  0.000103  0.098245  0.112275  -1.8e-05  1.031138  0.0
H  H101  1  0.64806780  0.28527009  0.22601614  1  0.08809  -2.3e-05  0.101862  0.121668  -1.6e-05  0.998372  0.0
H  H102  1  0.57074371  0.00403501  0.20742728  1  0.143727  0.000837  0.111552  0.135029  0.000374  1.026605  0.0
H  H103  1  0.47608178  0.85730120  0.22835319  1  0.082308  0.001928  0.119265  0.087495  0.000502  1.002086  0.001
H  H104  1  0.19860572  0.91436934  0.23635504  1  0.073687  0.002097  0.116014  0.085937  0.000727  1.027771  0.001
H  H105  1  0.27964073  0.06233925  0.21573112  1  0.144923  0.000959  0.109471  0.131437  0.000199  1.051594  0.0
H  H106  1  0.95695929  0.14784452  0.10351903  1  0.102707  0.000141  0.109798  0.11441  2.1e-05  0.98331  0.0
H  H107  1  0.97958039  0.13859300  0.00656584  1  0.066484  7.8e-05  0.108625  0.124926  1.6e-05  1.000404  0.0
H  H108  1  0.26962990  0.08610292  0.03206576  1  0.090816  -6e-06  0.112966  0.13006  -2.8e-05  0.977188  0.0
H  H109  1  0.24900099  0.10008802  0.12929221  1  0.099037  0.000338  0.105929  0.110194  5.5e-05  1.006245  0.0
H  H110  1  0.97749060  0.02857311  0.90522450  1  0.065893  0.000158  0.100908  0.115212  6.1e-05  1.053557  0.0
H  H111  1  0.88533375  0.10163725  0.84430188  1  0.092446  8.7e-05  0.104924  0.107194  -9.9e-05  1.013407  0.0
H  H112  1  0.10075334  0.33456888  0.88208541  1  0.091848  0.00041  0.109477  0.115303  0.000103  0.994507  0.0
H  H113  1  0.19232576  0.26156022  0.94325884  1  0.090449  0.000117  0.104833  0.116294  5.1e-05  1.032998  0.0
H  H114  1  0.17237115  0.36326036  0.09048067  1  0.077353  0.000581  0.107206  0.109016  0.000281  0.997274  0.0
H  H115  1  0.20699219  0.41594923  0.99809893  1  0.080891  3.1e-05  0.111938  0.128981  1.6e-05  0.977724  0.0
H  H116  1  0.47944397  0.33104298  0.99469269  1  0.08727  4.4e-05  0.106358  0.123629  2.5e-05  1.006759  0.0
H  H117  1  0.44531268  0.28083959  0.08719926  1  0.077964  0.000436  0.106548  0.108139  0.000243  1.010844  0.0
H  H118  1  0.35447890  0.27451419  0.88700980  1  0.096572  0.000141  0.112217  0.131036  5.7e-05  0.993402  0.0
H  H119  1  0.49805111  0.25448829  0.83126785  1  0.076441  0.000108  0.106812  0.109986  -3e-05  1.001042  0.0
H  H120  1  0.68053656  0.49910587  0.87205772  1  0.09662  0.000305  0.102266  0.10556  4.5e-05  1.022492  0.0
H  H121  1  0.53689390  0.51943465  0.92776659  1  0.097027  0.000112  0.101803  0.114185  3e-05  1.045587  0.0
H  H122  1  0.08724936  0.81458088  0.78061547  1  0.523661  0.000134  0.310178  0.289797  5.2e-05  0.994979  0.0
H  H123  1  0.57320504  0.33334736  0.70596206  1  0.498582  -6.1e-05  0.316828  0.290727  -0.000215  0.956694  0.0
H  H124  1  0.07535787  0.50269302  0.72033578  1  0.136607  0.001892  0.118027  0.09329  0.000745  1.03035  0.002
H  H125  1  0.17357070  0.65061880  0.70925199  1  0.114106  0.000616  0.114285  0.137754  0.000238  1.015578  0.0
H  H126  1  0.97438965  0.71121743  0.82669172  1  0.122119  0.000918  0.114322  0.138005  0.000275  1.011552  0.0
H  H127  1  0.88633719  0.56170203  0.83355665  1  0.115524  0.00201  0.120081  0.092898  0.000615  1.004243  0.001
H  H128  1  0.14053462  0.91917722  0.72199743  1  0.054847  4e-06  0.100058  0.109129  -7.9e-05  1.020602  0.0
H  H129  1  0.24300979  0.93567905  0.76689799  1  0.065148  4.6e-05  0.1057  0.127409  9e-06  0.969734  0.0
H  H130  1  0.36752288  0.95204239  0.69132178  1  0.033224  2.8e-05  0.087334  0.084529  1.6e-05  0.995539  0.0
H  H131  1  0.26506594  0.92959011  0.64638263  1  0.033026  1.4e-05  0.087206  0.081343  2e-06  1.004616  0.0
H  H132  1  0.21001356  0.05289104  0.68091631  1  0.019014  1.7e-05  0.082741  0.075394  -5.6e-05  0.997123  0.0
H  H133  1  0.31668228  0.07635689  0.72311941  1  0.007528  1.9e-05  0.083474  0.072304  8e-06  0.996573  0.0
H  H134  1  0.43348869  0.09632422  0.64349839  1  0.017994  -2e-06  0.084975  0.080599  -2.8e-05  0.997086  0.0
H  H135  1  0.32478254  0.07257989  0.60225757  1  0.025944  -3e-06  0.086425  0.081904  -2e-06  0.979856  0.0
H  H136  1  0.27430832  0.19678025  0.63807363  1  0.024285  6e-06  0.088487  0.083287  1e-06  0.982326  0.0
H  H137  1  0.39508551  0.22344652  0.60714793  1  0.025777  9e-06  0.086031  0.073621  -5e-06  0.993032  0.0
H  H138  1  0.47426854  0.21801120  0.69941767  1  0.052387  0.000103  0.098213  0.112187  -1.8e-05  1.031124  0.0
H  H139  1  0.35193091  0.21473222  0.72601588  1  0.088069  -2.3e-05  0.101864  0.121647  -1.6e-05  0.998392  0.0
H  H140  1  0.42925748  0.49596594  0.70742730  1  0.14376  0.000837  0.11155  0.135034  0.000374  1.02657  0.0
H  H141  1  0.52392311  0.64269953  0.72835203  1  0.082512  0.001928  0.119254  0.087434  0.000502  1.002108  0.001
H  H142  1  0.80139562  0.58562958  0.73635503  1  0.073659  0.002097  0.116022  0.085976  0.000727  1.027738  0.001
H  H143  1  0.72036081  0.43766051  0.71573111  1  0.144854  0.000959  0.109466  0.13136  0.000199  1.051646  0.0
H  H144  1  0.04304198  0.35215271  0.60351819  1  0.102642  0.000141  0.109795  0.114386  2.1e-05  0.983222  0.0
H  H145  1  0.02042139  0.36140613  0.50656579  1  0.066419  7.8e-05  0.108629  0.124907  1.6e-05  1.000511  0.0
H  H146  1  0.73037450  0.41389512  0.53206570  1  0.09087  -6e-06  0.113001  0.130068  -2.8e-05  0.977229  0.0
H  H147  1  0.75099995  0.39990813  0.62929213  1  0.099087  0.000338  0.105903  0.110129  5.6e-05  1.006297  0.0
H  H148  1  0.02250873  0.47142593  0.40522458  1  0.065915  0.000158  0.100898  0.115186  6.1e-05  1.05364  0.0
H  H149  1  0.11466906  0.39836143  0.34430221  1  0.092455  8.7e-05  0.104925  0.107167  -9.9e-05  1.01335  0.0
H  H150  1  0.89924518  0.16543002  0.38208548  1  0.091826  0.00041  0.109463  0.115218  0.000103  0.994541  0.0
H  H151  1  0.80767222  0.23843906  0.44326023  1  0.090422  0.000117  0.104814  0.116231  5.1e-05  1.033043  0.0
H  H152  1  0.82762670  0.13673989  0.59048040  1  0.0774  0.000581  0.107189  0.109021  0.000281  0.997345  0.0
H  H153  1  0.79300692  0.08405099  0.49809799  1  0.080935  3.1e-05  0.111941  0.129001  1.6e-05  0.977738  0.0
H  H154  1  0.52055419  0.16895660  0.49469225  1  0.08725  4.4e-05  0.106367  0.123647  2.5e-05  1.006693  0.0
H  H155  1  0.55468526  0.21915878  0.58719908  1  0.077932  0.000436  0.106548  0.108161  0.000243  1.010848  0.0
H  H156  1  0.64551859  0.22548165  0.38700953  1  0.09655  0.000141  0.112221  0.131079  5.7e-05  0.993316  0.0
H  H157  1  0.50194734  0.24550845  0.33126836  1  0.076525  0.000108  0.106814  0.110042  -3e-05  1.001046  0.0
H  H158  1  0.31946024  0.00089235  0.37205681  1  0.096548  0.000306  0.102233  0.105513  4.5e-05  1.022532  0.0
H  H159  1  0.46310208  0.98056294  0.42776567  1  0.096971  0.000112  0.101793  0.114171  3e-05  1.045608  0.0
C  C160  1  0.05719921  0.05105581  0.75612557  1  0.409163  0.00293  0.039577  0.09563  0.00172  3.980327  0.002
C  C161  1  0.11175632  0.13304914  0.76227185  1  0.034891  0.006004  -0.089321  -0.227449  0.00297  3.942062  0.005
C  C162  1  0.08329267  0.19388488  0.73240215  1  0.385896  0.001377  0.127331  0.304069  0.000431  4.011279  0.0
C  C163  1  0.00179243  0.16693552  0.69638972  1  0.065406  0.003184  -0.088401  -0.223141  0.00148  3.922429  0.003
C  C164  1  0.95170758  0.08371681  0.69269028  1  0.395828  0.002359  0.039508  0.094853  0.001437  3.983228  0.002
C  C165  1  0.20608943  0.31860548  0.77060150  1  1.38238  -0.000198  0.251913  0.553695  -0.000257  4.0309  0.0
C  C166  1  0.21765302  0.41082025  0.77253838  1  -0.037876  0.000188  -0.161695  -0.304535  7.3e-05  3.94856  0.0
C  C167  1  0.28948103  0.45778199  0.81497144  1  2.4e-05  1.9e-05  -0.168125  -0.126841  1.2e-05  3.960023  0.0
C  C168  1  0.28957197  0.54880874  0.81549443  1  -0.042048  -1e-06  -0.168183  -0.137255  -2e-05  3.944264  0.0
C  C169  1  0.35366624  0.60003357  0.85941068  1  -0.014728  6e-06  -0.167872  -0.14802  -1e-06  3.945359  0.0
C  C170  1  0.35308524  0.69124769  0.85841740  1  -0.019094  -2.3e-05  -0.161499  -0.115002  -2.1e-05  3.944649  0.0
C  C171  1  0.40279666  0.73492786  0.80807831  1  -0.070598  0.000122  -0.166892  -0.31579  6.2e-05  3.932216  0.0
C  C172  1  0.42365486  0.82811404  0.81002504  1  1.386394  -0.000739  0.248436  0.555266  -0.000928  4.029317  0.0
C  C173  1  0.56690783  0.95372140  0.78936998  1  0.365661  -0.004377  0.120604  0.298074  -0.005043  4.022841  -0.003
C  C174  1  0.51152706  0.01344579  0.78623752  1  -0.014935  0.005725  -0.092366  -0.23315  0.002891  3.925358  0.004
C  C175  1  0.56438150  0.09495507  0.77483669  1  0.518156  -0.002941  0.04717  0.106986  -0.00375  3.967904  -0.002
C  C176  1  0.71917261  0.06332677  0.77038790  1  0.52545  -0.00306  0.040857  0.108459  -0.003487  3.96087  -0.002
C  C177  1  0.67355691  0.98102708  0.78171468  1  -0.070813  0.005487  -0.097609  -0.24494  0.002718  3.9472  0.004
C  C178  1  0.91671326  0.87193032  0.82031854  1  1.502563  0.007979  0.212054  0.576984  0.005651  4.179572  0.005
C  C179  1  0.89837354  0.87480280  0.87747399  1  0.03593  0.002323  -0.031583  -0.074837  0.001057  4.016922  0.001
C  C180  1  0.97382748  0.86408778  0.91245362  1  -0.029948  0.003593  -0.077197  -0.058832  0.001815  3.982151  0.002
C  C181  1  0.96172525  0.86986908  0.96645252  1  0.018813  0.000307  -0.103388  -0.213243  0.000105  3.999089  0.0
C  C182  1  0.87376177  0.88840753  0.98598444  1  0.376404  0.00294  0.094586  0.277599  0.001521  4.038159  0.002
C  C183  1  0.79809611  0.89998844  0.95164069  1  0.036951  -0.000866  -0.09884  -0.203464  -0.000988  3.987413  -0.001
C  C184  1  0.81010331  0.89228246  0.89771856  1  -0.110163  0.003012  -0.078455  -0.057852  0.00145  3.970024  0.002
C  C185  1  0.91074190  0.85826938  0.07303114  1  0.346699  -0.001228  0.085352  0.259545  -0.001442  4.040007  -0.001
C  C186  1  0.99610059  0.90467200  0.10051259  1  0.018715  0.000993  -0.098661  -0.195978  0.000428  3.980544  0.001
C  C187  1  0.04694813  0.86373675  0.13427142  1  -0.037102  -0.000352  -0.079296  -0.064224  -0.000866  3.966275  0.0
C  C188  1  0.01261833  0.77748201  0.14041276  1  0.012184  0.009016  -0.02362  -0.056095  0.004618  3.98338  0.007
C  C189  1  0.92583414  0.73230175  0.11263266  1  -0.044153  -0.000237  -0.077046  -0.059024  -0.000789  3.960679  0.0
C  C190  1  0.87458537  0.77254278  0.07895396  1  0.027815  0.001007  -0.096754  -0.195209  0.000451  3.99415  0.001
C  C191  1  0.06718342  0.73336232  0.17592349  1  1.565034  -0.001767  0.217177  0.589754  -0.002222  4.162772  -0.001
C  C192  1  0.70904832  0.70691048  0.84926555  1  1.505649  -0.002348  0.194818  0.551595  -0.003522  4.212452  -0.004
C  C193  1  0.69224923  0.68015960  0.90497715  1  0.006833  0.002142  -0.029357  -0.066398  0.001162  4.009196  0.001
C  C194  1  0.76020040  0.64306220  0.93061859  1  0.010784  0.000289  -0.077494  -0.06222  -6.4e-05  3.984725  0.0
C  C195  1  0.74168809  0.61405692  0.98187864  1  -0.011672  0.000509  -0.101653  -0.209786  0.000168  4.001562  0.0
C  C196  1  0.65471205  0.62279374  0.00859682  1  0.366499  -0.001071  0.091173  0.267084  -0.00121  4.058799  -0.001
C  C197  1  0.58755988  0.66180245  0.98424343  1  -0.050845  0.000698  -0.109633  -0.228222  0.000262  4.007954  0.001
C  C198  1  0.60682606  0.68979157  0.93262783  1  -0.006444  -5e-05  -0.077922  -0.059992  -0.000366  3.984656  0.0
C  C199  1  0.55970059  0.60308895  0.08859347  1  0.35224  0.00048  0.086485  0.253492  0.000238  4.034988  0.0
C  C200  1  0.57302088  0.67763042  0.11558356  1  0.024631  0.000471  -0.089559  -0.18388  0.000231  3.98883  0.0
C  C201  1  0.49349176  0.68818324  0.14693139  1  -0.001261  0.001182  -0.077455  -0.059601  0.000507  3.957293  0.001
C  C202  1  0.40129385  0.62516064  0.15087020  1  -0.012536  0.009172  -0.024602  -0.057838  0.004863  3.989876  0.007
C  C203  1  0.39044355  0.55012479  0.12410021  1  -0.039558  0.001476  -0.081155  -0.066391  0.000616  3.962996  0.001
C  C204  1  0.46994533  0.53864649  0.09295673  1  0.032718  0.000424  -0.09626  -0.192045  0.000171  3.980878  0.0
C  C205  1  0.31562050  0.63856744  0.18304960  1  1.502044  0.00198  0.219784  0.591751  0.001683  4.157237  0.001
C  C206  1  0.94279741  0.44894234  0.25612672  1  0.409477  0.002928  0.039521  0.095491  0.001719  3.980382  0.002
C  C207  1  0.88824232  0.36694843  0.26227279  1  0.034917  0.006004  -0.089312  -0.2274  0.00297  3.941881  0.005
C  C208  1  0.91670798  0.30611437  0.23240138  1  0.385889  0.001377  0.127298  0.304093  0.000431  4.011241  0.0
C  C209  1  0.99820567  0.33306289  0.19638865  1  0.065367  0.003184  -0.088422  -0.223147  0.001479  3.922432  0.003
C  C210  1  0.04829177  0.41628095  0.19268984  1  0.395842  0.002359  0.039554  0.094886  0.001436  3.983057  0.002
C  C211  1  0.79391208  0.18139400  0.27060119  1  1.38234  -0.000198  0.251862  0.553666  -0.000257  4.030899  0.0
C  C212  1  0.78234608  0.08917862  0.27253785  1  -0.037859  0.000188  -0.161688  -0.304504  7.3e-05  3.94851  0.0
C  C213  1  0.71051853  0.04221589  0.31497117  1  4e-06  1.9e-05  -0.168118  -0.126831  1.2e-05  3.959959  0.0
C  C214  1  0.71042890  0.95119065  0.31549392  1  -0.042101  -1e-06  -0.168126  -0.137119  -2e-05  3.944179  0.0
C  C215  1  0.64633382  0.89996546  0.35941003  1  -0.014668  6e-06  -0.167819  -0.147935  -1e-06  3.945207  0.0
C  C216  1  0.64691503  0.80875196  0.35841693  1  -0.019081  -2.3e-05  -0.161499  -0.114983  -2.1e-05  3.944612  0.0
C  C217  1  0.59720196  0.76507149  0.30807772  1  -0.070561  0.000122  -0.166939  -0.315859  6.2e-05  3.932231  0.0
C  C218  1  0.57634283  0.67188469  0.31002501  1  1.386374  -0.000738  0.24853  0.555454  -0.000927  4.029277  0.0
C  C219  1  0.43309020  0.54627845  0.28936882  1  0.365444  -0.004374  0.120618  0.298069  -0.005039  4.022939  -0.003
C  C220  1  0.48847427  0.48655750  0.28623701  1  -0.01493  0.005724  -0.092278  -0.232994  0.00289  3.925354  0.004
C  C221  1  0.43561938  0.40504691  0.27483637  1  0.518437  -0.002939  0.047141  0.106897  -0.003748  3.967848  -0.002
C  C222  1  0.28082689  0.43667332  0.27038602  1  0.52513  -0.003058  0.040846  0.10841  -0.003485  3.961139  -0.002
C  C223  1  0.32644057  0.51897335  0.28171382  1  -0.070999  0.005486  -0.097624  -0.244955  0.002717  3.947267  0.004
C  C224  1  0.08328782  0.62807405  0.32031981  1  1.502448  0.007978  0.211966  0.577004  0.005651  4.179575  0.005
C  C225  1  0.10162574  0.62519821  0.37747447  1  0.035889  0.002323  -0.031619  -0.074852  0.001057  4.01678  0.001
C  C226  1  0.02617192  0.63591343  0.41245370  1  -0.029986  0.003594  -0.077169  -0.058804  0.001815  3.982085  0.002
C  C227  1  0.03827349  0.63012998  0.46645181  1  0.018806  0.000307  -0.103382  -0.213231  0.000105  3.999218  0.0
C  C228  1  0.12623766  0.61159350  0.48598371  1  0.37644  0.002941  0.094543  0.277542  0.001521  4.038167  0.002
C  C229  1  0.20190489  0.60001301  0.45163878  1  0.037001  -0.000866  -0.098827  -0.203501  -0.000988  3.987357  -0.001
C  C230  1  0.18989624  0.60771928  0.39771707  1  -0.11017  0.003012  -0.078423  -0.057799  0.00145  3.969984  0.002
C  C231  1  0.08925899  0.64173102  0.57303022  1  0.346744  -0.001228  0.085362  0.259606  -0.001442  4.039982  -0.001
C  C232  1  0.00390134  0.59532920  0.60051389  1  0.018268  0.000993  -0.098682  -0.196133  0.000428  3.980574  0.001
C  C233  1  0.95305359  0.63626589  0.63427198  1  -0.037026  -0.000352  -0.079278  -0.064075  -0.000866  3.966325  0.0
C  C234  1  0.98738583  0.72252128  0.64041157  1  0.012661  0.009016  -0.023765  -0.056488  0.004618  3.983767  0.007
C  C235  1  0.07417046  0.76770076  0.61263202  1  -0.044267  -0.000237  -0.076952  -0.058727  -0.000789  3.960615  0.0
C  C236  1  0.12541764  0.72745952  0.57895325  1  0.027807  0.001007  -0.09682  -0.1954  0.000451  3.994275  0.001
C  C237  1  0.93282717  0.76664677  0.67592199  1  1.565219  -0.001765  0.217322  0.589861  -0.002219  4.162761  -0.001
C  C238  1  0.29094823  0.79308912  0.34926413  1  1.505488  -0.002348  0.194761  0.551284  -0.003522  4.212609  -0.004
C  C239  1  0.30774898  0.81984033  0.40497777  1  0.006777  0.002143  -0.029369  -0.066339  0.001162  4.009064  0.001
C  C240  1  0.23980032  0.85693850  0.43062044  1  0.011141  0.000289  -0.077509  -0.06223  -6.4e-05  3.984717  0.0
C  C241  1  0.25831206  0.88594409  0.48188018  1  -0.011643  0.000509  -0.101684  -0.209851  0.000168  4.001458  0.0
C  C242  1  0.34529072  0.87720814  0.50859811  1  0.366542  -0.001071  0.09121  0.267096  -0.00121  4.058824  -0.001
C  C243  1  0.41243976  0.83819920  0.48424412  1  -0.05091  0.000698  -0.109631  -0.228229  0.000262  4.007987  0.001
C  C244  1  0.39317351  0.81020791  0.43262806  1  -0.006363  -5.1e-05  -0.077909  -0.059978  -0.000366  3.984553  0.0
C  C245  1  0.44030109  0.89691155  0.58859405  1  0.352227  0.000479  0.086472  0.253436  0.000237  4.03509  0.0
C  C246  1  0.42698236  0.82237025  0.61558436  1  0.024689  0.000471  -0.089522  -0.183838  0.000231  3.988688  0.0
C  C247  1  0.50651201  0.81181885  0.64693219  1  -0.001216  0.001181  -0.077604  -0.059809  0.000507  3.957381  0.001
C  C248  1  0.59871424  0.87484334  0.65086882  1  -0.012826  0.009173  -0.024533  -0.057839  0.004863  3.989797  0.007
C  C249  1  0.60955919  0.94987654  0.62409941  1  -0.039428  0.001475  -0.081151  -0.066393  0.000616  3.963073  0.001
C  C250  1  0.53005510  0.96135465  0.59295749  1  0.032737  0.000424  -0.096224  -0.191976  0.000171  3.980929  0.0
C  C251  1  0.68438759  0.86143859  0.68304862  1  1.500842  0.001981  0.219829  0.591853  0.001679  4.157013  0.001
C  C252  1  0.94280045  0.94894584  0.24387276  1  0.409191  0.002931  0.039621  0.09565  0.00172  3.980401  0.002
C  C253  1  0.88824503  0.86695313  0.23772609  1  0.034909  0.006005  -0.089349  -0.227457  0.00297  3.941956  0.005
C  C254  1  0.91671068  0.80611678  0.26759618  1  0.386249  0.001377  0.127318  0.303917  0.000431  4.01132  0.0
C  C255  1  0.99821113  0.83306676  0.30360704  1  0.065483  0.003184  -0.088351  -0.222963  0.001479  3.922395  0.003
C  C256  1  0.04829556  0.91628422  0.30730766  1  0.395329  0.002361  0.039478  0.094778  0.001437  3.983247  0.002
C  C257  1  0.79391129  0.68139493  0.22939840  1  1.38243  -0.000198  0.251873  0.553566  -0.000257  4.031011  0.0
C  C258  1  0.78234623  0.58918016  0.22746231  1  -0.037914  0.000188  -0.161716  -0.304512  7.3e-05  3.948641  0.0
C  C259  1  0.71051928  0.54221718  0.18502964  1  4.2e-05  1.9e-05  -0.168078  -0.126791  1.2e-05  3.959965  0.0
C  C260  1  0.71042907  0.45119044  0.18450705  1  -0.042087  -1e-06  -0.168197  -0.137241  -2e-05  3.944367  0.0
C  C261  1  0.64633427  0.39996622  0.14059001  1  -0.014604  6e-06  -0.167833  -0.147932  -1e-06  3.94519  0.0
C  C262  1  0.64691359  0.30875149  0.14158290  1  -0.019075  -2.3e-05  -0.161498  -0.114968  -2.1e-05  3.944592  0.0
C  C263  1  0.59720048  0.26507069  0.19192120  1  -0.070581  0.000122  -0.166922  -0.31584  6.2e-05  3.932243  0.0
C  C264  1  0.57634355  0.17188389  0.18997526  1  1.386382  -0.000739  0.248495  0.555356  -0.000928  4.029282  0.0
C  C265  1  0.43309227  0.04627716  0.21062993  1  0.365107  -0.004377  0.120619  0.298035  -0.005043  4.022809  -0.003
C  C266  1  0.48847419  0.98655401  0.21376278  1  -0.015162  0.005726  -0.092323  -0.233071  0.002891  3.925292  0.004
C  C267  1  0.43561933  0.90504348  0.22516361  1  0.518695  -0.002941  0.04713  0.106861  -0.00375  3.967902  -0.002
C  C268  1  0.28082917  0.93667240  0.22961398  1  0.525233  -0.003061  0.040854  0.108411  -0.003487  3.960934  -0.002
C  C269  1  0.32644287  0.01897272  0.21828680  1  -0.070738  0.005487  -0.097627  -0.24497  0.002718  3.947284  0.004
C  C270  1  0.08328725  0.12806947  0.17968215  1  1.502492  0.00798  0.212007  0.577042  0.005652  4.179548  0.005
C  C271  1  0.10163004  0.12519514  0.12252710  1  0.03606  0.002323  -0.031555  -0.074851  0.001057  4.01689  0.001
C  C272  1  0.02617326  0.13590829  0.08754668  1  -0.029891  0.003594  -0.077141  -0.058818  0.001815  3.9823  0.002
C  C273  1  0.03827538  0.13012885  0.03354896  1  0.01882  0.000307  -0.103394  -0.21323  0.000105  3.999203  0.0
C  C274  1  0.12623948  0.11159226  0.01401626  1  0.376462  0.002941  0.094525  0.277476  0.001521  4.038072  0.002
C  C275  1  0.20190746  0.10000949  0.04836001  1  0.036832  -0.000866  -0.098829  -0.203504  -0.000988  3.987331  -0.001
C  C276  1  0.18989952  0.10771548  0.10228134  1  -0.110196  0.003012  -0.078469  -0.057859  0.00145  3.970098  0.002
C  C277  1  0.08925672  0.14172917  0.92696955  1  0.346703  -0.001227  0.085336  0.259495  -0.001442  4.040078  -0.001
C  C278  1  0.00390235  0.09532842  0.89948811  1  0.018685  0.000993  -0.098678  -0.196023  0.000428  3.980608  0.001
C  C279  1  0.95305386  0.13626304  0.86572809  1  -0.037074  -0.000352  -0.079316  -0.06421  -0.000866  3.966353  0.0
C  C280  1  0.98738292  0.22251778  0.85958832  1  0.012238  0.009016  -0.023714  -0.056326  0.004618  3.98345  0.007
C  C281  1  0.07416585  0.26769866  0.88736843  1  -0.044157  -0.000237  -0.07695  -0.058793  -0.000789  3.96041  0.0
C  C282  1  0.12541535  0.22745763  0.92104752  1  0.027812  0.001007  -0.096823  -0.195355  0.000451  3.994162  0.001
C  C283  1  0.93281857  0.26663747  0.82407681  1  1.565037  -0.001766  0.217232  0.589984  -0.002221  4.162557  -0.001
C  C284  1  0.29094682  0.29308869  0.15073278  1  1.505661  -0.002349  0.194741  0.551338  -0.003522  4.212592  -0.004
C  C285  1  0.30774844  0.31983833  0.09502078  1  0.00678  0.002142  -0.029347  -0.066366  0.001162  4.009224  0.001
C  C286  1  0.23979811  0.35693821  0.06937974  1  0.011053  0.000289  -0.077533  -0.062194  -6.4e-05  3.984638  0.0
C  C287  1  0.25830958  0.38594101  0.01811969  1  -0.011756  0.000509  -0.101639  -0.209765  0.000168  4.001478  0.0
C  C288  1  0.34528835  0.37720791  0.99140309  1  0.366531  -0.001071  0.091157  0.267056  -0.001209  4.058764  -0.001
C  C289  1  0.41244073  0.33819982  0.01575609  1  -0.05085  0.000698  -0.109653  -0.228293  0.000262  4.007917  0.001
C  C290  1  0.39317109  0.31020699  0.06737168  1  -0.006628  -5e-05  -0.077964  -0.06001  -0.000366  3.984703  0.0
C  C291  1  0.44029919  0.39691084  0.91140644  1  0.352238  0.00048  0.086508  0.253532  0.000238  4.034988  0.0
C  C292  1  0.42697942  0.32236875  0.88441596  1  0.024468  0.000471  -0.089572  -0.183844  0.000231  3.988808  0.0
C  C293  1  0.50650875  0.31181655  0.85306891  1  -0.001238  0.001182  -0.077495  -0.059715  0.000507  3.95741  0.001
C  C294  1  0.59870740  0.37483915  0.84913049  1  -0.012564  0.009172  -0.024566  -0.057746  0.004863  3.989854  0.007
C  C295  1  0.60955623  0.44987500  0.87590048  1  -0.039526  0.001476  -0.081157  -0.066378  0.000616  3.963015  0.001
C  C296  1  0.53005477  0.46135206  0.90704318  1  0.032733  0.000424  -0.096277  -0.19213  0.000171  3.980972  0.0
C  C297  1  0.68437948  0.36143297  0.81695070  1  1.502063  0.001981  0.219783  0.591702  0.001684  4.157343  0.001
C  C298  1  0.05720163  0.55105746  0.74387319  1  0.409533  0.002927  0.039548  0.095557  0.001719  3.980412  0.002
C  C299  1  0.11175724  0.63305075  0.73772673  1  0.034569  0.006003  -0.08932  -0.22738  0.002969  3.941939  0.005
C  C300  1  0.08329443  0.69388666  0.76759734  1  0.38621  0.001376  0.127342  0.304009  0.000431  4.011283  0.0
C  C301  1  0.00179526  0.66693814  0.80360968  1  0.065359  0.003184  -0.088439  -0.22312  0.00148  3.922361  0.003
C  C302  1  0.95170895  0.58371946  0.80730967  1  0.39586  0.002358  0.039497  0.09478  0.001436  3.983224  0.002
C  C303  1  0.20609106  0.81860704  0.72939833  1  1.382315  -0.000198  0.251883  0.553647  -0.000257  4.030939  0.0
C  C304  1  0.21765296  0.91082117  0.72746166  1  -0.037824  0.000188  -0.161699  -0.304525  7.3e-05  3.948615  0.0
C  C305  1  0.28947956  0.95778328  0.68502913  1  2.5e-05  1.9e-05  -0.16812  -0.126908  1.2e-05  3.960035  0.0
C  C306  1  0.28956940  0.04880914  0.68450638  1  -0.042098  -1e-06  -0.1681  -0.137018  -2e-05  3.944113  0.0
C  C307  1  0.35366501  0.10003371  0.64059027  1  -0.014606  6e-06  -0.167834  -0.14796  -1e-06  3.945251  0.0
C  C308  1  0.35308569  0.19124845  0.64158258  1  -0.019056  -2.3e-05  -0.161476  -0.114957  -2.1e-05  3.944607  0.0
C  C309  1  0.40279897  0.23492955  0.69192140  1  -0.070562  0.000122  -0.166921  -0.315744  6.2e-05  3.932209  0.0
C  C310  1  0.42365695  0.32811510  0.68997489  1  1.386361  -0.000738  0.248468  0.55533  -0.000927  4.029279  0.0
C  C311  1  0.56690883  0.45372134  0.71063148  1  0.364964  -0.004376  0.12059  0.298008  -0.005042  4.022969  -0.003
C  C312  1  0.51152781  0.51344477  0.71376329  1  -0.015124  0.005724  -0.092319  -0.233081  0.002891  3.92535  0.004
C  C313  1  0.56438123  0.59495536  0.72516235  1  0.51844  -0.00294  0.047219  0.107078  -0.003749  3.967932  -0.002
C  C314  1  0.71917288  0.56332647  0.72961389  1  0.525214  -0.003059  0.04084  0.108461  -0.003486  3.961045  -0.002
C  C315  1  0.67355835  0.48102830  0.71828648  1  -0.070483  0.005486  -0.09761  -0.244869  0.002717  3.947308  0.004
C  C316  1  0.91671069  0.37192636  0.67968049  1  1.503003  0.007977  0.212013  0.577041  0.00565  4.179635  0.005
C  C317  1  0.89837203  0.37480220  0.62252583  1  0.035923  0.002323  -0.031577  -0.074833  0.001057  4.01675  0.001
C  C318  1  0.97382943  0.36408884  0.58754581  1  -0.029958  0.003594  -0.077146  -0.058778  0.001815  3.982069  0.002
C  C319  1  0.96172681  0.36986919  0.53354810  1  0.018784  0.000307  -0.103408  -0.213294  0.000105  3.999249  0.0
C  C320  1  0.87376274  0.38840815  0.51401659  1  0.376429  0.002941  0.094599  0.277653  0.001521  4.038122  0.002
C  C321  1  0.79809604  0.39998802  0.54836033  1  0.03696  -0.000866  -0.098864  -0.20354  -0.000988  3.987485  -0.001
C  C322  1  0.81010227  0.39228113  0.60228205  1  -0.110142  0.003012  -0.078456  -0.057822  0.00145  3.970069  0.002
C  C323  1  0.91074362  0.35827063  0.42696969  1  0.34674  -0.001228  0.085349  0.259501  -0.001442  4.040109  -0.001
C  C324  1  0.99609865  0.40467121  0.39948641  1  0.018383  0.000993  -0.098636  -0.195962  0.000428  3.980602  0.001
C  C325  1  0.04694639  0.36373453  0.36572832  1  -0.037139  -0.000352  -0.079264  -0.064101  -0.000866  3.966299  0.0
C  C326  1  0.01261374  0.27747789  0.35958834  1  0.012672  0.009016  -0.02379  -0.056502  0.004618  3.983735  0.007
C  C327  1  0.92582994  0.23230090  0.38736867  1  -0.04424  -0.000237  -0.076996  -0.058709  -0.000789  3.9607  0.0
C  C328  1  0.87458297  0.27254275  0.42104705  1  0.027823  0.001007  -0.096733  -0.195223  0.000451  3.994347  0.001
C  C329  1  0.06717240  0.23335241  0.32407910  1  1.5658  -0.001765  0.217346  0.589986  -0.002221  4.162514  -0.001
C  C330  1  0.70905122  0.20691192  0.65073577  1  1.505393  -0.002348  0.194758  0.551284  -0.003522  4.21263  -0.004
C  C331  1  0.69225121  0.18016070  0.59502292  1  0.006769  0.002142  -0.029373  -0.066339  0.001162  4.009079  0.001
C  C332  1  0.76020041  0.14306191  0.56937907  1  0.010931  0.000289  -0.077531  -0.062229  -6.4e-05  3.984699  0.0
C  C333  1  0.74168855  0.11405818  0.51811933  1  -0.011765  0.000509  -0.101665  -0.209833  0.000168  4.001489  0.0
C  C334  1  0.65470927  0.12279227  0.49140219  1  0.366494  -0.001071  0.091223  0.267145  -0.00121  4.058668  -0.001
C  C335  1  0.58755896  0.16180183  0.51575696  1  -0.050833  0.000698  -0.10966  -0.228315  0.000262  4.007837  0.001
C  C336  1  0.60682585  0.18979064  0.56737263  1  -0.00643  -5e-05  -0.077921  -0.06002  -0.000366  3.984576  0.0
C  C337  1  0.55969774  0.10308762  0.41140703  1  0.352706  0.000478  0.086486  0.253471  0.000237  4.035075  0.0
C  C338  1  0.57301700  0.17762831  0.38441555  1  0.024671  0.000471  -0.089499  -0.183821  0.000231  3.988714  0.0
C  C339  1  0.49348703  0.18818094  0.35306850  1  -0.001248  0.001181  -0.077584  -0.05978  0.000506  3.957358  0.001
C  C340  1  0.40128438  0.12515522  0.34913187  1  -0.012797  0.009173  -0.024559  -0.057892  0.004863  3.989883  0.007
C  C341  1  0.39044111  0.05012263  0.37590089  1  -0.03942  0.001475  -0.081125  -0.066298  0.000615  3.963111  0.001
C  C342  1  0.46994247  0.03864514  0.40704438  1  0.032666  0.000424  -0.096274  -0.192124  0.000171  3.980973  0.0
C  C343  1  0.31561124  0.13856059  0.31695247  1  1.501342  0.001976  0.219831  0.59188  0.001676  4.15702  0.001
N  N344  1  0.97771499  0.02524931  0.72227728  1  -1.257966  0.073648  -0.360983  -0.292682  0.038019  3.653717  0.049
N  N345  1  0.12592258  0.27776244  0.73815076  1  -1.285056  0.002941  -0.396628  -0.389923  0.001381  3.540257  0.002
N  N346  1  0.52426659  0.86976644  0.79786545  1  -1.260268  -1.5e-05  -0.394488  -0.382221  -0.000116  3.520797  0.0
N  N347  1  0.66640423  0.12072601  0.76686995  1  -1.255104  0.074157  -0.338256  -0.259815  0.039508  3.581645  0.061
N  N348  1  0.02227983  0.47474802  0.22227736  1  -1.25817  0.073638  -0.360974  -0.292636  0.038012  3.653605  0.049
N  N349  1  0.87407587  0.22223684  0.23814978  1  -1.28509  0.00294  -0.396593  -0.389948  0.001381  3.540109  0.002
N  N350  1  0.47573074  0.63023347  0.29786569  1  -1.260244  -1.5e-05  -0.394526  -0.382298  -0.000116  3.520783  0.0
N  N351  1  0.33359863  0.37927530  0.26686953  1  -1.254775  0.074144  -0.338211  -0.2598  0.039503  3.581794  0.061
N  N352  1  0.02228624  0.97475482  0.27772105  1  -1.257637  0.073648  -0.361008  -0.292714  0.038021  3.653696  0.049
N  N353  1  0.87407930  0.72223921  0.26184796  1  -1.285488  0.002941  -0.396649  -0.389805  0.001381  3.540321  0.002
N  N354  1  0.47573372  0.13023274  0.20213406  1  -1.259912  -1.6e-05  -0.394583  -0.382307  -0.000116  3.52079  0.0
N  N355  1  0.33359976  0.87927317  0.23313035  1  -1.254894  0.074157  -0.338222  -0.259685  0.039507  3.581535  0.061
N  N356  1  0.97771794  0.52525239  0.77772215  1  -1.258173  0.073636  -0.36092  -0.292587  0.038012  3.653698  0.049
N  N357  1  0.12592432  0.77776420  0.76184895  1  -1.28513  0.00294  -0.396625  -0.389914  0.00138  3.540205  0.002
N  N358  1  0.52426735  0.36976571  0.70213461  1  -1.260229  -1.6e-05  -0.394481  -0.382218  -0.000116  3.520874  0.0
N  N359  1  0.66640136  0.62072511  0.73312998  1  -1.254826  0.074151  -0.33831  -0.260033  0.039507  3.581831  0.061
O  O360  1  0.26002235  0.28315159  0.79530073  1  -1.138432  0.001024  -0.280955  -0.476317  0.000513  2.130002  0.001
O  O361  1  0.35797812  0.86394214  0.82077437  1  -1.144097  -0.000203  -0.296988  -0.487947  -0.00028  2.084581  0.0
O  O362  1  0.84013511  0.87163652  0.78843797  1  -1.156226  0.118543  -0.324333  -0.599092  0.062157  2.508097  0.091
O  O363  1  0.00374947  0.87367641  0.80262874  1  -1.18966  0.033288  -0.300482  -0.550488  0.016253  2.240641  0.027
O  O364  1  0.85874411  0.89809069  0.03894729  1  -1.097143  0.001243  -0.159173  -0.22574  0.000593  2.518654  0.001
O  O365  1  0.03790529  0.65380440  0.17493985  1  -1.170966  0.099854  -0.317008  -0.53832  0.050662  2.401159  0.077
O  O366  1  0.13909994  0.77583117  0.20483458  1  -1.170634  0.069614  -0.305764  -0.569999  0.036933  2.445846  0.057
O  O367  1  0.64458257  0.73585136  0.82458994  1  -1.164277  0.062461  -0.314508  -0.559539  0.031842  2.212399  0.054
O  O368  1  0.78993247  0.69970399  0.82524628  1  -1.147261  0.085808  -0.316504  -0.552278  0.044529  2.288208  0.07
O  O369  1  0.64052276  0.59036123  0.05860952  1  -1.1075  -0.000148  -0.152231  -0.223613  -0.000178  2.562547  0.0
O  O370  1  0.22760465  0.58615184  0.17817629  1  -1.152854  0.093555  -0.313107  -0.543684  0.047299  2.389523  0.075
O  O371  1  0.33558333  0.70174762  0.21348720  1  -1.166229  0.068517  -0.31282  -0.570144  0.035806  2.426476  0.054
O  O372  1  0.73997830  0.21684741  0.29530008  1  -1.13836  0.001024  -0.280942  -0.476315  0.000513  2.130004  0.001
O  O373  1  0.64201813  0.63605666  0.32077429  1  -1.144053  -0.000202  -0.297013  -0.488003  -0.00028  2.084681  0.0
O  O374  1  0.15987237  0.62837386  0.28844281  1  -1.156108  0.118525  -0.324223  -0.599052  0.062147  2.507936  0.091
O  O375  1  0.99625082  0.62632352  0.30263034  1  -1.189671  0.033286  -0.300422  -0.55043  0.01625  2.240641  0.027
O  O376  1  0.14125298  0.60190951  0.53894630  1  -1.097051  0.001243  -0.159139  -0.225679  0.000593  2.518796  0.001
O  O377  1  0.96209844  0.84620405  0.67494405  1  -1.171221  0.099861  -0.317156  -0.538395  0.050669  2.401295  0.077
O  O378  1  0.86090843  0.72417561  0.70483058  1  -1.17035  0.0696  -0.305806  -0.569997  0.036934  2.445708  0.057
O  O379  1  0.35541358  0.76414933  0.32458650  1  -1.164285  0.062472  -0.314474  -0.559398  0.031849  2.212448  0.054
O  O380  1  0.21006799  0.80029856  0.32524130  1  -1.147059  0.085816  -0.316453  -0.552078  0.044535  2.28823  0.07
O  O381  1  0.35947902  0.90963971  0.55861011  1  -1.107466  -0.000149  -0.152263  -0.223609  -0.000178  2.562601  0.0
O  O382  1  0.77240606  0.91385106  0.67817861  1  -1.151803  0.09356  -0.313176  -0.543743  0.047303  2.389475  0.075
O  O383  1  0.66441580  0.79825797  0.71348528  1  -1.166072  0.068517  -0.312828  -0.5702  0.035806  2.426432  0.054
O  O384  1  0.73997711  0.71684944  0.20469917  1  -1.13842  0.001024  -0.280928  -0.47627  0.000513  2.13004  0.001
O  O385  1  0.64202124  0.13605641  0.17922593  1  -1.144115  -0.000203  -0.296982  -0.487953  -0.00028  2.084539  0.0
O  O386  1  0.15986487  0.12836390  0.21156351  1  -1.156234  0.118553  -0.324306  -0.599184  0.062164  2.508176  0.091
O  O387  1  0.99625178  0.12632338  0.19737116  1  -1.189638  0.033286  -0.300495  -0.550522  0.016252  2.240615  0.027
O  O388  1  0.14125546  0.10190848  0.96105301  1  -1.097143  0.001244  -0.159158  -0.225661  0.000593  2.518686  0.001
O  O389  1  0.96209669  0.34619539  0.82505966  1  -1.170976  0.099855  -0.317006  -0.538414  0.050662  2.401131  0.077
O  O390  1  0.86090184  0.22416800  0.79516533  1  -1.170713  0.069615  -0.305759  -0.570043  0.036932  2.445749  0.057
O  O391  1  0.35541268  0.26414596  0.17540800  1  -1.164135  0.062461  -0.314444  -0.559386  0.031841  2.212444  0.054
O  O392  1  0.21006330  0.30029704  0.17475245  1  -1.147391  0.085799  -0.316447  -0.552156  0.044524  2.288155  0.07
O  O393  1  0.35947680  0.40963794  0.94138999  1  -1.107514  -0.000148  -0.15227  -0.223635  -0.000178  2.562558  0.0
O  O394  1  0.77239501  0.41384981  0.82182480  1  -1.152903  0.093557  -0.313122  -0.543694  0.0473  2.389488  0.075
O  O395  1  0.66441739  0.29825279  0.78651428  1  -1.166214  0.06851  -0.312824  -0.570099  0.035802  2.426516  0.054
O  O396  1  0.26002295  0.78315238  0.70469903  1  -1.138431  0.001024  -0.280926  -0.476266  0.000513  2.129988  0.001
O  O397  1  0.35798038  0.36394375  0.67922601  1  -1.144074  -0.000203  -0.296985  -0.487963  -0.00028  2.084523  0.0
O  O398  1  0.84012646  0.37162531  0.71155749  1  -1.156129  0.11852  -0.32426  -0.599087  0.062145  2.507907  0.091
O  O399  1  0.00374759  0.37367442  0.69736878  1  -1.190194  0.033284  -0.300438  -0.550435  0.01625  2.240686  0.027
O  O400  1  0.85874669  0.39809214  0.46105322  1  -1.097116  0.001243  -0.159209  -0.225757  0.000593  2.51874  0.001
O  O401  1  0.03790281  0.15379574  0.32505664  1  -1.171361  0.099865  -0.317128  -0.538466  0.050669  2.401295  0.077
O  O402  1  0.13909229  0.27582481  0.29517050  1  -1.170919  0.069603  -0.305818  -0.570024  0.036934  2.445445  0.057
O  O403  1  0.64458703  0.23585295  0.67541261  1  -1.164251  0.062472  -0.314472  -0.559395  0.031848  2.212493  0.054
O  O404  1  0.78993220  0.19970247  0.67475861  1  -1.147062  0.085822  -0.31644  -0.552058  0.044538  2.288208  0.07
O  O405  1  0.64051812  0.09035885  0.44139058  1  -1.107887  -0.000149  -0.15226  -0.223588  -0.000178  2.562607  0.0
O  O406  1  0.22759266  0.08614997  0.32182248  1  -1.151819  0.093559  -0.313206  -0.543813  0.047306  2.389562  0.075
O  O407  1  0.33558450  0.20174120  0.28651581  1  -1.166566  0.068522  -0.312792  -0.570137  0.035807  2.426391  0.054
