# generated using pymatgen
data_CoH11C18N7O6
_symmetry_space_group_name_H-M   'P 1'
_cell_length_a   10.18905568
_cell_length_b   18.97803156
_cell_length_c   20.86394171
_cell_angle_alpha   89.99984211
_cell_angle_beta   89.99988193
_cell_angle_gamma   90.00000162
_symmetry_Int_Tables_number   1
_chemical_formula_structural   CoH11C18N7O6
_chemical_formula_sum   'Co8 H88 C144 N56 O48'
_cell_volume   4034.42327731
_cell_formula_units_Z   8
loop_
 _symmetry_equiv_pos_site_id
 _symmetry_equiv_pos_as_xyz
  1  'x, y, z'
loop_
 _atom_site_type_symbol
 _atom_site_label
 _atom_site_symmetry_multiplicity
 _atom_site_fract_x
 _atom_site_fract_y
 _atom_site_fract_z
 _atom_site_occupancy
 _atom_site_pbe_bader_charge
 _atom_site_pbe_bader_spin_density
 _atom_site_pbe_cm5_charge
 _atom_site_pbe_ddec_charge
 _atom_site_pbe_ddec_spin_density
 _atom_site_pbe_ddec_sum_bond_order
 _atom_site_pbe_magmom
Co  Co0  1  0.56955208  0.04804890  0.57222086  1  1.22944  2.576072  0.681873  0.84449  2.786492  2.470457  2.527
Co  Co1  1  0.93044727  0.95194635  0.07221958  1  1.229445  2.576061  0.68184  0.844383  2.786462  2.470569  2.527
Co  Co2  1  0.43045506  0.54805280  0.92778111  1  1.229335  2.576067  0.681847  0.844451  2.786444  2.470482  2.527
Co  Co3  1  0.06955612  0.45194928  0.42777714  1  1.229423  2.576073  0.68187  0.844541  2.786495  2.470429  2.527
Co  Co4  1  0.57482154  0.44296416  0.07487762  1  1.22746  2.577094  0.680175  0.843205  2.793005  2.46625  2.529
Co  Co5  1  0.92517387  0.55703477  0.57487822  1  1.227565  2.577082  0.680132  0.84307  2.793004  2.466302  2.529
Co  Co6  1  0.42517105  0.94296596  0.42512344  1  1.227415  2.577098  0.680183  0.843232  2.793009  2.466155  2.529
Co  Co7  1  0.07482640  0.05703297  0.92512230  1  1.227469  2.577097  0.680147  0.843161  2.793001  2.466167  2.529
H  H8  1  0.40649404  0.11667791  0.45329175  1  0.235679  0.000515  0.142401  0.122665  -8.1e-05  1.030565  0.0
H  H9  1  0.09349347  0.88332410  0.95328803  1  0.235779  0.000515  0.142424  0.122631  -8.1e-05  1.030635  0.0
H  H10  1  0.59349262  0.61667874  0.04671541  1  0.235816  0.000515  0.142423  0.122596  -8.1e-05  1.030658  0.0
H  H11  1  0.90650389  0.38332607  0.54671119  1  0.235706  0.000515  0.142397  0.122633  -8.1e-05  1.030575  0.0
H  H12  1  0.72984371  0.19078237  0.56056700  1  0.153952  0.000786  0.120483  0.123148  0.000151  1.026791  0.001
H  H13  1  0.77015667  0.80920607  0.06056816  1  0.153975  0.000786  0.120428  0.123019  0.000151  1.02687  0.001
H  H14  1  0.27016344  0.69078782  0.93942838  1  0.1539  0.000786  0.120405  0.123045  0.000151  1.026818  0.001
H  H15  1  0.22984375  0.30921318  0.43943228  1  0.154009  0.000786  0.120443  0.123109  0.000151  1.026812  0.001
H  H16  1  0.66891382  0.29116595  0.46864564  1  0.149009  0.000663  0.129897  0.140818  0.000259  1.002764  0.0
H  H17  1  0.83109270  0.70882916  0.96864595  1  0.148972  0.000662  0.129874  0.140729  0.000259  1.002785  0.0
H  H18  1  0.33108365  0.79116789  0.03134910  1  0.14904  0.000662  0.12991  0.140806  0.000259  1.002723  0.0
H  H19  1  0.16891053  0.20883224  0.53135323  1  0.149006  0.000662  0.129913  0.140858  0.000259  1.002709  0.0
H  H20  1  0.61998898  0.31658970  0.37043169  1  0.173495  5.8e-05  0.123194  0.159933  2e-05  1.018203  0.0
H  H21  1  0.88001304  0.68341045  0.87042866  1  0.173669  5.8e-05  0.123222  0.159958  2e-05  1.018188  0.0
H  H22  1  0.38000359  0.81659345  0.12956730  1  0.173328  5.8e-05  0.123268  0.159962  2e-05  1.018264  0.0
H  H23  1  0.11999411  0.18341375  0.62957298  1  0.173696  5.8e-05  0.12324  0.159948  2e-05  1.018181  0.0
H  H24  1  0.19901978  0.22075531  0.30328459  1  0.130244  -3e-06  0.125461  0.072804  -4e-06  0.979765  0.0
H  H25  1  0.30098111  0.77925242  0.80328572  1  0.130352  -3e-06  0.125482  0.07284  -4e-06  0.97985  0.0
H  H26  1  0.80096787  0.72075043  0.19671751  1  0.130075  -3e-06  0.125488  0.072841  -4e-06  0.979811  0.0
H  H27  1  0.69901525  0.27924182  0.69671328  1  0.130228  -3e-06  0.125488  0.072861  -4e-06  0.979741  0.0
H  H28  1  0.67928507  0.40861619  0.31830908  1  0.198074  0.000607  0.121843  0.127556  0.00018  1.055921  0.0
H  H29  1  0.82073778  0.59137833  0.81831305  1  0.197871  0.000608  0.121837  0.1277  0.00018  1.055875  0.0
H  H30  1  0.32071339  0.90862241  0.18168920  1  0.198053  0.000608  0.121869  0.127665  0.00018  1.055809  0.0
H  H31  1  0.17927722  0.09137989  0.68168834  1  0.198087  0.000607  0.121863  0.127647  0.00018  1.055903  0.0
H  H32  1  0.73842917  0.47767094  0.20488313  1  0.094567  0.000878  0.122446  0.119299  0.000153  0.995276  0.001
H  H33  1  0.76159121  0.52232286  0.70488877  1  0.139695  0.000876  0.122493  0.119399  0.000153  0.995116  0.001
H  H34  1  0.26156440  0.97767260  0.29511449  1  0.094476  0.000878  0.122428  0.119275  0.000153  0.995343  0.001
H  H35  1  0.23842377  0.02232936  0.79511327  1  0.094649  0.000878  0.122462  0.119331  0.000153  0.995234  0.001
H  H36  1  0.40243832  0.35169269  0.17428617  1  0.231442  0.000604  0.137907  0.106304  0.00017  1.054434  0.001
H  H37  1  0.09757293  0.64830489  0.67428543  1  0.231352  0.000604  0.137902  0.106372  0.00017  1.054501  0.001
H  H38  1  0.59755523  0.85169743  0.32571416  1  0.231571  0.000604  0.137876  0.106291  0.00017  1.054448  0.001
H  H39  1  0.90243127  0.14830444  0.82571485  1  0.231429  0.000604  0.137906  0.106395  0.00017  1.054342  0.001
H  H40  1  0.41921509  0.15330362  0.66786860  1  0.233129  0.000711  0.139327  0.108239  0.000198  1.048563  0.001
H  H41  1  0.08078736  0.84669926  0.16786794  1  0.233132  0.000711  0.139319  0.108165  0.000198  1.048658  0.001
H  H42  1  0.58079010  0.65330043  0.83213359  1  0.233202  0.000711  0.139305  0.108173  0.000198  1.048598  0.001
H  H43  1  0.91921699  0.34670089  0.33212905  1  0.233244  0.00071  0.139378  0.108304  0.000198  1.048607  0.001
H  H44  1  0.71896898  0.00497522  0.70466609  1  0.110833  0.000862  0.122852  0.119224  0.000156  0.991635  0.001
H  H45  1  0.78102784  0.99502438  0.20466725  1  0.11082  0.000862  0.12283  0.119166  0.000156  0.991704  0.001
H  H46  1  0.28102833  0.50497635  0.79533695  1  0.110856  0.000862  0.122849  0.119169  0.000156  0.991683  0.001
H  H47  1  0.21898339  0.49502244  0.29533128  1  0.11079  0.000862  0.122816  0.119186  0.000156  0.991758  0.001
H  H48  1  0.67273876  0.08131858  0.81594077  1  0.173057  0.000689  0.122355  0.124906  0.000213  1.054307  0.0
H  H49  1  0.82725858  0.91867963  0.31594016  1  0.17309  0.000689  0.122356  0.124914  0.000213  1.054338  0.0
H  H50  1  0.32725660  0.58132006  0.68406303  1  0.173119  0.000689  0.122375  0.124919  0.000213  1.054353  0.0
H  H51  1  0.17274381  0.41868013  0.18405617  1  0.172899  0.000689  0.122363  0.124872  0.000213  1.054338  0.0
H  H52  1  0.62420618  0.17570764  0.86952547  1  0.176511  4.7e-05  0.121927  0.160437  3e-06  1.02795  0.0
H  H53  1  0.87578603  0.82428830  0.36952217  1  0.176212  4.7e-05  0.121919  0.160403  3e-06  1.027884  0.0
H  H54  1  0.37578526  0.67571454  0.63048145  1  0.176276  4.7e-05  0.121929  0.16048  3e-06  1.027733  0.0
H  H55  1  0.12421538  0.32429055  0.13047487  1  0.176312  4.7e-05  0.121962  0.160464  3e-06  1.027786  0.0
H  H56  1  0.23001182  0.29311666  0.79184797  1  0.088168  -1e-06  0.126333  0.073975  -0.0  0.974181  0.0
H  H57  1  0.26998814  0.70688214  0.29184795  1  0.088172  -1e-06  0.126334  0.073976  -0.0  0.974167  0.0
H  H58  1  0.76999043  0.79311596  0.70815291  1  0.088128  -1e-06  0.126317  0.073946  -0.0  0.974153  0.0
H  H59  1  0.73001816  0.20688310  0.20815083  1  0.088261  -1e-06  0.126338  0.073983  -0.0  0.974179  0.0
H  H60  1  0.41925081  0.37864373  0.95344714  1  0.207779  0.00048  0.14305  0.122737  -0.000118  1.029096  0.0
H  H61  1  0.08074455  0.62135617  0.45345041  1  0.207663  0.00048  0.143056  0.122679  -0.000118  1.029083  0.0
H  H62  1  0.58075243  0.87864404  0.54655208  1  0.207756  0.00048  0.143054  0.122772  -0.000118  1.028966  0.0
H  H63  1  0.91925487  0.12135709  0.04655195  1  0.207659  0.00048  0.143034  0.122639  -0.000118  1.029053  0.0
H  H64  1  0.72780727  0.29501048  0.06547538  1  0.140974  0.000741  0.12035  0.122486  0.000117  1.023282  0.001
H  H65  1  0.77218229  0.70499270  0.56547289  1  0.140531  0.000741  0.120384  0.122568  0.000117  1.023284  0.001
H  H66  1  0.27219119  0.79501067  0.43452797  1  0.140658  0.000741  0.120348  0.12247  0.000117  1.023287  0.001
H  H67  1  0.22782290  0.20498718  0.93452726  1  0.140503  0.000741  0.120407  0.122539  0.000117  1.023218  0.001
H  H68  1  0.67413897  0.20083391  0.96730128  1  0.184287  0.000658  0.127149  0.142325  0.00027  1.020148  0.0
H  H69  1  0.82585381  0.79916542  0.46729666  1  0.184358  0.000658  0.127154  0.142369  0.00027  1.020115  0.0
H  H70  1  0.32585444  0.70083690  0.53270510  1  0.184421  0.000657  0.127171  0.142353  0.00027  1.020031  0.0
H  H71  1  0.17415348  0.29916217  0.03270141  1  0.184335  0.000658  0.127205  0.14239  0.00027  1.020119  0.0
H  H72  1  0.04457419  0.42347849  0.06466508  1  0.117481  0.000385  0.108756  0.111585  0.000184  1.02333  0.0
H  H73  1  0.45542967  0.57652575  0.56467183  1  0.117393  0.000385  0.108726  0.111494  0.000184  1.023397  0.0
H  H74  1  0.95542919  0.92347815  0.43532932  1  0.117494  0.000385  0.108759  0.111544  0.000184  1.023353  0.0
H  H75  1  0.54456569  0.07652233  0.93533152  1  0.117446  0.000385  0.108753  0.111523  0.000184  1.023364  0.0
H  H76  1  0.86898908  0.62486233  0.10590494  1  0.169169  0.000368  0.115632  0.126868  0.000201  1.029319  0.0
H  H77  1  0.63099442  0.37513335  0.60590006  1  0.169203  0.000368  0.115732  0.127062  0.0002  1.029167  0.0
H  H78  1  0.13100151  0.12487010  0.39410124  1  0.169053  0.000368  0.115651  0.126896  0.000201  1.029268  0.0
H  H79  1  0.36899312  0.87513156  0.89410349  1  0.169362  0.000368  0.115658  0.126924  0.000201  1.029252  0.0
H  H80  1  0.29150573  0.60278470  0.10192039  1  0.147204  0.000223  0.116355  0.127365  -7.8e-05  1.01398  0.0
H  H81  1  0.20847736  0.39722522  0.60190963  1  0.14698  0.000223  0.116396  0.127501  -7.8e-05  1.01382  0.0
H  H82  1  0.70848485  0.10277876  0.39808440  1  0.146982  0.000223  0.116364  0.127373  -7.8e-05  1.013963  0.0
H  H83  1  0.79151117  0.89722131  0.89808572  1  0.147077  0.000223  0.11634  0.12734  -7.8e-05  1.01393  0.0
H  H84  1  0.04536612  0.06859161  0.56651461  1  0.131433  0.000342  0.108193  0.111467  0.000156  1.019936  0.0
H  H85  1  0.45463969  0.93140419  0.06651575  1  0.131585  0.000342  0.108226  0.111516  0.000156  1.020045  0.0
H  H86  1  0.95464788  0.56859339  0.93348540  1  0.131797  0.000342  0.10825  0.111516  0.000156  1.020092  0.0
H  H87  1  0.54536958  0.43140815  0.43348199  1  0.131393  0.000342  0.108203  0.11149  0.000156  1.01998  0.0
H  H88  1  0.28427831  0.88690297  0.60715439  1  0.143077  0.000243  0.116117  0.127934  -3.9e-05  1.010672  0.0
H  H89  1  0.21572046  0.11309060  0.10715687  1  0.142987  0.000243  0.116135  0.128082  -3.9e-05  1.010522  0.0
H  H90  1  0.71572788  0.38690864  0.89284099  1  0.143052  0.000243  0.116147  0.128044  -3.9e-05  1.010581  0.0
H  H91  1  0.78427798  0.61309566  0.39283543  1  0.14309  0.000243  0.11609  0.127894  -3.9e-05  1.010622  0.0
H  H92  1  0.86090583  0.87062994  0.61161204  1  0.154182  0.000379  0.115751  0.126175  0.000195  1.030174  0.0
H  H93  1  0.63909924  0.12936256  0.11161169  1  0.154064  0.000379  0.115704  0.126153  0.000195  1.030273  0.0
H  H94  1  0.13910526  0.37063404  0.88838864  1  0.153914  0.000379  0.115691  0.126138  0.000195  1.030282  0.0
H  H95  1  0.36090018  0.62936606  0.38838489  1  0.154161  0.000379  0.115743  0.126172  0.000195  1.030176  0.0
C  C96  1  0.48569860  0.14953534  0.47116269  1  0.948126  0.006537  0.162164  0.138262  0.004077  3.822133  0.005
C  C97  1  0.01429375  0.85046503  0.97116105  1  0.948383  0.006537  0.162083  0.138258  0.004078  3.822261  0.005
C  C98  1  0.51429886  0.64953676  0.02883815  1  0.948272  0.006537  0.162115  0.138371  0.004078  3.822449  0.005
C  C99  1  0.98570753  0.35046811  0.52884064  1  0.948345  0.006538  0.162024  0.138228  0.004078  3.822213  0.005
C  C100  1  0.65383870  0.19103957  0.52455898  1  0.448634  0.002113  0.006049  -0.003538  0.000721  3.969813  0.002
C  C101  1  0.84615986  0.80895583  0.02455959  1  0.448654  0.002114  0.006132  -0.00333  0.000721  3.96963  0.002
C  C102  1  0.34615765  0.69103911  0.97544024  1  0.448108  0.002113  0.006163  -0.003358  0.000721  3.969571  0.002
C  C103  1  0.15383565  0.30895967  0.47544037  1  0.448589  0.002113  0.006113  -0.00338  0.000721  3.969854  0.002
C  C104  1  0.62465552  0.24061274  0.47942605  1  0.241584  0.003014  0.002765  -0.093304  0.001576  3.888754  0.002
C  C105  1  0.87534212  0.75938444  0.97942427  1  0.241554  0.003014  0.002763  -0.09322  0.001575  3.888837  0.002
C  C106  1  0.37533213  0.74061208  0.02057601  1  0.242242  0.003014  0.002741  -0.093275  0.001576  3.888446  0.002
C  C107  1  0.12465523  0.25938702  0.52057238  1  0.241852  0.003013  0.002743  -0.093378  0.001575  3.888928  0.002
C  C108  1  0.46039613  0.24306097  0.39007915  1  0.887961  -0.000433  0.244238  0.362456  -0.000638  4.028018  0.0
C  C109  1  0.03960244  0.75693965  0.89007772  1  0.888013  -0.000433  0.244232  0.362426  -0.000639  4.027986  0.0
C  C110  1  0.53959349  0.74306425  0.10992145  1  0.887908  -0.000433  0.244238  0.362431  -0.000639  4.028096  0.0
C  C111  1  0.96039687  0.25693932  0.60992229  1  0.887929  -0.000433  0.244164  0.362322  -0.000638  4.028222  0.0
C  C112  1  0.52434227  0.29638478  0.35635580  1  0.051847  0.001072  -0.078243  -0.318897  0.000588  3.853268  0.001
C  C113  1  0.97566374  0.70361383  0.85635406  1  0.051825  0.001072  -0.078297  -0.318873  0.000588  3.853174  0.001
C  C114  1  0.47564932  0.79638902  0.14364419  1  0.052087  0.001072  -0.078389  -0.318888  0.000588  3.853263  0.001
C  C115  1  0.02434145  0.20361445  0.64364417  1  0.051731  0.001072  -0.078243  -0.318836  0.000588  3.853226  0.001
C  C116  1  0.46053373  0.31844933  0.30076899  1  0.920726  -8.1e-05  0.248455  0.371074  -0.000327  4.018529  0.0
C  C117  1  0.03947896  0.68154893  0.80076871  1  0.920545  -8e-05  0.248392  0.37086  -0.000327  4.018574  0.0
C  C118  1  0.53946179  0.81845444  0.19923094  1  0.920633  -8.1e-05  0.248476  0.371084  -0.000328  4.018312  0.0
C  C119  1  0.96052819  0.18154833  0.69922957  1  0.920746  -8e-05  0.248405  0.371031  -0.000327  4.01862  0.0
C  C120  1  0.29383227  0.24202304  0.31810099  1  1.056538  0.00011  0.182778  0.270718  1.2e-05  4.010541  0.0
C  C121  1  0.20616955  0.75798149  0.81809939  1  1.056299  0.00011  0.18274  0.270612  1.2e-05  4.010993  0.0
C  C122  1  0.70615833  0.74202189  0.18190154  1  1.056832  0.00011  0.182731  0.270651  1.2e-05  4.010639  0.0
C  C123  1  0.79382878  0.25797515  0.68189966  1  1.056398  0.00011  0.18269  0.270526  1.2e-05  4.01079  0.0
C  C124  1  0.63130231  0.40810198  0.27187636  1  0.24687  0.003637  0.003274  -0.089947  0.001888  3.891505  0.002
C  C125  1  0.86871877  0.59188899  0.77188029  1  0.246932  0.003638  0.003296  -0.090173  0.001888  3.891467  0.002
C  C126  1  0.36869714  0.90810595  0.22812335  1  0.246766  0.003638  0.003327  -0.090013  0.001888  3.891454  0.002
C  C127  1  0.13129426  0.09189621  0.72812158  1  0.246927  0.003638  0.00331  -0.089984  0.001888  3.891405  0.002
C  C128  1  0.65934036  0.44144957  0.21560027  1  0.412231  0.001599  0.001528  -0.016655  0.000453  3.97887  0.002
C  C129  1  0.84067997  0.55854209  0.71560191  1  0.367778  0.001598  0.001466  -0.016775  0.000452  3.978734  0.002
C  C130  1  0.34065419  0.94145285  0.28440128  1  0.41227  0.001597  0.001488  -0.016656  0.000451  3.97897  0.002
C  C131  1  0.15933403  0.05854862  0.78439813  1  0.412198  0.001597  0.001423  -0.0168  0.000452  3.978873  0.002
C  C132  1  0.48405624  0.37817960  0.19708332  1  0.953114  -0.001176  0.156806  0.131691  -0.001775  3.867519  0.0
C  C133  1  0.01595589  0.62181633  0.69708369  1  0.953694  -0.001176  0.156746  0.131404  -0.001775  3.868015  0.0
C  C134  1  0.51594026  0.87818493  0.30291599  1  0.953408  -0.001179  0.156949  0.131834  -0.001777  3.867651  0.0
C  C135  1  0.98405125  0.12181753  0.80291570  1  0.953253  -0.001177  0.156851  0.131686  -0.001776  3.867512  0.0
C  C136  1  0.49283618  0.12198421  0.69197814  1  0.947502  -0.002349  0.15805  0.134297  -0.003099  3.856671  -0.001
C  C137  1  0.00716322  0.87801701  0.19197652  1  0.947731  -0.002348  0.158052  0.134419  -0.003099  3.856858  -0.001
C  C138  1  0.50716605  0.62198109  0.80802557  1  0.947623  -0.002347  0.158059  0.134403  -0.003098  3.856788  -0.001
C  C139  1  0.99283918  0.37802030  0.30802040  1  0.947545  -0.002348  0.157941  0.13419  -0.003098  3.857013  -0.001
C  C140  1  0.64946498  0.04699853  0.71377940  1  0.420081  0.001789  0.002527  -0.016963  0.000707  3.977082  0.002
C  C141  1  0.85053181  0.95300210  0.21378012  1  0.420022  0.00179  0.002545  -0.016869  0.000708  3.977049  0.002
C  C142  1  0.35053136  0.54699864  0.78622209  1  0.419997  0.00179  0.002569  -0.016812  0.000707  3.977075  0.002
C  C143  1  0.14947844  0.45300124  0.28621708  1  0.419899  0.001791  0.002501  -0.017087  0.000708  3.977392  0.002
C  C144  1  0.62741375  0.08364081  0.76905512  1  0.234404  0.003506  0.003655  -0.090289  0.001785  3.905444  0.002
C  C145  1  0.87258575  0.91635912  0.26905495  1  0.234379  0.003506  0.003635  -0.090336  0.001785  3.905513  0.002
C  C146  1  0.37257866  0.58364214  0.73094868  1  0.234515  0.003506  0.003619  -0.090368  0.001785  3.90561  0.002
C  C147  1  0.12742352  0.41635737  0.23094235  1  0.234362  0.003506  0.003643  -0.090125  0.001785  3.90552  0.002
C  C148  1  0.47439462  0.18342667  0.79503530  1  0.897653  7e-06  0.246991  0.367715  -0.00025  4.02029  0.0
C  C149  1  0.02560632  0.81657318  0.29503477  1  0.897754  8e-06  0.246987  0.367721  -0.00025  4.020323  0.0
C  C150  1  0.52560272  0.68342967  0.70496681  1  0.897708  8e-06  0.246928  0.367689  -0.000249  4.020272  0.0
C  C151  1  0.97439901  0.31657309  0.20496373  1  0.897826  8e-06  0.246907  0.367586  -0.00025  4.020223  0.0
C  C152  1  0.53442165  0.20089731  0.85290782  1  0.031839  0.001147  -0.079192  -0.317774  0.000631  3.851572  0.001
C  C153  1  0.96557750  0.79909973  0.35290737  1  0.03217  0.001146  -0.079168  -0.317649  0.000631  3.85155  0.001
C  C154  1  0.46557372  0.70090206  0.64709617  1  0.032835  0.001146  -0.079138  -0.317748  0.000631  3.851405  0.001
C  C155  1  0.03442783  0.29909982  0.14709214  1  0.032299  0.001146  -0.079247  -0.317802  0.000631  3.851521  0.001
C  C156  1  0.47397732  0.25566374  0.88633819  1  0.947814  -0.000348  0.244541  0.362458  -0.000521  4.022083  0.0
C  C157  1  0.02601931  0.74433373  0.38633736  1  0.947782  -0.000348  0.244517  0.36235  -0.000521  4.022344  0.0
C  C158  1  0.52601905  0.75566807  0.61366662  1  0.947092  -0.000347  0.244499  0.362481  -0.000521  4.022458  0.0
C  C159  1  0.97398503  0.24433391  0.11366324  1  0.947461  -0.000348  0.244587  0.362439  -0.000521  4.02229  0.0
C  C160  1  0.31845178  0.26687682  0.80925358  1  1.124691  0.000116  0.18268  0.27078  2.9e-05  4.014154  0.0
C  C161  1  0.18154615  0.73312246  0.30925359  1  1.124685  0.000116  0.182702  0.270794  2.9e-05  4.014094  0.0
C  C162  1  0.68154949  0.76687723  0.69074928  1  1.124752  0.000116  0.182794  0.27098  2.9e-05  4.013994  0.0
C  C163  1  0.81845819  0.23312294  0.19074561  1  1.124654  0.000116  0.182704  0.270802  2.9e-05  4.014011  0.0
C  C164  1  0.49538050  0.34415857  0.97185163  1  0.969196  0.008277  0.162799  0.139373  0.005099  3.827664  0.007
C  C165  1  0.00461086  0.65584075  0.47185153  1  0.969753  0.008276  0.162842  0.139452  0.005099  3.827706  0.007
C  C166  1  0.50461783  0.84416051  0.52815056  1  0.96932  0.008278  0.162838  0.139445  0.005099  3.827386  0.007
C  C167  1  0.99538954  0.15584067  0.02814834  1  0.969764  0.008277  0.162891  0.139503  0.005099  3.827648  0.007
C  C168  1  0.65576338  0.29786541  0.02758277  1  0.417207  0.002135  0.00537  -0.004331  0.000671  3.96724  0.002
C  C169  1  0.84423026  0.70213367  0.52758260  1  0.417748  0.002132  0.005424  -0.004418  0.00067  3.96726  0.002
C  C170  1  0.34423704  0.79786760  0.47241962  1  0.417646  0.002134  0.005379  -0.004305  0.00067  3.967265  0.002
C  C171  1  0.15577394  0.20213119  0.97241803  1  0.417646  0.002133  0.005439  -0.004391  0.00067  3.967094  0.002
C  C172  1  0.62951165  0.25091970  0.97970829  1  0.258801  0.003102  0.002003  -0.097061  0.001646  3.879705  0.002
C  C173  1  0.87048304  0.74908065  0.47970615  1  0.259068  0.003103  0.002022  -0.097053  0.001646  3.879404  0.002
C  C174  1  0.37048471  0.75092167  0.52029557  1  0.258694  0.003102  0.0019  -0.097146  0.001646  3.87949  0.002
C  C175  1  0.12952522  0.24907796  0.02029253  1  0.259087  0.003103  0.001891  -0.097059  0.001646  3.879447  0.002
C  C176  1  0.29954088  0.46140180  0.07427814  1  1.591182  0.001457  0.205488  0.566891  0.001318  4.219728  0.0
C  C177  1  0.20045901  0.53860715  0.57427374  1  1.590753  0.001461  0.205486  0.566877  0.001318  4.219627  0.0
C  C178  1  0.70046054  0.96139622  0.42572144  1  1.590698  0.001459  0.205458  0.566836  0.001317  4.219521  0.0
C  C179  1  0.79953536  0.03860324  0.92572443  1  1.591043  0.001458  0.205516  0.566941  0.001318  4.219375  0.0
C  C180  1  0.18135425  0.50827757  0.08065038  1  0.030715  0.00458  -0.011652  -0.019267  0.002091  3.960534  0.004
C  C181  1  0.31864463  0.49172873  0.58064549  1  0.030502  0.00458  -0.011539  -0.019152  0.002091  3.96036  0.004
C  C182  1  0.81864417  0.00827314  0.41935082  1  0.031006  0.00458  -0.01152  -0.018993  0.002091  3.960225  0.004
C  C183  1  0.68135274  0.99172581  0.91935249  1  0.030906  0.004579  -0.011598  -0.019194  0.002091  3.960422  0.004
C  C184  1  0.05601291  0.47921133  0.07547408  1  -0.037447  0.000981  -0.063941  -0.091789  4.5e-05  3.918548  0.001
C  C185  1  0.44398796  0.52079234  0.57547475  1  -0.037612  0.000981  -0.06391  -0.091683  4.5e-05  3.918585  0.001
C  C186  1  0.94399047  0.97921156  0.42452545  1  -0.037643  0.00098  -0.06396  -0.09179  4.4e-05  3.918508  0.001
C  C187  1  0.55600936  0.02078896  0.92452633  1  -0.037503  0.00098  -0.063874  -0.091661  4.4e-05  3.918465  0.001
C  C188  1  0.94341603  0.52030304  0.08407071  1  -0.061938  0.001929  -0.012502  -0.015466  0.000937  3.974136  0.001
C  C189  1  0.55657933  0.47969797  0.58407091  1  -0.061479  0.001929  -0.012412  -0.015417  0.000937  3.974081  0.001
C  C190  1  0.05658436  0.02030654  0.41592902  1  -0.062021  0.001928  -0.012521  -0.015489  0.000937  3.974311  0.001
C  C191  1  0.44341411  0.97969453  0.91593189  1  -0.062047  0.001928  -0.012564  -0.015502  0.000937  3.974282  0.001
C  C192  1  0.95538964  0.59179832  0.09918185  1  0.001318  0.000685  -0.066367  -0.126671  0.000259  3.898109  0.0
C  C193  1  0.54459683  0.40820107  0.59917698  1  0.00118  0.000685  -0.066493  -0.126838  0.000259  3.897998  0.0
C  C194  1  0.04460389  0.09180238  0.40082345  1  0.001455  0.000684  -0.066389  -0.126587  0.000258  3.897884  0.0
C  C195  1  0.45539267  0.90819926  0.90082601  1  0.001173  0.000684  -0.066378  -0.126654  0.000259  3.89779  0.0
C  C196  1  0.08181112  0.61928430  0.10640956  1  0.179012  0.000198  0.073531  0.056473  2.7e-05  3.957874  0.0
C  C197  1  0.41817293  0.38071770  0.60640342  1  0.179389  0.000199  0.073394  0.056336  2.7e-05  3.957885  0.0
C  C198  1  0.91817848  0.11928522  0.39359663  1  0.179442  0.000199  0.073429  0.056233  2.7e-05  3.957943  0.0
C  C199  1  0.58181755  0.88071591  0.89359772  1  0.178968  0.000199  0.073472  0.056334  2.7e-05  3.957762  0.0
C  C200  1  0.19482260  0.57939082  0.09641192  1  0.001673  -0.001071  -0.064139  -0.112401  -0.001474  3.904181  -0.001
C  C201  1  0.30516543  0.42061543  0.59640484  1  0.002064  -0.001072  -0.064198  -0.112497  -0.001476  3.903939  -0.001
C  C202  1  0.80516995  0.07938750  0.40359389  1  0.001672  -0.001073  -0.064125  -0.112351  -0.001476  3.904081  -0.001
C  C203  1  0.69482605  0.92061255  0.90359381  1  0.00168  -0.001073  -0.06411  -0.112323  -0.001477  3.90408  -0.001
C  C204  1  0.81328622  0.48431723  0.07961193  1  1.508868  -0.002058  0.192534  0.535307  -0.003058  4.239758  -0.003
C  C205  1  0.68671407  0.51568064  0.57961191  1  1.509079  -0.002061  0.192425  0.535191  -0.003061  4.239937  -0.003
C  C206  1  0.18671324  0.98432432  0.42038951  1  1.509396  -0.002061  0.192526  0.535298  -0.003062  4.240117  -0.003
C  C207  1  0.31328128  0.01567621  0.92038870  1  1.509144  -0.002062  0.192576  0.535375  -0.003062  4.240011  -0.003
C  C208  1  0.81083546  0.00960549  0.57997819  1  1.511831  -0.001657  0.19259  0.536211  -0.002503  4.245212  -0.003
C  C209  1  0.68916876  0.99039079  0.07998042  1  1.511737  -0.001658  0.192703  0.536149  -0.002505  4.245206  -0.003
C  C210  1  0.18917756  0.50960468  0.92002436  1  1.51198  -0.001658  0.192734  0.536213  -0.002504  4.245312  -0.003
C  C211  1  0.31083365  0.49039480  0.42001957  1  1.511607  -0.001657  0.192679  0.536306  -0.002504  4.245109  -0.003
C  C212  1  0.93997897  0.97323229  0.58698422  1  0.015036  0.002023  -0.012766  -0.014583  0.001006  3.977136  0.001
C  C213  1  0.56002522  0.02676028  0.08698756  1  0.014185  0.002024  -0.012767  -0.014483  0.001006  3.977205  0.001
C  C214  1  0.06003116  0.47323685  0.91301477  1  0.014869  0.002023  -0.012744  -0.014604  0.001006  3.9772  0.001
C  C215  1  0.43997909  0.52676476  0.41301168  1  0.0149  0.002023  -0.012766  -0.014606  0.001006  3.97716  0.001
C  C216  1  0.05417260  0.01295990  0.57833219  1  -0.036767  0.001306  -0.06342  -0.089566  0.000266  3.915861  0.001
C  C217  1  0.44583218  0.98703375  0.07833656  1  -0.036272  0.001305  -0.063472  -0.089654  0.000265  3.915971  0.001
C  C218  1  0.94583649  0.51296382  0.92166652  1  -0.03699  0.001306  -0.063567  -0.089688  0.000266  3.916176  0.001
C  C219  1  0.55417219  0.48703881  0.42166152  1  -0.036578  0.001306  -0.063463  -0.089603  0.000266  3.91618  0.001
C  C220  1  0.17824793  0.98249564  0.58421378  1  0.019783  0.004475  -0.01027  -0.016355  0.002063  3.956064  0.004
C  C221  1  0.32175388  0.01749695  0.08421784  1  0.019708  0.004475  -0.010335  -0.016283  0.002063  3.95595  0.004
C  C222  1  0.82175925  0.48250335  0.91578039  1  0.019824  0.004474  -0.010343  -0.01633  0.002063  3.95593  0.004
C  C223  1  0.67824945  0.51750194  0.41577662  1  0.019873  0.004475  -0.010444  -0.016593  0.002063  3.956281  0.004
C  C224  1  0.18868556  0.91151407  0.60124421  1  -0.01513  -0.000797  -0.06482  -0.115143  -0.001173  3.899843  -0.001
C  C225  1  0.31131520  0.08847899  0.10124810  1  -0.015094  -0.000799  -0.064865  -0.115478  -0.001175  3.899778  -0.001
C  C226  1  0.81132063  0.41152025  0.89875206  1  -0.015065  -0.000798  -0.064829  -0.1153  -0.001174  3.899552  -0.001
C  C227  1  0.68868422  0.58848351  0.39874667  1  -0.01547  -0.000798  -0.064664  -0.114808  -0.001174  3.899408  -0.001
C  C228  1  0.07380443  0.87353909  0.61260219  1  0.172724  0.000143  0.073332  0.055998  0.0  3.961239  0.0
C  C229  1  0.42619825  0.12645710  0.11260107  1  0.17271  0.000144  0.073358  0.056101  0.0  3.961181  0.0
C  C230  1  0.92620372  0.37354214  0.88739705  1  0.172731  0.000143  0.07328  0.05594  0.0  3.961258  0.0
C  C231  1  0.57379921  0.62646112  0.38739408  1  0.1731  0.000143  0.073248  0.055738  0.0  3.961357  0.0
C  C232  1  0.94881684  0.90231501  0.60431516  1  -0.041465  0.000971  -0.067655  -0.129321  0.000485  3.908246  0.001
C  C233  1  0.55118531  0.09767804  0.10431641  1  -0.041083  0.000971  -0.067537  -0.129394  0.000485  3.908447  0.001
C  C234  1  0.05119328  0.40231909  0.89568592  1  -0.041089  0.000972  -0.067444  -0.129181  0.000486  3.908322  0.001
C  C235  1  0.44881312  0.59768257  0.39568120  1  -0.041385  0.000972  -0.067578  -0.129243  0.000485  3.908194  0.001
C  C236  1  0.29770745  0.02818224  0.57633674  1  1.582821  0.001384  0.204948  0.567926  0.001246  4.217853  0.0
C  C237  1  0.20229342  0.97181247  0.07633708  1  1.583611  0.001383  0.20496  0.567916  0.001245  4.217844  0.0
C  C238  1  0.70229969  0.52818721  0.92365906  1  1.583839  0.001382  0.20498  0.567958  0.001245  4.217761  0.0
C  C239  1  0.79770996  0.47181594  0.42365481  1  1.582902  0.001383  0.204987  0.568002  0.001245  4.217712  0.0
N  N240  1  0.56764034  0.13468863  0.51863213  1  -1.202307  0.061597  -0.35479  -0.298111  0.032566  3.647491  0.039
N  N241  1  0.93235530  0.86530995  0.01863154  1  -1.202491  0.061601  -0.354787  -0.298031  0.032564  3.647336  0.039
N  N242  1  0.43236190  0.63469079  0.98136819  1  -1.202528  0.061603  -0.354816  -0.298132  0.032566  3.647587  0.039
N  N243  1  0.06764120  0.36531377  0.48136828  1  -1.202616  0.061595  -0.354768  -0.298106  0.032564  3.64745  0.039
N  N244  1  0.51767119  0.21394407  0.44546707  1  -1.249189  0.005095  -0.218409  -0.023378  0.002275  3.749238  0.004
N  N245  1  0.98232168  0.78605639  0.94546463  1  -1.249374  0.005097  -0.218329  -0.02345  0.002276  3.749328  0.004
N  N246  1  0.48231744  0.71394277  0.05453601  1  -1.249275  0.005097  -0.218346  -0.023467  0.002276  3.749235  0.004
N  N247  1  0.01767959  0.28605886  0.55453627  1  -1.249411  0.005097  -0.21827  -0.023396  0.002276  3.749383  0.004
N  N248  1  0.34550819  0.21513397  0.37175673  1  -1.179184  -0.000365  -0.317277  -0.377944  -0.000527  3.263656  0.0
N  N249  1  0.15448751  0.78486986  0.87175367  1  -1.179201  -0.000365  -0.317342  -0.377984  -0.000527  3.263702  0.0
N  N250  1  0.65447946  0.71513456  0.12824539  1  -1.179362  -0.000366  -0.317302  -0.377967  -0.000527  3.263585  0.0
N  N251  1  0.84550787  0.28486632  0.62824531  1  -1.179144  -0.000365  -0.317252  -0.377858  -0.000527  3.26379  0.0
N  N252  1  0.34502257  0.29250620  0.28127660  1  -1.16572  -0.000424  -0.314974  -0.369581  -0.000558  3.28342  0.0
N  N253  1  0.15498725  0.70749580  0.78127662  1  -1.165748  -0.000424  -0.314807  -0.369251  -0.000558  3.283528  0.0
N  N254  1  0.65497392  0.79250810  0.21872532  1  -1.16563  -0.000424  -0.314889  -0.369491  -0.000558  3.283216  0.0
N  N255  1  0.84501695  0.20749040  0.71872256  1  -1.165676  -0.000424  -0.314924  -0.369417  -0.000558  3.283628  0.0
N  N256  1  0.51940679  0.36800195  0.25982554  1  -1.256967  0.003937  -0.216729  -0.014239  0.001804  3.738243  0.003
N  N257  1  0.98061140  0.63199222  0.75982637  1  -1.257343  0.003936  -0.216694  -0.01406  0.001804  3.738394  0.003
N  N258  1  0.48059266  0.86800694  0.24017476  1  -1.257442  0.003935  -0.216769  -0.014288  0.001803  3.738419  0.003
N  N259  1  0.01939672  0.13199360  0.74017252  1  -1.257487  0.003936  -0.216713  -0.014314  0.001803  3.738288  0.003
N  N260  1  0.56790804  0.42179955  0.16928407  1  -1.194959  0.065583  -0.353886  -0.29593  0.034284  3.615784  0.048
N  N261  1  0.93210366  0.57819541  0.66928508  1  -1.195451  0.065581  -0.353867  -0.295729  0.034282  3.616007  0.048
N  N262  1  0.43208356  0.92180163  0.33071609  1  -1.194765  0.065581  -0.353982  -0.296053  0.034284  3.615956  0.048
N  N263  1  0.06790741  0.07819811  0.83071490  1  -1.194653  0.06558  -0.353877  -0.295837  0.034281  3.615814  0.048
N  N264  1  0.56598924  0.07192742  0.66608085  1  -1.185965  0.066293  -0.353381  -0.293246  0.034755  3.619315  0.049
N  N265  1  0.93400775  0.92807282  0.16608059  1  -1.185973  0.066295  -0.353377  -0.293298  0.034756  3.619482  0.049
N  N266  1  0.43401103  0.57192528  0.83392106  1  -1.186158  0.066294  -0.353436  -0.29343  0.034758  3.619521  0.049
N  N267  1  0.06599857  0.42807392  0.33391668  1  -1.185878  0.066295  -0.353296  -0.293212  0.034754  3.619692  0.049
N  N268  1  0.52743396  0.13112626  0.75493026  1  -1.251875  0.003651  -0.217106  -0.016568  0.001667  3.746057  0.003
N  N269  1  0.97256756  0.86887424  0.25492867  1  -1.252075  0.003651  -0.217096  -0.01659  0.001667  3.746083  0.003
N  N270  1  0.47256631  0.63112545  0.74507294  1  -1.252084  0.003652  -0.217106  -0.016531  0.001667  3.745989  0.003
N  N271  1  0.02743581  0.36887666  0.24506731  1  -1.251857  0.003651  -0.217065  -0.016513  0.001667  3.746135  0.003
N  N272  1  0.36690384  0.21559337  0.77252087  1  -1.179786  -0.000306  -0.316377  -0.371789  -0.000419  3.290274  0.0
N  N273  1  0.13309620  0.78440602  0.27252032  1  -1.179799  -0.000306  -0.316342  -0.371777  -0.000419  3.290274  0.0
N  N274  1  0.63309840  0.71559366  0.72747972  1  -1.179879  -0.000306  -0.316338  -0.371778  -0.000419  3.2903  0.0
N  N275  1  0.86690814  0.28440586  0.22747875  1  -1.17982  -0.000306  -0.316275  -0.371657  -0.000419  3.290169  0.0
N  N276  1  0.36598404  0.28897018  0.86553916  1  -1.205141  -0.000265  -0.316815  -0.378233  -0.00044  3.266659  0.0
N  N277  1  0.13401071  0.71102735  0.36553783  1  -1.205144  -0.000265  -0.316824  -0.378185  -0.00044  3.266592  0.0
N  N278  1  0.63401429  0.78897233  0.63446461  1  -1.205242  -0.000265  -0.316865  -0.378411  -0.000439  3.26675  0.0
N  N279  1  0.86599559  0.21102695  0.13446286  1  -1.20506  -0.000265  -0.316832  -0.378257  -0.000439  3.266478  0.0
N  N280  1  0.52734819  0.28074476  0.94425480  1  -1.250681  0.005531  -0.217475  -0.02155  0.002467  3.74571  0.004
N  N281  1  0.97264567  0.71925411  0.44425358  1  -1.251175  0.005531  -0.217582  -0.021673  0.002466  3.745881  0.004
N  N282  1  0.47264818  0.78074610  0.55574899  1  -1.250607  0.005532  -0.217458  -0.02162  0.002467  3.745666  0.004
N  N283  1  0.02735866  0.21925290  0.05574661  1  -1.251069  0.005531  -0.217589  -0.021661  0.002466  3.745842  0.004
N  N284  1  0.57268994  0.35566752  0.02181585  1  -1.209996  0.062092  -0.354679  -0.297743  0.032738  3.639198  0.039
N  N285  1  0.92730078  0.64433369  0.52181574  1  -1.210442  0.062096  -0.354742  -0.297684  0.032738  3.63933  0.039
N  N286  1  0.42730950  0.85566758  0.47818591  1  -1.210134  0.062091  -0.354671  -0.297743  0.032738  3.639174  0.039
N  N287  1  0.07269950  0.14433172  0.97818359  1  -1.210419  0.062093  -0.354729  -0.297714  0.032738  3.639169  0.039
N  N288  1  0.09735521  0.69293627  0.12640568  1  0.380822  -0.0002  0.056128  0.516323  -0.000226  4.188547  0.0
N  N289  1  0.40262189  0.30706515  0.62639974  1  0.381229  -0.0002  0.056298  0.516408  -0.000226  4.188989  0.0
N  N290  1  0.90262949  0.19293883  0.37359889  1  0.382089  -0.0002  0.056198  0.516323  -0.000226  4.189078  0.0
N  N291  1  0.59736368  0.80706289  0.87360158  1  0.380865  -0.0002  0.056252  0.516405  -0.000226  4.188873  0.0
N  N292  1  0.08465818  0.80087609  0.63596938  1  0.381945  -0.0002  0.059026  0.519325  -0.000236  4.186128  0.0
N  N293  1  0.41534538  0.19912160  0.13595995  1  0.382784  -0.000201  0.059109  0.519471  -0.000236  4.186097  0.0
N  N294  1  0.91534898  0.30087921  0.86403292  1  0.38186  -0.000201  0.0591  0.519433  -0.000236  4.186337  0.0
N  N295  1  0.58465110  0.69912570  0.36403167  1  0.382226  -0.0002  0.059128  0.519525  -0.000236  4.186237  0.0
O  O296  1  0.40872570  0.49340408  0.06184607  1  -1.149994  0.098707  -0.31863  -0.562806  0.0517  2.406559  0.075
O  O297  1  0.09127522  0.50660491  0.56183658  1  -1.149618  0.098705  -0.318617  -0.5628  0.051701  2.40674  0.075
O  O298  1  0.59127474  0.99339688  0.43815583  1  -1.149521  0.098698  -0.318601  -0.562828  0.051699  2.406677  0.075
O  O299  1  0.90872308  0.00660148  0.93815831  1  -1.149802  0.098703  -0.318608  -0.562852  0.0517  2.406612  0.075
O  O300  1  0.28603126  0.39644141  0.08342367  1  -1.174482  0.015432  -0.314978  -0.551689  0.007493  2.148548  0.012
O  O301  1  0.21396761  0.60356751  0.58342149  1  -1.174692  0.015431  -0.315038  -0.55173  0.007492  2.148161  0.012
O  O302  1  0.71397113  0.89643586  0.41657464  1  -1.174556  0.015428  -0.315018  -0.55171  0.007491  2.148166  0.012
O  O303  1  0.78602579  0.10356415  0.91657843  1  -1.174603  0.015429  -0.315036  -0.551735  0.007491  2.14813  0.012
O  O304  1  0.80798150  0.41806800  0.08295750  1  -1.110065  0.052406  -0.307707  -0.539271  0.026155  2.179281  0.045
O  O305  1  0.69203449  0.58192986  0.58296594  1  -1.110215  0.052428  -0.30769  -0.539275  0.026162  2.179262  0.045
O  O306  1  0.19203071  0.91807509  0.41704458  1  -1.109985  0.052427  -0.307742  -0.539411  0.026163  2.179357  0.045
O  O307  1  0.30796480  0.08192545  0.91704266  1  -1.110014  0.052428  -0.307786  -0.539413  0.026163  2.179314  0.045
O  O308  1  0.70810475  0.52184115  0.07365093  1  -1.141713  0.091318  -0.315944  -0.527375  0.046695  2.275359  0.072
O  O309  1  0.79189262  0.47815568  0.57364995  1  -1.14182  0.09132  -0.315873  -0.527259  0.046694  2.275453  0.072
O  O310  1  0.29189466  0.02184883  0.42634735  1  -1.142225  0.091317  -0.315912  -0.527276  0.046694  2.27551  0.072
O  O311  1  0.20810278  0.97815115  0.92634759  1  -1.141969  0.091316  -0.315914  -0.527326  0.046694  2.275542  0.072
O  O312  1  0.99647287  0.72911282  0.13264417  1  -0.478274  -0.000295  -0.121176  -0.341037  -0.000409  2.009357  0.0
O  O313  1  0.50350463  0.27088646  0.63263585  1  -0.479155  -0.000295  -0.121315  -0.341234  -0.000409  2.009751  0.0
O  O314  1  0.00351184  0.22911804  0.36736318  1  -0.479467  -0.000295  -0.121225  -0.34111  -0.000409  2.009869  0.0
O  O315  1  0.49647800  0.77088686  0.86736412  1  -0.478047  -0.000295  -0.121236  -0.341115  -0.000409  2.009624  0.0
O  O316  1  0.21015760  0.71533900  0.13612188  1  -0.486755  -5.4e-05  -0.127406  -0.343602  -9.4e-05  1.996655  0.0
O  O317  1  0.28981651  0.28466924  0.63612186  1  -0.486481  -5.4e-05  -0.127339  -0.343456  -9.4e-05  1.996676  0.0
O  O318  1  0.78982416  0.21533632  0.36387928  1  -0.487121  -5.4e-05  -0.127391  -0.343527  -9.4e-05  1.996544  0.0
O  O319  1  0.71016709  0.78466385  0.86388143  1  -0.486935  -5.4e-05  -0.127451  -0.343623  -9.4e-05  1.996774  0.0
O  O320  1  0.80621089  0.07582838  0.58169159  1  -1.102926  0.049103  -0.307986  -0.540617  0.024371  2.181222  0.042
O  O321  1  0.69379921  0.92416843  0.08169110  1  -1.103189  0.049121  -0.307992  -0.540516  0.024376  2.18119  0.042
O  O322  1  0.19380410  0.57582756  0.91831079  1  -1.103246  0.049119  -0.307959  -0.540497  0.024376  2.181247  0.042
O  O323  1  0.30620809  0.42417192  0.41830953  1  -1.102908  0.049113  -0.307989  -0.540642  0.024375  2.181208  0.042
O  O324  1  0.70611140  0.97173479  0.57329661  1  -1.154516  0.092765  -0.317299  -0.529906  0.047265  2.289932  0.073
O  O325  1  0.79388991  0.02826362  0.07330067  1  -1.154421  0.092759  -0.317362  -0.529883  0.047263  2.289916  0.073
O  O326  1  0.29390069  0.47173351  0.92670430  1  -1.154725  0.092755  -0.317425  -0.529943  0.047261  2.290087  0.073
O  O327  1  0.20611147  0.52826805  0.42669713  1  -1.154533  0.092761  -0.317398  -0.529972  0.047264  2.289871  0.073
O  O328  1  0.28702636  0.09333598  0.58506751  1  -1.171072  0.017028  -0.31773  -0.553143  0.008271  2.128165  0.014
O  O329  1  0.21297348  0.90665765  0.08506226  1  -1.171206  0.01703  -0.317733  -0.553121  0.008272  2.128123  0.014
O  O330  1  0.71297881  0.59334098  0.91492716  1  -1.171219  0.01703  -0.317746  -0.553145  0.008272  2.128078  0.014
O  O331  1  0.78702695  0.40666115  0.41492740  1  -1.171108  0.017027  -0.317775  -0.553164  0.008271  2.127985  0.014
O  O332  1  0.40522681  0.99517770  0.56242151  1  -1.143581  0.100158  -0.319975  -0.563991  0.052277  2.397753  0.077
O  O333  1  0.09477509  0.00481758  0.06242295  1  -1.143975  0.100148  -0.319929  -0.563959  0.052275  2.397948  0.077
O  O334  1  0.59478430  0.49518113  0.93757742  1  -1.144172  0.100145  -0.319926  -0.563965  0.052273  2.39777  0.077
O  O335  1  0.90522628  0.50482198  0.43757202  1  -1.143448  0.100144  -0.31991  -0.564011  0.052273  2.397789  0.077
O  O336  1  0.19529747  0.77364144  0.63854318  1  -0.483328  -4.3e-05  -0.123612  -0.335552  -9.4e-05  1.99325  0.0
O  O337  1  0.30470411  0.22635151  0.13854960  1  -0.483051  -4.3e-05  -0.123745  -0.335704  -9.4e-05  1.993365  0.0
O  O338  1  0.80470969  0.27364615  0.86145487  1  -0.483076  -4.3e-05  -0.123715  -0.335625  -9.3e-05  1.99338  0.0
O  O339  1  0.69529041  0.72635982  0.36145153  1  -0.483534  -4.3e-05  -0.123681  -0.335648  -9.3e-05  1.993303  0.0
O  O340  1  0.98199056  0.77056997  0.65269255  1  -0.473977  -0.000267  -0.124783  -0.342662  -0.000365  1.986513  0.0
O  O341  1  0.51801826  0.22943768  0.15266044  1  -0.474996  -0.000267  -0.124807  -0.342622  -0.000365  1.986135  0.0
O  O342  1  0.01801463  0.27056630  0.84731701  1  -0.474056  -0.000267  -0.124823  -0.342723  -0.000365  1.986483  0.0
O  O343  1  0.48198215  0.72943761  0.34732103  1  -0.474161  -0.000267  -0.124778  -0.342664  -0.000365  1.986449  0.0
