# generated using pymatgen
data_Co3H34C44S3(NO3)4
_symmetry_space_group_name_H-M   'P 1'
_cell_length_a   14.94764579
_cell_length_b   17.06968546
_cell_length_c   21.76192265
_cell_angle_alpha   89.99976479
_cell_angle_beta   90.00010098
_cell_angle_gamma   90.00007033
_symmetry_Int_Tables_number   1
_chemical_formula_structural   Co3H34C44S3(NO3)4
_chemical_formula_sum   'Co12 H136 C176 S12 N16 O48'
_cell_volume   5552.58964498
_cell_formula_units_Z   4
loop_
 _symmetry_equiv_pos_site_id
 _symmetry_equiv_pos_as_xyz
  1  'x, y, z'
loop_
 _atom_site_type_symbol
 _atom_site_label
 _atom_site_symmetry_multiplicity
 _atom_site_fract_x
 _atom_site_fract_y
 _atom_site_fract_z
 _atom_site_occupancy
 _atom_site_pbe_bader_charge
 _atom_site_pbe_bader_spin_density
 _atom_site_pbe_cm5_charge
 _atom_site_pbe_ddec_charge
 _atom_site_pbe_ddec_spin_density
 _atom_site_pbe_ddec_sum_bond_order
 _atom_site_pbe_magmom
Co  Co0  1  0.50000517  0.24999443  0.40521043  1  1.415325  2.681299  0.694691  1.131297  2.901284  2.369379  2.668
Co  Co1  1  0.50000242  0.75000214  0.09478809  1  1.41596  2.681298  0.694772  1.131375  2.901368  2.369851  2.668
Co  Co2  1  0.49999169  0.74999611  0.59478986  1  1.415625  2.681294  0.694712  1.13136  2.901315  2.369617  2.668
Co  Co3  1  0.49999643  0.24999544  0.90520486  1  1.415253  2.681336  0.694733  1.131465  2.901317  2.369415  2.668
Co  Co4  1  0.26907180  0.27530355  0.38648397  1  1.266836  2.589222  0.667463  0.850275  2.799252  2.524739  2.567
Co  Co5  1  0.73093447  0.22469011  0.38649030  1  1.266108  2.589192  0.66737  0.850083  2.79916  2.524726  2.567
Co  Co6  1  0.26907175  0.72469686  0.11352484  1  1.266822  2.589153  0.667503  0.850327  2.799191  2.524872  2.567
Co  Co7  1  0.73092445  0.77530497  0.11352229  1  1.266628  2.589165  0.667484  0.850245  2.799181  2.524829  2.567
Co  Co8  1  0.73092304  0.72469344  0.61351863  1  1.266707  2.589178  0.667555  0.850456  2.799213  2.524784  2.567
Co  Co9  1  0.26906439  0.77530336  0.61351689  1  1.26633  2.589219  0.667469  0.850148  2.79923  2.524906  2.567
Co  Co10  1  0.73092644  0.27530833  0.88647775  1  1.266574  2.589183  0.667521  0.850345  2.799182  2.524771  2.567
Co  Co11  1  0.26908043  0.22469729  0.88647342  1  1.266676  2.589162  0.66737  0.850123  2.799174  2.52453  2.567
H  H12  1  0.57053932  0.43397007  0.28246919  1  0.116281  0.000222  0.107198  0.118299  2.6e-05  1.023165  0.0
H  H13  1  0.42946268  0.06601828  0.28249680  1  0.116008  0.000223  0.107147  0.118199  2.6e-05  1.02316  0.0
H  H14  1  0.57055069  0.56603361  0.21752757  1  0.116038  0.000222  0.107189  0.118259  2.6e-05  1.023052  0.0
H  H15  1  0.42944042  0.93396122  0.21752875  1  0.116148  0.000222  0.107181  0.11823  2.6e-05  1.022997  0.0
H  H16  1  0.42944750  0.56602164  0.71750491  1  0.11601  0.000222  0.107171  0.118293  2.6e-05  1.022885  0.0
H  H17  1  0.57054622  0.93397695  0.71750764  1  0.115932  0.000222  0.107173  0.118348  2.6e-05  1.023289  0.0
H  H18  1  0.42943211  0.43395459  0.78246078  1  0.11575  0.000222  0.10716  0.118254  2.6e-05  1.022929  0.0
H  H19  1  0.57054573  0.06604397  0.78244995  1  0.116064  0.000222  0.107144  0.118274  2.6e-05  1.023106  0.0
H  H20  1  0.50762073  0.41939021  0.56802621  1  0.108939  0.000279  0.112521  0.130881  0.000116  0.97986  0.0
H  H21  1  0.49238600  0.08061653  0.56803914  1  0.107765  0.000279  0.112555  0.130793  0.000116  0.979846  0.0
H  H22  1  0.50762531  0.58062302  0.93197082  1  0.108096  0.000279  0.112476  0.130745  0.000116  0.979794  0.0
H  H23  1  0.49238835  0.91939141  0.93197487  1  0.108221  0.000279  0.112532  0.130981  0.000116  0.979858  0.0
H  H24  1  0.49237144  0.58061732  0.43196352  1  0.107929  0.000279  0.112518  0.130752  0.000116  0.979884  0.0
H  H25  1  0.50763293  0.91938221  0.43197357  1  0.108782  0.000279  0.112487  0.130756  0.000116  0.979777  0.0
H  H26  1  0.49238693  0.41938978  0.06802442  1  0.108486  0.000279  0.112526  0.130916  0.000116  0.979919  0.0
H  H27  1  0.50761385  0.08060851  0.06802313  1  0.109157  0.000279  0.112471  0.130789  0.000116  0.979847  0.0
H  H28  1  0.47911003  0.56384148  0.61076575  1  0.128248  8.7e-05  0.107838  0.123187  -0.00018  1.044585  0.0
H  H29  1  0.52087271  0.93616002  0.61076979  1  0.128157  8.7e-05  0.107923  0.123401  -0.00018  1.044645  0.0
H  H30  1  0.47911365  0.43617875  0.88922527  1  0.128527  8.7e-05  0.10786  0.123434  -0.00018  1.044422  0.0
H  H31  1  0.52089925  0.06382920  0.88922128  1  0.128433  8.7e-05  0.107903  0.123384  -0.00018  1.044342  0.0
H  H32  1  0.52088481  0.43617249  0.38922076  1  0.128822  8.7e-05  0.107875  0.123373  -0.00018  1.044514  0.0
H  H33  1  0.47912080  0.06383931  0.38923832  1  0.128274  8.7e-05  0.10783  0.123206  -0.00018  1.044567  0.0
H  H34  1  0.52088989  0.56383113  0.11077687  1  0.128302  8.7e-05  0.107867  0.123294  -0.00018  1.044442  0.0
H  H35  1  0.47910496  0.93615958  0.11076707  1  0.128323  8.7e-05  0.107849  0.123188  -0.00018  1.044545  0.0
H  H36  1  0.11139290  0.27839291  0.47246708  1  0.106897  0.001945  0.120282  0.090445  0.000678  0.98764  0.001
H  H37  1  0.88862295  0.22160731  0.47246534  1  0.106823  0.001944  0.120263  0.090437  0.000677  0.987608  0.001
H  H38  1  0.11140200  0.72160204  0.02753648  1  0.106931  0.001946  0.120253  0.090363  0.000678  0.987717  0.001
H  H39  1  0.88860870  0.77838033  0.02755203  1  0.106468  0.001945  0.120264  0.090462  0.000678  0.987611  0.001
H  H40  1  0.88861398  0.72162809  0.52754517  1  0.106609  0.001946  0.120256  0.090497  0.000678  0.987567  0.001
H  H41  1  0.11139999  0.77841604  0.52753587  1  0.107157  0.001945  0.120346  0.090374  0.000678  0.987685  0.001
H  H42  1  0.88861158  0.27837737  0.97245371  1  0.106828  0.001945  0.12029  0.090516  0.000678  0.987612  0.001
H  H43  1  0.11141558  0.22159615  0.97245883  1  0.106998  0.001944  0.120332  0.090506  0.000677  0.987798  0.001
H  H44  1  0.97481189  0.36153315  0.48743858  1  0.075478  0.00121  0.111098  0.122849  0.000565  0.979851  0.0
H  H45  1  0.02520869  0.13847460  0.48743329  1  0.075505  0.001209  0.111072  0.122892  0.000565  0.980109  0.0
H  H46  1  0.97481949  0.63845927  0.01256696  1  0.074778  0.00121  0.111073  0.122857  0.000565  0.980147  0.0
H  H47  1  0.02519451  0.86151556  0.01258349  1  0.074859  0.00121  0.111053  0.12275  0.000565  0.980062  0.0
H  H48  1  0.02519634  0.63848609  0.51257091  1  0.075397  0.00121  0.111002  0.122669  0.000565  0.979826  0.0
H  H49  1  0.97481358  0.86155284  0.51257114  1  0.075234  0.00121  0.111019  0.122848  0.000565  0.979984  0.0
H  H50  1  0.02519542  0.36151194  0.98742829  1  0.075324  0.00121  0.111001  0.122682  0.000565  0.980058  0.0
H  H51  1  0.97483044  0.13846619  0.98743152  1  0.075275  0.001209  0.111049  0.122862  0.000565  0.979936  0.0
H  H52  1  0.04170628  0.47668927  0.31683387  1  0.02237  0.000877  0.102531  0.105952  0.00044  1.027567  0.0
H  H53  1  0.95829313  0.02330183  0.31684066  1  0.022473  0.000877  0.102511  0.105969  0.00044  1.027614  0.0
H  H54  1  0.04170681  0.52331966  0.18317741  1  0.073119  0.000848  0.102632  0.10603  0.00044  1.027613  0.0
H  H55  1  0.95827686  0.97670581  0.18317037  1  0.073445  0.000847  0.10251  0.106004  0.00044  1.027502  0.0
H  H56  1  0.95827786  0.52330772  0.68316321  1  0.022492  0.000877  0.102562  0.105987  0.00044  1.027505  0.0
H  H57  1  0.04170105  0.97669340  0.68318077  1  0.073329  0.000847  0.10256  0.106032  0.00044  1.027651  0.0
H  H58  1  0.95828001  0.47670134  0.81683621  1  0.073719  0.000847  0.102511  0.105968  0.00044  1.027451  0.0
H  H59  1  0.04170728  0.02330582  0.81682579  1  0.073595  0.000847  0.10253  0.105916  0.00044  1.027583  0.0
H  H60  1  0.17331623  0.38881956  0.30904710  1  0.142329  0.001613  0.115857  0.09159  0.00022  1.01488  0.001
H  H61  1  0.82666910  0.11116221  0.30905758  1  0.142025  0.001614  0.115787  0.091565  0.00022  1.014853  0.001
H  H62  1  0.17332760  0.61117605  0.19096067  1  0.141877  0.001614  0.115824  0.091695  0.000221  1.01479  0.001
H  H63  1  0.82665475  0.88884352  0.19095191  1  0.141761  0.001614  0.115789  0.091542  0.000221  1.014884  0.001
H  H64  1  0.82666389  0.61117157  0.69094539  1  0.142131  0.001613  0.115823  0.091642  0.00022  1.014914  0.001
H  H65  1  0.17332373  0.88883243  0.69096202  1  0.142046  0.001612  0.115796  0.091712  0.00022  1.01484  0.001
H  H66  1  0.82665319  0.38884320  0.80905387  1  0.141891  0.001614  0.115859  0.091669  0.000221  1.014777  0.001
H  H67  1  0.17332873  0.11116811  0.80903782  1  0.141856  0.001613  0.115806  0.091702  0.000221  1.014857  0.001
H  H68  1  0.85619785  0.44099753  0.41875511  1  0.108122  -0.000514  0.095836  0.115055  -0.000493  1.016912  -0.001
H  H69  1  0.14381385  0.05900122  0.41875206  1  0.108001  -0.000514  0.095855  0.115076  -0.000492  1.016943  -0.001
H  H70  1  0.85620219  0.55900354  0.08124614  1  0.107913  -0.000515  0.095829  0.11499  -0.000493  1.016984  -0.001
H  H71  1  0.14379393  0.94099494  0.08124695  1  0.107949  -0.000514  0.095859  0.115009  -0.000493  1.016917  -0.001
H  H72  1  0.14379565  0.55900648  0.58124794  1  0.107967  -0.000515  0.095836  0.115009  -0.000493  1.016897  -0.001
H  H73  1  0.85619772  0.94100280  0.58124686  1  0.108064  -0.000515  0.095855  0.114983  -0.000493  1.016903  -0.001
H  H74  1  0.14380269  0.44099520  0.91875002  1  0.108043  -0.000515  0.095853  0.115016  -0.000493  1.016965  -0.001
H  H75  1  0.85620292  0.05900322  0.91875427  1  0.107941  -0.000514  0.095808  0.114994  -0.000492  1.016911  -0.001
H  H76  1  0.92212271  0.51304743  0.45425558  1  0.059322  -0.000938  0.094691  0.09916  -0.000773  0.985513  -0.001
H  H77  1  0.07789175  0.98695433  0.45425570  1  0.059269  -0.000939  0.094693  0.099047  -0.000774  0.985528  -0.001
H  H78  1  0.92213422  0.48695138  0.04574897  1  0.059353  -0.000939  0.094652  0.099088  -0.000773  0.985392  -0.001
H  H79  1  0.07786651  0.01304586  0.04575058  1  0.059435  -0.000939  0.094642  0.099097  -0.000774  0.985495  -0.001
H  H80  1  0.07787013  0.48695952  0.54574380  1  0.059437  -0.000939  0.094642  0.099069  -0.000773  0.985505  -0.001
H  H81  1  0.92212852  0.01305672  0.54575379  1  0.059251  -0.000939  0.094629  0.099065  -0.000774  0.985379  -0.001
H  H82  1  0.07787669  0.51304150  0.95425224  1  0.059399  -0.000939  0.094664  0.099141  -0.000774  0.985456  -0.001
H  H83  1  0.92213770  0.98694879  0.95425248  1  0.059258  -0.000938  0.094598  0.099037  -0.000773  0.985366  -0.001
H  H84  1  0.95947231  0.57079923  0.35109689  1  -0.007978  0.000165  0.086541  0.071008  0.000105  0.99906  0.0
H  H85  1  0.04054322  0.92919839  0.35110036  1  -0.007776  0.000165  0.086615  0.071012  0.000105  0.999214  0.0
H  H86  1  0.95947464  0.42920724  0.14891047  1  -0.007956  0.000165  0.086531  0.070957  0.000105  0.999162  0.0
H  H87  1  0.04052903  0.07079648  0.14890909  1  -0.007949  0.000165  0.08653  0.07097  0.000105  0.99918  0.0
H  H88  1  0.04052454  0.42920127  0.64889974  1  -0.008027  0.000165  0.086524  0.070935  0.000105  0.999138  0.0
H  H89  1  0.95946299  0.07079332  0.64891695  1  -0.007739  0.000165  0.086564  0.071021  0.000105  0.999146  0.0
H  H90  1  0.04052757  0.57079971  0.85110132  1  -0.008051  0.000165  0.086589  0.070966  0.000105  0.999319  0.0
H  H91  1  0.95947184  0.92920402  0.85109213  1  -0.00795  0.000165  0.086551  0.071017  0.000105  0.999118  0.0
H  H92  1  0.89325845  0.49886709  0.31484649  1  0.042587  -2e-06  0.086388  0.074194  -1.5e-05  1.002984  0.0
H  H93  1  0.10674430  0.00112988  0.31484541  1  0.042842  -2e-06  0.086394  0.074183  -1.5e-05  1.002971  0.0
H  H94  1  0.89325962  0.50113696  0.18515482  1  0.042395  -2e-06  0.086391  0.074113  -1.5e-05  1.003016  0.0
H  H95  1  0.10673944  0.99886273  0.18515631  1  0.042359  -2e-06  0.086382  0.074096  -1.5e-05  1.003087  0.0
H  H96  1  0.10673506  0.50113165  0.68515473  1  0.04258  -2e-06  0.086411  0.074204  -1.5e-05  1.002916  0.0
H  H97  1  0.89325188  0.99886008  0.68516087  1  0.042419  -2e-06  0.086362  0.074083  -1.5e-05  1.003122  0.0
H  H98  1  0.10672118  0.49886823  0.81484364  1  0.042228  -2e-06  0.086343  0.074124  -1.5e-05  1.003034  0.0
H  H99  1  0.89326745  0.00113953  0.81484215  1  0.042582  -2e-06  0.086334  0.074094  -1.5e-05  1.003022  0.0
H  H100  1  0.82543458  0.62797465  0.40110011  1  0.057844  -0.000597  0.101703  0.111844  -0.00052  0.955664  0.0
H  H101  1  0.17459178  0.87203267  0.40110300  1  0.057162  -0.000598  0.101725  0.111883  -0.00052  0.955573  0.0
H  H102  1  0.82543671  0.37202991  0.09890157  1  0.057755  -0.000597  0.101779  0.112014  -0.00052  0.9556  0.0
H  H103  1  0.17457017  0.12796939  0.09889788  1  0.057814  -0.000597  0.101744  0.111974  -0.00052  0.95545  0.0
H  H104  1  0.17456495  0.37202820  0.59889330  1  0.057684  -0.000596  0.101674  0.111837  -0.000519  0.955582  0.0
H  H105  1  0.82542648  0.12796725  0.59890511  1  0.057544  -0.000597  0.101776  0.112017  -0.00052  0.955457  0.0
H  H106  1  0.17457821  0.62796649  0.90109597  1  0.057528  -0.000598  0.101773  0.112036  -0.000521  0.955453  0.0
H  H107  1  0.82542802  0.87203697  0.90109415  1  0.057602  -0.000598  0.101817  0.112085  -0.00052  0.95549  0.0
H  H108  1  0.75784191  0.55158370  0.37404789  1  0.051157  -7.6e-05  0.094438  0.098907  -6.5e-05  1.007042  0.0
H  H109  1  0.24217368  0.94842962  0.37404144  1  0.050998  -7.6e-05  0.09438  0.098768  -6.5e-05  1.007041  0.0
H  H110  1  0.75784220  0.44841785  0.12596198  1  0.051229  -7.6e-05  0.094469  0.098989  -6.5e-05  1.007042  0.0
H  H111  1  0.24216408  0.05157076  0.12596182  1  0.050964  -7.6e-05  0.094394  0.098829  -6.5e-05  1.007079  0.0
H  H112  1  0.24215494  0.44842383  0.62595287  1  0.051129  -7.6e-05  0.094462  0.098912  -6.5e-05  1.006977  0.0
H  H113  1  0.75783655  0.05157206  0.62596024  1  0.050914  -7.6e-05  0.094457  0.098931  -6.5e-05  1.007044  0.0
H  H114  1  0.24216201  0.55156332  0.87403419  1  0.051086  -7.6e-05  0.094445  0.098891  -6.5e-05  1.007035  0.0
H  H115  1  0.75784348  0.94843560  0.87404215  1  0.051179  -7.6e-05  0.094476  0.098956  -6.5e-05  1.007041  0.0
H  H116  1  0.65491063  0.63034448  0.31367160  1  0.088729  0.000921  0.110908  0.122882  0.000394  0.991773  0.0
H  H117  1  0.34511351  0.86966154  0.31366461  1  0.088906  0.00092  0.110952  0.1231  0.000394  0.991768  0.0
H  H118  1  0.65491966  0.36963469  0.18632849  1  0.089222  0.00092  0.110859  0.122836  0.000394  0.991944  0.0
H  H119  1  0.34508945  0.13034363  0.18633373  1  0.088897  0.00092  0.11091  0.12281  0.000394  0.991876  0.0
H  H120  1  0.34508488  0.36967887  0.68633191  1  0.088933  0.00092  0.110946  0.122892  0.000394  0.991847  0.0
H  H121  1  0.65490007  0.13033544  0.68633753  1  0.088821  0.000921  0.110911  0.122889  0.000394  0.991699  0.0
H  H122  1  0.34509458  0.63034179  0.81366906  1  0.088941  0.000921  0.110879  0.122831  0.000394  0.991693  0.0
H  H123  1  0.65489871  0.86965101  0.81366519  1  0.088751  0.00092  0.110916  0.122927  0.000394  0.991693  0.0
H  H124  1  0.62904092  0.70081235  0.21461222  1  0.116338  0.001626  0.123944  0.103934  0.000319  1.00367  0.001
H  H125  1  0.37097426  0.79919363  0.21460409  1  0.116351  0.001626  0.123855  0.103912  0.000319  1.003896  0.001
H  H126  1  0.62905279  0.29915801  0.28538003  1  0.116686  0.001626  0.123942  0.103883  0.000319  1.003982  0.001
H  H127  1  0.37095456  0.20081393  0.28539197  1  0.116196  0.001626  0.123938  0.103887  0.000319  1.003772  0.001
H  H128  1  0.37095593  0.29921452  0.78539130  1  0.116038  0.001625  0.123818  0.103743  0.000319  1.003981  0.001
H  H129  1  0.62903463  0.20081683  0.78539299  1  0.11626  0.001626  0.123914  0.103934  0.000319  1.003802  0.001
H  H130  1  0.37095945  0.70082433  0.71461337  1  0.116207  0.001626  0.123886  0.103881  0.000319  1.003712  0.001
H  H131  1  0.62903828  0.79917017  0.71461154  1  0.116398  0.001625  0.123923  0.103972  0.000319  1.003814  0.001
H  H132  1  0.90066828  0.71211158  0.17856408  1  0.07748  0.001831  0.112685  0.077454  0.000381  1.011099  0.001
H  H133  1  0.09934080  0.78788873  0.17856898  1  0.077635  0.001832  0.112764  0.077535  0.000381  1.011082  0.001
H  H134  1  0.90067554  0.28788604  0.32144275  1  0.077233  0.00183  0.112666  0.077501  0.00038  1.011217  0.001
H  H135  1  0.09932589  0.21210621  0.32143686  1  0.0774  0.00183  0.112677  0.077426  0.000381  1.011092  0.001
H  H136  1  0.09932791  0.28789010  0.82143163  1  0.077437  0.00183  0.112725  0.077505  0.000381  1.011032  0.001
H  H137  1  0.90067211  0.21210826  0.82144051  1  0.077224  0.001829  0.112641  0.077406  0.00038  1.011104  0.001
H  H138  1  0.09932934  0.71211446  0.67856077  1  0.077259  0.00183  0.112707  0.077415  0.00038  1.011271  0.001
H  H139  1  0.90066963  0.78790308  0.67855884  1  0.07754  0.00183  0.112714  0.077441  0.000381  1.011003  0.001
H  H140  1  0.93841142  0.64461214  0.27572290  1  0.054991  0.000893  0.101754  0.105123  0.000371  1.024093  0.0
H  H141  1  0.06160526  0.85538764  0.27573077  1  0.05536  0.000892  0.101737  0.105175  0.000371  1.023772  0.0
H  H142  1  0.93841317  0.35540367  0.22429224  1  0.054959  0.000892  0.101761  0.105192  0.00037  1.024067  0.0
H  H143  1  0.06158934  0.14460432  0.22428100  1  0.054977  0.000892  0.101814  0.105299  0.00037  1.024022  0.0
H  H144  1  0.06158610  0.35538191  0.72427188  1  0.05487  0.000892  0.101779  0.105234  0.00037  1.023979  0.0
H  H145  1  0.93840899  0.14459997  0.72428010  1  0.055102  0.000892  0.101801  0.105214  0.000371  1.023954  0.0
H  H146  1  0.06158970  0.64460034  0.77571357  1  0.05498  0.000893  0.101786  0.105238  0.000371  1.024004  0.0
H  H147  1  0.93840350  0.85541434  0.77571608  1  0.055168  0.000892  0.101762  0.105205  0.000371  1.023973  0.0
C  C148  1  0.40240113  0.36816727  0.31634120  1  1.571691  -0.003916  0.207533  0.591333  -0.004875  4.224462  -0.002
C  C149  1  0.59761165  0.13181036  0.31636835  1  1.571491  -0.003935  0.207505  0.591347  -0.004893  4.224999  -0.002
C  C150  1  0.40240917  0.63184442  0.18365398  1  1.570748  -0.003919  0.207819  0.591782  -0.004884  4.223317  -0.002
C  C151  1  0.59757918  0.86815410  0.18365833  1  1.570424  -0.003917  0.207556  0.591485  -0.004887  4.224353  -0.002
C  C152  1  0.59759304  0.63182503  0.68364209  1  1.571273  -0.003921  0.20787  0.591987  -0.004885  4.223562  -0.002
C  C153  1  0.40240862  0.86816964  0.68364114  1  1.570856  -0.003917  0.207846  0.591621  -0.004885  4.223942  -0.002
C  C154  1  0.59758702  0.36815491  0.81633207  1  1.572181  -0.00392  0.207847  0.591959  -0.004879  4.223674  -0.002
C  C155  1  0.40240027  0.13184523  0.81632175  1  1.572237  -0.00393  0.207816  0.591887  -0.00489  4.224383  -0.002
C  C156  1  0.42557669  0.43818507  0.27966788  1  -0.206433  0.007827  -0.027423  -0.120636  0.003939  3.969556  0.006
C  C157  1  0.57443801  0.06178689  0.27969108  1  -0.20882  0.007834  -0.027476  -0.120888  0.003941  3.970088  0.006
C  C158  1  0.42557067  0.56181317  0.22032734  1  -0.206494  0.007838  -0.027421  -0.120766  0.003944  3.969775  0.006
C  C159  1  0.57442981  0.93817461  0.22033833  1  -0.207837  0.007836  -0.027544  -0.120875  0.003943  3.970116  0.006
C  C160  1  0.57442619  0.56180195  0.72030853  1  -0.207891  0.007837  -0.027536  -0.120983  0.003944  3.970134  0.006
C  C161  1  0.42557557  0.93819135  0.72030509  1  -0.207447  0.007828  -0.027433  -0.120785  0.003938  3.969812  0.006
C  C162  1  0.57443421  0.43817679  0.77965504  1  -0.207862  0.007831  -0.027594  -0.121079  0.00394  3.970329  0.006
C  C163  1  0.42556704  0.06182589  0.77964084  1  -0.208065  0.007833  -0.027532  -0.120929  0.003942  3.969947  0.006
C  C164  1  0.51125506  0.46487399  0.26681608  1  0.003722  -0.000825  -0.100401  -0.11223  -0.001352  4.011871  0.0
C  C165  1  0.48875358  0.03510507  0.26683558  1  -0.053967  -0.000832  -0.100357  -0.111906  -0.001355  4.011686  0.0
C  C166  1  0.51126109  0.53512611  0.23318108  1  -0.057242  -0.000829  -0.10036  -0.112159  -0.001356  4.011236  0.0
C  C167  1  0.48874344  0.96485633  0.23319325  1  0.003318  -0.00083  -0.100295  -0.11226  -0.001357  4.011587  0.0
C  C168  1  0.48875115  0.53511538  0.73316216  1  -0.05507  -0.000832  -0.100363  -0.112009  -0.001356  4.011468  0.0
C  C169  1  0.51126200  0.96488605  0.73315690  1  -0.055527  -0.000834  -0.100316  -0.112058  -0.001359  4.01129  0.0
C  C170  1  0.48874112  0.46485916  0.76680176  1  0.003874  -0.000825  -0.100264  -0.112314  -0.001352  4.011178  0.0
C  C171  1  0.51125542  0.03514300  0.76679556  1  0.004106  -0.00083  -0.100273  -0.112273  -0.001357  4.011364  0.0
C  C172  1  0.37972352  0.35918130  0.48008639  1  1.594925  -0.003393  0.210194  0.605845  -0.004344  4.202331  -0.002
C  C173  1  0.62028567  0.14082064  0.48010250  1  1.593982  -0.003387  0.21007  0.605668  -0.004345  4.202519  -0.002
C  C174  1  0.37973449  0.64081806  0.01991704  1  1.595012  -0.003398  0.21037  0.606111  -0.004352  4.201727  -0.002
C  C175  1  0.62027954  0.85918954  0.01991823  1  1.594866  -0.003411  0.210257  0.605935  -0.004364  4.201648  -0.002
C  C176  1  0.62026665  0.64081862  0.51991345  1  1.594776  -0.003396  0.210378  0.606158  -0.00435  4.201633  -0.002
C  C177  1  0.37972858  0.85917693  0.51990607  1  1.594656  -0.003387  0.210182  0.605912  -0.004344  4.202103  -0.002
C  C178  1  0.62028310  0.35919064  0.98008371  1  1.594915  -0.003392  0.210199  0.605721  -0.004344  4.202203  -0.002
C  C179  1  0.37971865  0.14080921  0.98007840  1  1.59495  -0.003405  0.210266  0.605933  -0.004358  4.202034  -0.002
C  C180  1  0.38378244  0.43194938  0.51702281  1  -0.168528  0.009954  -0.021035  -0.111921  0.00498  3.965388  0.008
C  C181  1  0.61622215  0.06805705  0.51704236  1  -0.168162  0.00995  -0.021178  -0.112194  0.004978  3.96564  0.008
C  C182  1  0.38379583  0.56805726  0.98297177  1  -0.167708  0.009957  -0.021013  -0.111942  0.004981  3.965573  0.008
C  C183  1  0.61622264  0.93195631  0.98297594  1  -0.169194  0.00996  -0.021043  -0.111921  0.004982  3.965711  0.008
C  C184  1  0.61619835  0.56805932  0.48296692  1  -0.167162  0.009958  -0.020944  -0.111891  0.004982  3.965208  0.008
C  C185  1  0.38377938  0.93193994  0.48296759  1  -0.167936  0.009952  -0.021023  -0.11201  0.004979  3.965727  0.008
C  C186  1  0.61621507  0.43196257  0.01701888  1  -0.16873  0.009956  -0.020947  -0.111825  0.00498  3.965292  0.008
C  C187  1  0.38378157  0.06804185  0.01702114  1  -0.168829  0.00996  -0.021056  -0.111976  0.004982  3.965405  0.008
C  C188  1  0.45016487  0.45602591  0.55720814  1  -0.037692  -0.001078  -0.097275  -0.115767  -0.001705  4.006878  0.0
C  C189  1  0.54983514  0.04397327  0.55722355  1  -0.036002  -0.001078  -0.09723  -0.115435  -0.001705  4.006478  0.0
C  C190  1  0.45017010  0.54398081  0.94278560  1  -0.03638  -0.001082  -0.097244  -0.115611  -0.001709  4.006786  0.0
C  C191  1  0.54984493  0.95603239  0.94278548  1  -0.036407  -0.001084  -0.097217  -0.115884  -0.00171  4.007077  0.0
C  C192  1  0.54982529  0.54397986  0.44277975  1  -0.036478  -0.001083  -0.097249  -0.11554  -0.001709  4.006956  0.0
C  C193  1  0.45017174  0.95602137  0.44278961  1  -0.037042  -0.001077  -0.09714  -0.115478  -0.001704  4.006451  0.0
C  C194  1  0.54983813  0.45603317  0.05721056  1  -0.036952  -0.001078  -0.097228  -0.115746  -0.001705  4.006818  0.0
C  C195  1  0.45016129  0.04396284  0.05720655  1  -0.037545  -0.001083  -0.097104  -0.11557  -0.00171  4.006686  0.0
C  C196  1  0.43562286  0.53237523  0.57945053  1  0.005448  0.000423  -0.093922  -0.096569  -0.000316  3.99213  0.001
C  C197  1  0.56436583  0.96762293  0.57945728  1  0.004443  0.000423  -0.094143  -0.097101  -0.000316  3.992734  0.001
C  C198  1  0.43563128  0.46762971  0.92054641  1  0.004161  0.000426  -0.093963  -0.09686  -0.000313  3.992621  0.001
C  C199  1  0.56438237  0.03237455  0.92054534  1  0.004517  0.000425  -0.094022  -0.096751  -0.000314  3.992573  0.001
C  C200  1  0.56436396  0.46763464  0.42054380  1  0.003626  0.000427  -0.094024  -0.096826  -0.000312  3.99265  0.001
C  C201  1  0.43562768  0.03237465  0.42055405  1  0.00474  0.000423  -0.093975  -0.096656  -0.000315  3.992383  0.001
C  C202  1  0.56437762  0.53237782  0.07945205  1  0.004655  0.000424  -0.093955  -0.096708  -0.000315  3.992478  0.001
C  C203  1  0.43561716  0.96761658  0.07944807  1  0.005275  0.000426  -0.094008  -0.096641  -0.000313  3.992229  0.001
C  C204  1  0.35838728  0.56620013  0.55600581  1  -0.210982  0.001743  -0.028667  -0.13224  0.000587  3.984388  0.001
C  C205  1  0.64159666  0.93380167  0.55601597  1  -0.210281  0.001742  -0.028499  -0.131856  0.000587  3.984378  0.001
C  C206  1  0.35839972  0.43380649  0.94398920  1  -0.210649  0.001738  -0.028733  -0.132275  0.000584  3.984729  0.001
C  C207  1  0.64161064  0.06620058  0.94398076  1  -0.210271  0.001737  -0.028748  -0.132266  0.000582  3.984303  0.001
C  C208  1  0.64159753  0.43381209  0.44398484  1  -0.21047  0.001736  -0.028758  -0.132371  0.000582  3.984761  0.001
C  C209  1  0.35839216  0.06619590  0.44399260  1  -0.210816  0.001743  -0.02874  -0.132356  0.000588  3.984593  0.001
C  C210  1  0.64160783  0.56620339  0.05601110  1  -0.210333  0.001741  -0.028705  -0.132113  0.000586  3.984554  0.001
C  C211  1  0.35838622  0.93379641  0.05600391  1  -0.21102  0.001737  -0.028643  -0.132113  0.000582  3.984573  0.001
C  C212  1  0.32386686  0.64420385  0.57095058  1  1.532626  -0.000596  0.201504  0.59038  -0.002276  4.184895  0.0
C  C213  1  0.67611110  0.85579377  0.57095460  1  1.53233  -0.000597  0.20151  0.590431  -0.002276  4.185175  0.0
C  C214  1  0.32388653  0.35579980  0.92904944  1  1.532608  -0.000593  0.201618  0.590671  -0.002272  4.185225  0.0
C  C215  1  0.67611644  0.14420676  0.92904218  1  1.532317  -0.000596  0.201599  0.590478  -0.002274  4.185057  0.0
C  C216  1  0.67611929  0.35580310  0.42904513  1  1.532379  -0.000592  0.201692  0.590797  -0.002272  4.184757  0.0
C  C217  1  0.32388509  0.14420087  0.42904938  1  1.532283  -0.000593  0.201602  0.590702  -0.002274  4.185017  0.0
C  C218  1  0.67611635  0.64421066  0.07095499  1  1.532357  -0.000597  0.201465  0.590132  -0.002275  4.185562  0.0
C  C219  1  0.32387975  0.85579257  0.07094663  1  1.532307  -0.000595  0.201514  0.590567  -0.002275  4.185217  0.0
C  C220  1  0.09245345  0.32311965  0.43912160  1  0.471417  -0.008534  0.044575  0.085833  -0.009128  3.978339  -0.005
C  C221  1  0.90755362  0.17688192  0.43912186  1  0.470842  -0.008539  0.044603  0.085944  -0.009135  3.978238  -0.005
C  C222  1  0.09246726  0.67687645  0.06088378  1  0.471481  -0.008544  0.044556  0.085883  -0.009137  3.97836  -0.005
C  C223  1  0.90754888  0.82310925  0.06089324  1  0.471509  -0.008537  0.044439  0.08573  -0.009131  3.978597  -0.005
C  C224  1  0.90754607  0.67689608  0.56089203  1  0.47116  -0.008536  0.044384  0.085505  -0.009129  3.978952  -0.005
C  C225  1  0.09245527  0.82313908  0.56088073  1  0.469964  -0.008536  0.044562  0.086004  -0.009132  3.97835  -0.005
C  C226  1  0.90754632  0.32310940  0.93911376  1  0.470897  -0.008543  0.044534  0.085841  -0.009138  3.978425  -0.005
C  C227  1  0.09246938  0.17687836  0.93911763  1  0.471218  -0.008536  0.044439  0.085712  -0.009129  3.978508  -0.005
C  C228  1  0.01738147  0.36991951  0.44724530  1  -0.01914  0.00717  -0.08846  -0.195472  0.00313  3.965462  0.006
C  C229  1  0.98263700  0.13008553  0.44724673  1  -0.018893  0.007172  -0.088286  -0.195494  0.003131  3.96563  0.006
C  C230  1  0.01738114  0.63007885  0.05276320  1  -0.090988  0.007141  -0.088361  -0.195443  0.003132  3.965562  0.006
C  C231  1  0.98261290  0.86991803  0.05276617  1  -0.090949  0.007136  -0.088227  -0.195137  0.003129  3.965721  0.006
C  C232  1  0.98260936  0.63009095  0.55276051  1  -0.018782  0.00717  -0.088184  -0.194987  0.00313  3.96558  0.006
C  C233  1  0.01737926  0.86993254  0.55276460  1  -0.090839  0.007136  -0.08837  -0.195434  0.003129  3.965738  0.006
C  C234  1  0.98262374  0.36991052  0.94724031  1  -0.018724  0.007175  -0.088251  -0.195158  0.003132  3.965521  0.006
C  C235  1  0.01739399  0.13007661  0.94724010  1  -0.091258  0.007135  -0.088261  -0.1953  0.003129  3.965734  0.006
C  C236  1  0.99585661  0.42746079  0.40354241  1  -0.073839  -0.01577  0.01131  0.171668  -0.01683  3.933603  -0.01
C  C237  1  0.00415774  0.07253980  0.40354649  1  -0.074698  -0.015774  0.011244  0.171739  -0.016834  3.933238  -0.01
C  C238  1  0.99586033  0.57254103  0.09647189  1  -0.00098  -0.015746  0.011371  0.171524  -0.01684  3.93337  -0.01
C  C239  1  0.00414118  0.92745913  0.09646613  1  -0.000936  -0.015739  0.01128  0.171437  -0.016832  3.933821  -0.01
C  C240  1  0.00414225  0.57254850  0.59646203  1  -0.073538  -0.015776  0.011254  0.171451  -0.016837  3.933512  -0.01
C  C241  1  0.99585317  0.92746363  0.59646805  1  -0.000998  -0.015741  0.011427  0.17161  -0.016834  3.933741  -0.01
C  C242  1  0.00414589  0.42745537  0.90353990  1  -0.073773  -0.015779  0.011289  0.171522  -0.016839  3.933791  -0.01
C  C243  1  0.99586571  0.07254723  0.90353417  1  -0.000911  -0.015728  0.01136  0.171504  -0.01682  3.933715  -0.01
C  C244  1  0.05315893  0.43346401  0.35277149  1  -0.010222  0.005567  -0.094743  -0.201993  0.002336  3.979134  0.005
C  C245  1  0.94684324  0.06653099  0.35277951  1  -0.010198  0.005568  -0.094756  -0.202064  0.002337  3.978948  0.005
C  C246  1  0.05316679  0.56654024  0.14724165  1  -0.060985  0.005598  -0.094872  -0.201799  0.002337  3.979256  0.005
C  C247  1  0.94683083  0.93347370  0.14723519  1  -0.062001  0.005598  -0.094686  -0.201867  0.002337  3.978861  0.005
C  C248  1  0.94682922  0.56653239  0.64723065  1  -0.010598  0.005568  -0.09463  -0.201784  0.002337  3.978803  0.005
C  C249  1  0.05315428  0.93347068  0.64724101  1  -0.061847  0.0056  -0.094843  -0.201947  0.002338  3.978917  0.005
C  C250  1  0.94683140  0.43347197  0.85277382  1  -0.061748  0.005601  -0.094684  -0.201911  0.002338  3.97888  0.005
C  C251  1  0.05316267  0.06653969  0.85276190  1  -0.061851  0.005594  -0.094718  -0.201594  0.002335  3.979185  0.005
C  C252  1  0.12673035  0.38427043  0.34745039  1  0.461743  -0.011389  0.043196  0.090859  -0.012699  3.960089  -0.007
C  C253  1  0.87327449  0.11572168  0.34745724  1  0.462476  -0.011387  0.043312  0.090883  -0.012697  3.960091  -0.007
C  C254  1  0.12674029  0.61572747  0.15255870  1  0.461723  -0.011393  0.043126  0.090446  -0.012703  3.960415  -0.007
C  C255  1  0.87324999  0.88428528  0.15255230  1  0.462437  -0.011391  0.043083  0.090592  -0.0127  3.959998  -0.007
C  C256  1  0.87325714  0.61572539  0.65255083  1  0.461872  -0.011391  0.04306  0.090575  -0.0127  3.960207  -0.007
C  C257  1  0.12673976  0.88428292  0.65255638  1  0.462267  -0.011396  0.043159  0.09039  -0.012707  3.959859  -0.007
C  C258  1  0.87325657  0.38427596  0.84745263  1  0.462291  -0.011396  0.043156  0.090793  -0.012707  3.959976  -0.007
C  C259  1  0.12674686  0.11571639  0.84744524  1  0.46194  -0.011381  0.043105  0.090351  -0.01269  3.960233  -0.007
C  C260  1  0.91491882  0.47905804  0.41134811  1  -0.054754  0.000216  -0.160842  -0.214712  -0.000379  3.947718  0.001
C  C261  1  0.08509688  0.02093782  0.41134097  1  -0.054298  0.000216  -0.160958  -0.214739  -0.00038  3.947702  0.001
C  C262  1  0.91491911  0.52094017  0.08866057  1  -0.054356  0.000216  -0.160829  -0.214578  -0.000379  3.947528  0.001
C  C263  1  0.08507837  0.97905886  0.08866347  1  -0.054454  0.000215  -0.160852  -0.214557  -0.000379  3.947747  0.001
C  C264  1  0.08507535  0.52094070  0.58865816  1  -0.054608  0.000216  -0.160792  -0.21455  -0.000379  3.947785  0.001
C  C265  1  0.91492004  0.97906092  0.58866254  1  -0.054318  0.000215  -0.160873  -0.214529  -0.00038  3.947523  0.001
C  C266  1  0.08508243  0.47905740  0.91133698  1  -0.054574  0.000215  -0.160889  -0.214753  -0.00038  3.947923  0.001
C  C267  1  0.91492718  0.02094399  0.91134234  1  -0.054207  0.000216  -0.160761  -0.21457  -0.000379  3.947081  0.001
C  C268  1  0.89959932  0.53396605  0.35719747  1  -0.0232  -2.4e-05  -0.163671  -0.125224  -5.2e-05  3.969278  0.0
C  C269  1  0.10040954  0.96603330  0.35719033  1  -0.024656  -2.4e-05  -0.163701  -0.125165  -5.2e-05  3.969415  0.0
C  C270  1  0.89960235  0.46603450  0.14281211  1  -0.023352  -2.4e-05  -0.163607  -0.124944  -5.2e-05  3.969168  0.0
C  C271  1  0.10039595  0.03396339  0.14281276  1  -0.023306  -2.4e-05  -0.163592  -0.12501  -5.2e-05  3.96929  0.0
C  C272  1  0.10039285  0.46603563  0.64280467  1  -0.022968  -2.4e-05  -0.163638  -0.125068  -5.2e-05  3.969208  0.0
C  C273  1  0.89958999  0.03396427  0.64281686  1  -0.0244  -2.4e-05  -0.163599  -0.125111  -5.2e-05  3.969312  0.0
C  C274  1  0.10039049  0.53396425  0.85718727  1  -0.023215  -2.4e-05  -0.163589  -0.124881  -5.2e-05  3.969211  0.0
C  C275  1  0.89959622  0.96603359  0.85718800  1  -0.023517  -2.4e-05  -0.163635  -0.125116  -5.2e-05  3.969135  0.0
C  C276  1  0.81731283  0.58655336  0.36252178  1  -0.015272  3e-06  -0.156363  -0.202572  -0.00026  3.939006  0.0
C  C277  1  0.18270541  0.91345299  0.36251950  1  -0.013564  3e-06  -0.156384  -0.202537  -0.00026  3.939033  0.0
C  C278  1  0.81731577  0.41344826  0.13748541  1  -0.015062  3e-06  -0.156493  -0.202944  -0.00026  3.93917  0.0
C  C279  1  0.18268719  0.08654439  0.13748231  1  -0.0148  3e-06  -0.156372  -0.202687  -0.000259  3.938866  0.0
C  C280  1  0.18268068  0.41345300  0.63747485  1  -0.015039  3e-06  -0.156407  -0.202704  -0.000259  3.938708  0.0
C  C281  1  0.81730147  0.08654634  0.63748678  1  -0.014025  3e-06  -0.156489  -0.202853  -0.00026  3.939302  0.0
C  C282  1  0.18268576  0.58653701  0.86251535  1  -0.014327  3e-06  -0.156481  -0.202898  -0.00026  3.938957  0.0
C  C283  1  0.81730364  0.91345787  0.86251385  1  -0.014327  3e-06  -0.156568  -0.202989  -0.00026  3.939417  0.0
C  C284  1  0.79934741  0.63126962  0.30414082  1  -0.029749  -0.007489  0.011696  0.168902  -0.008024  3.938343  -0.005
C  C285  1  0.20067536  0.86873763  0.30414422  1  -0.034512  -0.007492  0.011879  0.16951  -0.008026  3.938588  -0.005
C  C286  1  0.79935178  0.36872495  0.19586174  1  -0.030148  -0.007482  0.011738  0.168952  -0.008016  3.93843  -0.005
C  C287  1  0.20065467  0.13125918  0.19586313  1  -0.03016  -0.007481  0.011837  0.169135  -0.008014  3.938043  -0.005
C  C288  1  0.20064944  0.36873557  0.69585810  1  -0.030195  -0.007478  0.011853  0.169167  -0.008012  3.938166  -0.005
C  C289  1  0.79933621  0.13125526  0.69586021  1  -0.030669  -0.007486  0.011851  0.169398  -0.00802  3.938749  -0.005
C  C290  1  0.20065176  0.63125564  0.80413764  1  -0.030324  -0.007496  0.011819  0.169068  -0.008031  3.938168  -0.005
C  C291  1  0.79934017  0.86875245  0.80413671  1  -0.030285  -0.007489  0.01191  0.169386  -0.008023  3.93878  -0.005
C  C292  1  0.71177642  0.64845506  0.28557023  1  -0.094591  0.004819  -0.084156  -0.183219  0.00228  3.929769  0.004
C  C293  1  0.28825032  0.85154819  0.28557011  1  -0.091375  0.004825  -0.084304  -0.183934  0.002281  3.929727  0.004
C  C294  1  0.71177881  0.35152652  0.21442855  1  -0.039457  0.004796  -0.084035  -0.183085  0.00228  3.929795  0.004
C  C295  1  0.28822636  0.14845634  0.21443596  1  -0.09522  0.004818  -0.08417  -0.183139  0.002279  3.929686  0.004
C  C296  1  0.28822378  0.35155833  0.71443328  1  -0.094899  0.004817  -0.08433  -0.183426  0.002279  3.929796  0.004
C  C297  1  0.71176994  0.14844938  0.71443294  1  -0.094543  0.004821  -0.084177  -0.183334  0.002281  3.929591  0.004
C  C298  1  0.28822407  0.64845230  0.78556302  1  -0.09518  0.004823  -0.084081  -0.183045  0.002281  3.92931  0.004
C  C299  1  0.71176916  0.85155354  0.78556893  1  -0.095038  0.00482  -0.084236  -0.183412  0.00228  3.929449  0.004
C  C300  1  0.69670443  0.68763225  0.23049277  1  0.563623  -0.005163  0.049085  0.103638  -0.005689  3.918087  -0.003
C  C301  1  0.30330879  0.81236602  0.23048452  1  0.564024  -0.005166  0.049193  0.103799  -0.005691  3.917707  -0.003
C  C302  1  0.69671561  0.31233349  0.26950232  1  0.508181  -0.005133  0.048882  0.103331  -0.005679  3.918473  -0.003
C  C303  1  0.30328970  0.18763970  0.26951238  1  0.564665  -0.005155  0.048931  0.103459  -0.005679  3.918094  -0.003
C  C304  1  0.30329443  0.31238407  0.76951213  1  0.56428  -0.005155  0.049247  0.103984  -0.005679  3.918156  -0.003
C  C305  1  0.69669944  0.18763214  0.76951302  1  0.563825  -0.005161  0.04914  0.103645  -0.005687  3.918071  -0.003
C  C306  1  0.30328726  0.68764943  0.73048695  1  0.564615  -0.005167  0.048928  0.10327  -0.005692  3.917877  -0.003
C  C307  1  0.69669779  0.81235553  0.73049803  1  0.563968  -0.005161  0.04907  0.103481  -0.005686  3.918  -0.003
C  C308  1  0.84807407  0.69387621  0.21024326  1  0.46643  -0.00423  0.042556  0.093342  -0.005342  3.989568  -0.003
C  C309  1  0.15194044  0.80612217  0.21024863  1  0.46558  -0.004233  0.042555  0.093424  -0.005346  3.989426  -0.003
C  C310  1  0.84807994  0.30611548  0.28976212  1  0.464831  -0.004227  0.042605  0.093192  -0.00534  3.989219  -0.003
C  C311  1  0.15192074  0.19387869  0.28975544  1  0.466101  -0.004225  0.042599  0.093501  -0.005337  3.989231  -0.003
C  C312  1  0.15192011  0.30612605  0.78975474  1  0.466503  -0.004225  0.042525  0.093462  -0.005336  3.989359  -0.003
C  C313  1  0.84806912  0.19387072  0.78976361  1  0.465745  -0.00423  0.042692  0.093522  -0.005345  3.988684  -0.003
C  C314  1  0.15191759  0.69387447  0.71024048  1  0.465664  -0.004236  0.042619  0.093434  -0.005348  3.989132  -0.003
C  C315  1  0.84806140  0.80613529  0.71023843  1  0.465609  -0.00423  0.042634  0.093576  -0.005344  3.989084  -0.003
C  C316  1  0.86841845  0.65561468  0.26481112  1  -0.036031  0.003711  -0.096436  -0.204801  0.001789  3.982841  0.003
C  C317  1  0.13160021  0.84438399  0.26482278  1  -0.035368  0.003712  -0.096411  -0.204996  0.00179  3.982599  0.003
C  C318  1  0.86842356  0.34438173  0.23519199  1  -0.035164  0.003709  -0.096354  -0.20476  0.001789  3.982617  0.003
C  C319  1  0.13157697  0.15561450  0.23518632  1  -0.035608  0.003709  -0.096573  -0.20522  0.001788  3.982764  0.003
C  C320  1  0.13157639  0.34438641  0.73518320  1  -0.035718  0.003708  -0.09652  -0.205075  0.001788  3.982794  0.003
C  C321  1  0.86841136  0.15560948  0.73518073  1  -0.035841  0.003712  -0.096627  -0.205175  0.00179  3.982476  0.003
C  C322  1  0.13157864  0.65561175  0.76481337  1  -0.035583  0.003713  -0.096573  -0.205076  0.00179  3.982628  0.003
C  C323  1  0.86840918  0.84439655  0.76481306  1  -0.036478  0.003711  -0.096585  -0.205238  0.001789  3.982982  0.003
S  S324  1  0.34526036  0.50000991  0.24999480  1  0.250512  0.0007  0.0835  0.140364  -0.000788  2.841873  0.0
S  S325  1  0.65472815  0.99997654  0.25001948  1  0.251148  0.000697  0.083608  0.140586  -0.00079  2.842886  0.0
S  S326  1  0.65471374  0.49998942  0.74998390  1  0.251161  0.000698  0.083705  0.140795  -0.000788  2.843049  0.0
S  S327  1  0.34526402  0.00000873  0.74996933  1  0.251089  0.000698  0.083442  0.140433  -0.000789  2.842212  0.0
S  S328  1  0.30308014  0.50295653  0.50709062  1  0.245256  0.002785  0.09647  0.144012  0.001034  2.880201  0.002
S  S329  1  0.69691438  0.99704787  0.50710249  1  0.245006  0.002785  0.096487  0.144037  0.001034  2.880128  0.002
S  S330  1  0.30309814  0.49704885  0.99291030  1  0.244857  0.002784  0.096457  0.144002  0.001033  2.880162  0.002
S  S331  1  0.69691569  0.00295327  0.99291131  1  0.245618  0.002782  0.096501  0.144057  0.001031  2.880172  0.002
S  S332  1  0.69690400  0.49705100  0.49290784  1  0.244811  0.002784  0.096435  0.143944  0.001032  2.879888  0.002
S  S333  1  0.30308715  0.00294267  0.49290332  1  0.24512  0.002785  0.096482  0.144055  0.001034  2.880609  0.002
S  S334  1  0.69691075  0.50296747  0.00708679  1  0.245412  0.002784  0.096411  0.143959  0.001033  2.880128  0.002
S  S335  1  0.30308585  0.99703552  0.00708715  1  0.245412  0.002781  0.09641  0.143946  0.001031  2.88035  0.002
N  N336  1  0.14679707  0.32962784  0.38987321  1  -1.211518  0.057347  -0.337277  -0.248032  0.030378  3.620715  0.048
N  N337  1  0.85320586  0.17036638  0.38987711  1  -1.21055  0.057319  -0.337309  -0.248092  0.030374  3.621046  0.048
N  N338  1  0.14680095  0.67036891  0.11013590  1  -1.211672  0.057352  -0.33725  -0.247935  0.03038  3.620814  0.048
N  N339  1  0.85319791  0.82963411  0.11013333  1  -1.211449  0.057353  -0.337125  -0.247847  0.030381  3.620717  0.048
N  N340  1  0.85319644  0.67037149  0.61013306  1  -1.211627  0.057348  -0.337195  -0.24792  0.030378  3.620968  0.048
N  N341  1  0.14679768  0.82964057  0.61012870  1  -1.210494  0.057326  -0.337242  -0.247852  0.030377  3.620481  0.048
N  N342  1  0.85319389  0.32963101  0.88987312  1  -1.211428  0.057353  -0.33734  -0.248257  0.030383  3.621118  0.048
N  N343  1  0.14680095  0.17036756  0.88986467  1  -1.211561  0.057351  -0.337157  -0.247838  0.030379  3.620464  0.048
N  N344  1  0.76382266  0.71005343  0.19294370  1  -1.227507  0.057617  -0.329544  -0.250441  0.030461  3.589701  0.05
N  N345  1  0.23618779  0.78994622  0.19293866  1  -1.227038  0.057619  -0.329715  -0.250688  0.030463  3.58989  0.05
N  N346  1  0.76382655  0.28992411  0.30705606  1  -1.226721  0.057608  -0.329475  -0.250065  0.030459  3.589185  0.05
N  N347  1  0.23617217  0.21005239  0.30706046  1  -1.22778  0.057605  -0.32943  -0.250315  0.030456  3.589328  0.05
N  N348  1  0.23617486  0.28996114  0.80705476  1  -1.227612  0.057616  -0.329473  -0.250601  0.030457  3.589829  0.05
N  N349  1  0.76381107  0.21005897  0.80706118  1  -1.226341  0.05761  -0.329653  -0.25063  0.030462  3.589629  0.05
N  N350  1  0.23616830  0.71006819  0.69293872  1  -1.227324  0.057619  -0.329466  -0.250131  0.030464  3.588983  0.05
N  N351  1  0.76380930  0.78994518  0.69293938  1  -1.226284  0.057604  -0.329608  -0.250501  0.030459  3.589528  0.05
O  O352  1  0.46751975  0.32701008  0.33511722  1  -1.163047  0.058231  -0.306051  -0.564404  0.030559  2.392205  0.051
O  O353  1  0.53248171  0.17296393  0.33514140  1  -1.163461  0.058269  -0.306125  -0.564495  0.030571  2.392204  0.051
O  O354  1  0.46753180  0.67299700  0.16487253  1  -1.16288  0.058286  -0.306232  -0.564545  0.030578  2.391777  0.051
O  O355  1  0.53245450  0.82700807  0.16486635  1  -1.162479  0.058302  -0.306021  -0.564371  0.030591  2.391938  0.051
O  O356  1  0.53246908  0.67296992  0.66485780  1  -1.162938  0.058266  -0.306223  -0.564715  0.030575  2.391948  0.051
O  O357  1  0.46751915  0.82700435  0.66486579  1  -1.163267  0.058273  -0.306262  -0.564565  0.030579  2.392311  0.051
O  O358  1  0.53247041  0.32699765  0.83511720  1  -1.163508  0.058256  -0.30623  -0.564728  0.030575  2.391778  0.051
O  O359  1  0.46752362  0.17297896  0.83512475  1  -1.163261  0.058259  -0.30611  -0.5647  0.030572  2.392322  0.051
O  O360  1  0.31924088  0.35530521  0.32651858  1  -1.142951  0.081609  -0.316762  -0.558533  0.04183  2.391243  0.069
O  O361  1  0.68076992  0.14466826  0.32654395  1  -1.142188  0.081576  -0.316517  -0.558246  0.041813  2.392053  0.069
O  O362  1  0.31925292  0.64471283  0.17348294  1  -1.142518  0.081618  -0.316904  -0.558801  0.041836  2.391457  0.069
O  O363  1  0.68072938  0.85527638  0.17349385  1  -1.142324  0.081582  -0.316883  -0.558654  0.041827  2.392105  0.069
O  O364  1  0.68074660  0.64469646  0.67347758  1  -1.142558  0.081596  -0.316875  -0.558754  0.041825  2.391446  0.069
O  O365  1  0.31925035  0.85530939  0.67346278  1  -1.142239  0.081611  -0.316881  -0.558649  0.041834  2.391292  0.069
O  O366  1  0.68073925  0.35529705  0.82650633  1  -1.142526  0.08158  -0.316978  -0.558831  0.041825  2.39166  0.069
O  O367  1  0.31924138  0.14470831  0.82648760  1  -1.14292  0.081577  -0.316906  -0.558642  0.041822  2.391434  0.069
O  O368  1  0.45318388  0.32389307  0.47084879  1  -1.144309  0.074422  -0.303158  -0.550343  0.038528  2.352755  0.064
O  O369  1  0.54682127  0.17610892  0.47085873  1  -1.14398  0.07444  -0.303141  -0.550217  0.038541  2.352355  0.064
O  O370  1  0.45319425  0.67611223  0.02915197  1  -1.144502  0.074453  -0.303319  -0.55063  0.038545  2.352702  0.064
O  O371  1  0.54681043  0.82390118  0.02915961  1  -1.14408  0.074468  -0.303224  -0.550465  0.038551  2.352189  0.065
O  O372  1  0.54680896  0.67611329  0.52914737  1  -1.144457  0.074459  -0.303319  -0.550554  0.038547  2.352582  0.064
O  O373  1  0.45318696  0.82389276  0.52914846  1  -1.14455  0.074412  -0.303227  -0.550382  0.038523  2.352812  0.064
O  O374  1  0.54681598  0.32389296  0.97084925  1  -1.144108  0.074439  -0.303244  -0.55044  0.038535  2.352035  0.064
O  O375  1  0.45318575  0.17610166  0.97084391  1  -1.144057  0.074463  -0.303175  -0.550401  0.038548  2.352274  0.064
O  O376  1  0.30217414  0.34097359  0.45945905  1  -1.155356  0.071028  -0.3278  -0.566674  0.036659  2.378944  0.06
O  O377  1  0.69783566  0.15903315  0.45948623  1  -1.154875  0.070995  -0.327713  -0.566653  0.036646  2.379256  0.06
O  O378  1  0.30218921  0.65901982  0.04054520  1  -1.155583  0.07098  -0.327852  -0.566721  0.036635  2.378633  0.06
O  O379  1  0.69782086  0.84098298  0.04054791  1  -1.155398  0.070984  -0.32784  -0.56672  0.03664  2.379149  0.06
O  O380  1  0.69781134  0.65902574  0.54054584  1  -1.155548  0.071015  -0.327853  -0.566835  0.036654  2.378757  0.06
O  O381  1  0.30217591  0.84096911  0.54052601  1  -1.155382  0.070997  -0.327777  -0.566767  0.036644  2.378595  0.06
O  O382  1  0.69782504  0.34098712  0.95945694  1  -1.155439  0.070984  -0.327847  -0.566635  0.036639  2.379182  0.06
O  O383  1  0.30217867  0.15901518  0.95944595  1  -1.155524  0.070995  -0.327821  -0.566713  0.036643  2.379231  0.06
O  O384  1  0.37601695  0.69323693  0.59878447  1  -1.158882  0.102932  -0.309825  -0.591079  0.055308  2.52238  0.089
O  O385  1  0.62396643  0.80675410  0.59879134  1  -1.159329  0.10294  -0.309746  -0.590926  0.055316  2.522745  0.089
O  O386  1  0.37603246  0.30676795  0.90121608  1  -1.159013  0.102921  -0.309824  -0.591019  0.055302  2.52274  0.089
O  O387  1  0.62396374  0.19323642  0.90121089  1  -1.159225  0.102912  -0.309817  -0.590925  0.055302  2.522891  0.089
O  O388  1  0.62397388  0.30676533  0.40121537  1  -1.159005  0.1029  -0.309774  -0.591067  0.055292  2.522619  0.089
O  O389  1  0.37603242  0.19323703  0.40121907  1  -1.159067  0.102913  -0.309808  -0.591074  0.055303  2.522708  0.089
O  O390  1  0.62397108  0.69324251  0.09879158  1  -1.159303  0.102933  -0.309762  -0.590829  0.055308  2.523123  0.089
O  O391  1  0.37602375  0.80675881  0.09878160  1  -1.158998  0.102936  -0.309774  -0.59102  0.055312  2.52258  0.089
O  O392  1  0.24286414  0.66358204  0.56091875  1  -1.150871  0.075287  -0.317128  -0.54776  0.03845  2.145852  0.062
O  O393  1  0.75711045  0.83641036  0.56091420  1  -1.150078  0.075299  -0.317187  -0.548092  0.038459  2.145961  0.062
O  O394  1  0.24289116  0.33642093  0.93908990  1  -1.150592  0.075272  -0.317155  -0.54804  0.038442  2.145876  0.062
O  O395  1  0.75711985  0.16359730  0.93908681  1  -1.150327  0.075311  -0.317161  -0.548027  0.038466  2.145551  0.062
O  O396  1  0.75712134  0.33642490  0.43908614  1  -1.1504  0.075267  -0.317247  -0.548109  0.038444  2.145588  0.062
O  O397  1  0.24288239  0.16357901  0.43908977  1  -1.150305  0.075295  -0.317191  -0.548088  0.038456  2.145669  0.062
O  O398  1  0.75711974  0.66359481  0.06091454  1  -1.150376  0.075305  -0.317155  -0.547873  0.038462  2.145815  0.062
O  O399  1  0.24287901  0.83640906  0.06091303  1  -1.150541  0.075295  -0.317155  -0.548057  0.038457  2.145924  0.062
