# generated using pymatgen
data_CdH26C18(NO)4
_symmetry_space_group_name_H-M   'P 1'
_cell_length_a   14.61118053
_cell_length_b   18.13904074
_cell_length_c   16.64342844
_cell_angle_alpha   89.99814072
_cell_angle_beta   89.99932917
_cell_angle_gamma   89.99926032
_symmetry_Int_Tables_number   1
_chemical_formula_structural   CdH26C18(NO)4
_chemical_formula_sum   'Cd8 H208 C144 N32 O32'
_cell_volume   4411.05441757
_cell_formula_units_Z   8
loop_
 _symmetry_equiv_pos_site_id
 _symmetry_equiv_pos_as_xyz
  1  'x, y, z'
loop_
 _atom_site_type_symbol
 _atom_site_label
 _atom_site_symmetry_multiplicity
 _atom_site_fract_x
 _atom_site_fract_y
 _atom_site_fract_z
 _atom_site_occupancy
 _atom_site_pbe_bader_charge
 _atom_site_pbe_bader_spin_density
 _atom_site_pbe_cm5_charge
 _atom_site_pbe_ddec_charge
 _atom_site_pbe_ddec_spin_density
 _atom_site_pbe_ddec_sum_bond_order
 _atom_site_pbe_magmom
Cd  Cd0  1  0.15844083  0.26871416  0.25319695  1  1.234694  0  0.755817  0.835142  0  2.220819  0
Cd  Cd1  1  0.34154496  0.76871456  0.24681830  1  1.234559  0  0.755811  0.835109  0  2.220909  0
Cd  Cd2  1  0.34155689  0.73128430  0.75320019  1  1.23472  0  0.755812  0.835151  0  2.220845  0
Cd  Cd3  1  0.15845494  0.23128409  0.74680924  1  1.234613  0  0.755809  0.835046  0  2.220891  0
Cd  Cd4  1  0.84157473  0.73127608  0.74679455  1  1.234715  0  0.755781  0.834969  0  2.220937  0
Cd  Cd5  1  0.65844460  0.23129111  0.75319363  1  1.234827  0  0.755846  0.835127  0  2.22083  0
Cd  Cd6  1  0.65844635  0.26870262  0.24681113  1  1.23477  0  0.755839  0.835073  0  2.220932  0
Cd  Cd7  1  0.84155446  0.76871056  0.25319187  1  1.234821  0  0.755799  0.835028  0  2.22101  0
H  H8  1  0.30348847  0.04353780  0.18033088  1  0.041088  0  0.093543  0.105891  0  1.013404  0
H  H9  1  0.19650918  0.54353635  0.31967417  1  0.04091  0  0.093559  0.105971  0  1.013501  0
H  H10  1  0.19651206  0.95646066  0.68033126  1  0.041137  0  0.093518  0.105883  0  1.01348  0
H  H11  1  0.30349270  0.45646451  0.81966854  1  0.041041  0  0.093536  0.105915  0  1.013409  0
H  H12  1  0.69652230  0.95644251  0.81964980  1  0.041523  0  0.093593  0.106014  0  1.013323  0
H  H13  1  0.80349269  0.45646436  0.68033295  1  0.041003  0  0.093552  0.105923  0  1.013539  0
H  H14  1  0.80349734  0.04352737  0.31968066  1  0.040687  0  0.09354  0.105969  0  1.013545  0
H  H15  1  0.69651260  0.54353620  0.18033918  1  0.04112  0  0.093528  0.105901  0  1.013429  0
H  H16  1  0.38968788  0.11030186  0.18777387  1  0.043107  0  0.091988  0.094803  0  1.051999  0
H  H17  1  0.11030514  0.61029698  0.31223066  1  0.042991  0  0.092025  0.094908  0  1.051877  0
H  H18  1  0.11031456  0.88969582  0.68777643  1  0.043155  0  0.092012  0.094847  0  1.051975  0
H  H19  1  0.38969346  0.38969968  0.81221848  1  0.043129  0  0.092005  0.094789  0  1.052029  0
H  H20  1  0.61032152  0.88967845  0.81220441  1  0.043337  0  0.092045  0.094882  0  1.051971  0
H  H21  1  0.88969057  0.38969821  0.68778307  1  0.043241  0  0.092006  0.094816  0  1.051934  0
H  H22  1  0.88969005  0.11029496  0.31223430  1  0.043005  0  0.092018  0.094872  0  1.051941  0
H  H23  1  0.61031320  0.61030157  0.18778563  1  0.043318  0  0.092025  0.094836  0  1.051985  0
H  H24  1  0.31919871  0.01371702  0.32574971  1  -0.018727  0  0.08319  0.071807  0  1.009632  0
H  H25  1  0.18080321  0.51371670  0.17425397  1  -0.018698  0  0.083182  0.071819  0  1.009565  0
H  H26  1  0.18080168  0.98628199  0.82574734  1  -0.018687  0  0.083202  0.071806  0  1.009594  0
H  H27  1  0.31919539  0.48628635  0.67424842  1  -0.017271  0  0.083152  0.071716  0  1.009791  0
H  H28  1  0.68080111  0.98627817  0.67423698  1  -0.017581  0  0.083191  0.071769  0  1.009678  0
H  H29  1  0.81919935  0.48629007  0.82575255  1  -0.017285  0  0.08313  0.071756  0  1.009673  0
H  H30  1  0.81919951  0.01371485  0.17425738  1  -0.018814  0  0.083124  0.071737  0  1.009573  0
H  H31  1  0.68079963  0.51371050  0.32575690  1  -0.017332  0  0.083137  0.071708  0  1.009756  0
H  H32  1  0.39268985  0.08965680  0.33924542  1  0.023708  0  0.080789  0.067423  0  1.029696  0
H  H33  1  0.10730581  0.58965762  0.16075803  1  0.023981  0  0.080781  0.067423  0  1.029688  0
H  H34  1  0.10731096  0.91034016  0.83924727  1  0.02388  0  0.080765  0.067407  0  1.029671  0
H  H35  1  0.39268758  0.41034529  0.66074692  1  0.02382  0  0.080781  0.067419  0  1.02964  0
H  H36  1  0.60730313  0.91034171  0.66073526  1  0.023522  0  0.080793  0.067432  0  1.029726  0
H  H37  1  0.89269059  0.41034695  0.83925210  1  0.023856  0  0.080795  0.067419  0  1.029671  0
H  H38  1  0.89269092  0.08965779  0.16076345  1  0.024076  0  0.08078  0.067464  0  1.029566  0
H  H39  1  0.60730334  0.58965045  0.33925599  1  0.023752  0  0.080752  0.06737  0  1.029633  0
H  H40  1  0.47196136  0.96395006  0.32887578  1  -0.008349  0  0.0798  0.065653  0  1.041606  0
H  H41  1  0.02804216  0.46394473  0.17112607  1  -0.00841  0  0.079786  0.065684  0  1.041495  0
H  H42  1  0.02803759  0.03604831  0.82887720  1  -0.008328  0  0.079813  0.06571  0  1.041535  0
H  H43  1  0.47196129  0.53605180  0.67111739  1  -0.008538  0  0.079869  0.065886  0  1.041386  0
H  H44  1  0.52803777  0.03604955  0.67112293  1  -0.00836  0  0.079835  0.065753  0  1.041501  0
H  H45  1  0.97196518  0.53605322  0.82887444  1  -0.008373  0  0.079784  0.065645  0  1.041527  0
H  H46  1  0.97196086  0.96394578  0.17112812  1  -0.008641  0  0.079799  0.065668  0  1.041485  0
H  H47  1  0.52803442  0.46394340  0.32887591  1  -0.008457  0  0.079825  0.065766  0  1.041442  0
H  H48  1  0.43367670  0.95707584  0.22930637  1  0.008203  0  0.085722  0.08737  0  0.989157  0
H  H49  1  0.06632086  0.45707347  0.27069512  1  0.008096  0  0.085725  0.087344  0  0.989137  0
H  H50  1  0.06632765  0.04292389  0.72930915  1  0.008224  0  0.085713  0.087375  0  0.989223  0
H  H51  1  0.43367583  0.54292611  0.77068640  1  0.008328  0  0.085697  0.08739  0  0.989103  0
H  H52  1  0.56633475  0.04291991  0.77068934  1  0.008654  0  0.085704  0.087324  0  0.98915  0
H  H53  1  0.93367896  0.54292614  0.72930659  1  0.008232  0  0.085726  0.08735  0  0.989198  0
H  H54  1  0.93368311  0.95707295  0.27069977  1  0.007872  0  0.085743  0.087332  0  0.989207  0
H  H55  1  0.56632741  0.45707239  0.22930930  1  0.008134  0  0.085718  0.087414  0  0.989128  0
H  H56  1  0.56281498  0.07778509  0.29430672  1  0.007837  0  0.085029  0.082632  0  1.008378  0
H  H57  1  0.93718577  0.57778376  0.20569150  1  0.007817  0  0.085011  0.082621  0  1.008386  0
H  H58  1  0.93718600  0.92221092  0.79430162  1  0.007836  0  0.08502  0.082638  0  1.008364  0
H  H59  1  0.56281080  0.42220942  0.70568713  1  0.007798  0  0.085039  0.082696  0  1.008333  0
H  H60  1  0.43719237  0.92220790  0.70570280  1  0.007605  0  0.085036  0.082691  0  1.008345  0
H  H61  1  0.06281062  0.42221089  0.79430660  1  0.007848  0  0.085061  0.082684  0  1.00838  0
H  H62  1  0.06281177  0.07778758  0.20569048  1  0.007777  0  0.08507  0.0827  0  1.008281  0
H  H63  1  0.43718902  0.57778522  0.29430918  1  0.007968  0  0.085029  0.082645  0  1.008365  0
H  H64  1  0.51999535  0.07536202  0.19626938  1  0.009324  0  0.081018  0.066731  0  1.045752  0
H  H65  1  0.97999999  0.57535651  0.30373073  1  0.009388  0  0.081028  0.066783  0  1.045778  0
H  H66  1  0.98001168  0.92464026  0.69626518  1  0.009499  0  0.080969  0.066693  0  1.045693  0
H  H67  1  0.51998916  0.42464197  0.80372589  1  0.009691  0  0.080988  0.066759  0  1.045798  0
H  H68  1  0.48001473  0.92464199  0.80373653  1  0.009384  0  0.08095  0.066691  0  1.045737  0
H  H69  1  0.01999572  0.42464089  0.69626738  1  0.009415  0  0.081017  0.066705  0  1.045741  0
H  H70  1  0.01999430  0.07536044  0.30373113  1  0.009408  0  0.081037  0.066764  0  1.045705  0
H  H71  1  0.48000997  0.57535874  0.19626981  1  0.0096  0  0.080987  0.066738  0  1.045814  0
H  H72  1  0.59404356  0.94990848  0.17608987  1  0.017726  0  0.08284  0.070933  0  1.020478  0
H  H73  1  0.90595074  0.44990699  0.32390683  1  0.018568  0  0.082829  0.070929  0  1.02053  0
H  H74  1  0.90596455  0.05009276  0.67609122  1  0.017837  0  0.082798  0.070858  0  1.02052  0
H  H75  1  0.59404417  0.55008867  0.82389665  1  0.017982  0  0.082832  0.070963  0  1.020557  0
H  H76  1  0.40595831  0.05009277  0.82390463  1  0.017775  0  0.082846  0.070971  0  1.020408  0
H  H77  1  0.09405455  0.55008820  0.67609788  1  0.016727  0  0.082818  0.070968  0  1.020519  0
H  H78  1  0.09405033  0.94991181  0.32390268  1  0.016616  0  0.082833  0.071014  0  1.020479  0
H  H79  1  0.40595360  0.44991149  0.17609305  1  0.016722  0  0.082839  0.070964  0  1.020438  0
H  H80  1  0.67146917  0.02299970  0.19255732  1  -0.010247  0  0.08421  0.074642  0  1.012477  0
H  H81  1  0.82852560  0.52299830  0.30743620  1  -0.010138  0  0.08423  0.074623  0  1.012493  0
H  H82  1  0.82853998  0.97700215  0.69255269  1  -0.010105  0  0.084222  0.074582  0  1.012469  0
H  H83  1  0.67146485  0.47699345  0.80743536  1  -0.009822  0  0.084264  0.074738  0  1.012431  0
H  H84  1  0.32853817  0.97699715  0.80744680  1  -0.009956  0  0.084215  0.074632  0  1.01252  0
H  H85  1  0.17147148  0.47699248  0.69256371  1  -0.009881  0  0.084271  0.074684  0  1.012507  0
H  H86  1  0.17147147  0.02300518  0.30743581  1  -0.009823  0  0.084254  0.074672  0  1.012547  0
H  H87  1  0.32853292  0.52300560  0.19256335  1  -0.009915  0  0.084245  0.074666  0  1.012429  0
H  H88  1  0.68803799  0.98429806  0.33665150  1  0.029207  0  0.093202  0.105949  0  1.004275  0
H  H89  1  0.81195465  0.48429504  0.16334581  1  0.02924  0  0.09316  0.105877  0  1.004358  0
H  H90  1  0.81195598  0.01570218  0.83664793  1  0.029329  0  0.093183  0.105905  0  1.004329  0
H  H91  1  0.68805029  0.51569336  0.66333993  1  0.028874  0  0.093144  0.105807  0  1.004387  0
H  H92  1  0.31196251  0.01568666  0.66334841  1  0.029327  0  0.093181  0.105873  0  1.004306  0
H  H93  1  0.18804653  0.51569133  0.83665650  1  0.028915  0  0.093131  0.105817  0  1.004446  0
H  H94  1  0.18804247  0.98430404  0.16333936  1  0.029165  0  0.093157  0.105866  0  1.004441  0
H  H95  1  0.31195774  0.48430018  0.33665637  1  0.029138  0  0.093151  0.105908  0  1.004409  0
H  H96  1  0.60347303  0.91644803  0.32282883  1  0.050735  0  0.092645  0.096254  0  1.041669  0
H  H97  1  0.89652154  0.41644549  0.17716724  1  0.050729  0  0.092674  0.096247  0  1.04162  0
H  H98  1  0.89652053  0.08355152  0.82282786  1  0.050851  0  0.092666  0.09629  0  1.041645  0
H  H99  1  0.60349066  0.58354965  0.67716185  1  0.050801  0  0.092669  0.096195  0  1.041694  0
H  H100  1  0.39651242  0.08354827  0.67716988  1  0.051015  0  0.092599  0.096123  0  1.041653  0
H  H101  1  0.10348581  0.58354529  0.82283627  1  0.050802  0  0.092645  0.096203  0  1.041726  0
H  H102  1  0.10348271  0.91644974  0.17716784  1  0.050762  0  0.092658  0.096226  0  1.041652  0
H  H103  1  0.39651669  0.41644554  0.32282965  1  0.05083  0  0.092638  0.096246  0  1.041647  0
H  H104  1  0.92920983  0.25673926  0.16712332  1  0.142194  0  0.120465  0.122937  0  1.006129  0
H  H105  1  0.57078311  0.75674267  0.33288611  1  0.142496  0  0.120488  0.122926  0  1.006243  0
H  H106  1  0.57078614  0.74325674  0.66712096  1  0.142311  0  0.120463  0.122958  0  1.006152  0
H  H107  1  0.92921779  0.24325878  0.83288122  1  0.142362  0  0.120466  0.123018  0  1.006129  0
H  H108  1  0.07079546  0.74325263  0.83287779  1  0.142298  0  0.12047  0.122906  0  1.006132  0
H  H109  1  0.42920987  0.24326300  0.66712342  1  0.142198  0  0.120475  0.122974  0  1.006059  0
H  H110  1  0.42921368  0.25674231  0.33288436  1  0.142435  0  0.120476  0.122892  0  1.00626  0
H  H111  1  0.07078135  0.75673861  0.16711509  1  0.142439  0  0.120457  0.122912  0  1.006266  0
H  H112  1  0.89387155  0.32884562  0.02323534  1  0.145183  0  0.131947  0.134351  0  0.983344  0
H  H113  1  0.60612619  0.82885727  0.47676737  1  0.14536  0  0.131979  0.134291  0  0.983331  0
H  H114  1  0.60612591  0.67115033  0.52323350  1  0.145383  0  0.131973  0.134337  0  0.983342  0
H  H115  1  0.89387390  0.17114865  0.97676638  1  0.145285  0  0.131972  0.134275  0  0.983311  0
H  H116  1  0.10613443  0.67114682  0.97676397  1  0.145158  0  0.131994  0.134341  0  0.983385  0
H  H117  1  0.39387089  0.17115611  0.52323734  1  0.145231  0  0.131966  0.134469  0  0.983268  0
H  H118  1  0.39387459  0.32885479  0.47676941  1  0.145383  0  0.13196  0.134291  0  0.983289  0
H  H119  1  0.10612729  0.82884986  0.02322992  1  0.145328  0  0.131947  0.134295  0  0.983265  0
H  H120  1  0.17170224  0.36095415  0.08802562  1  0.172643  0  0.138972  0.114917  0  0.992197  0
H  H121  1  0.32829393  0.86096558  0.41197801  1  0.172478  0  0.138973  0.114847  0  0.992047  0
H  H122  1  0.32829670  0.63903497  0.58803153  1  0.172931  0  0.139008  0.114848  0  0.992175  0
H  H123  1  0.17170542  0.13903744  0.91196969  1  0.172884  0  0.138997  0.114848  0  0.992117  0
H  H124  1  0.82830716  0.63902891  0.91196468  1  0.173134  0  0.139003  0.114914  0  0.992123  0
H  H125  1  0.67170109  0.13904119  0.58803331  1  0.172612  0  0.138996  0.114861  0  0.992247  0
H  H126  1  0.67170722  0.36095637  0.41197198  1  0.172504  0  0.138993  0.114881  0  0.992222  0
H  H127  1  0.82829508  0.86096216  0.08802241  1  0.172529  0  0.138977  0.114867  0  0.992164  0
H  H128  1  0.99626485  0.39087764  0.92056834  1  0.089569  0  0.113517  0.093523  0  0.999024  0
H  H129  1  0.50372805  0.89088999  0.57943411  1  0.089748  0  0.113481  0.093442  0  0.99913  0
H  H130  1  0.50373567  0.60911785  0.42056970  1  0.0898  0  0.113471  0.093432  0  0.999132  0
H  H131  1  0.99627035  0.10911473  0.07943224  1  0.089787  0  0.113515  0.093497  0  0.999067  0
H  H132  1  0.00373360  0.60911039  0.07942977  1  0.089954  0  0.113501  0.093433  0  0.999137  0
H  H133  1  0.49626698  0.10912339  0.42057120  1  0.089663  0  0.113491  0.093484  0  0.999072  0
H  H134  1  0.49627304  0.39088616  0.57943501  1  0.08975  0  0.1135  0.093489  0  0.999112  0
H  H135  1  0.00373289  0.89088433  0.92056466  1  0.089845  0  0.113483  0.093467  0  0.999059  0
H  H136  1  0.11577665  0.39016564  0.93569315  1  0.100656  0  0.114905  0.108558  0  0.980026  0
H  H137  1  0.38421836  0.89017974  0.56430595  1  0.100792  0  0.114883  0.108508  0  0.980169  0
H  H138  1  0.38422361  0.60982839  0.43569609  1  0.100865  0  0.114883  0.108508  0  0.98016  0
H  H139  1  0.11578243  0.10982278  0.06430004  1  0.10083  0  0.114869  0.10851  0  0.980139  0
H  H140  1  0.88422317  0.60982349  0.06430075  1  0.10042  0  0.114881  0.108564  0  0.980059  0
H  H141  1  0.61577735  0.10983033  0.43569937  1  0.100888  0  0.114872  0.108556  0  0.980073  0
H  H142  1  0.61578442  0.39017618  0.56430141  1  0.100753  0  0.114862  0.108538  0  0.980191  0
H  H143  1  0.88422355  0.89017462  0.93569446  1  0.100945  0  0.114897  0.108483  0  0.98015  0
H  H144  1  0.09885116  0.49814150  0.03214972  1  0.014018  0  0.095562  0.091215  0  0.990926  0
H  H145  1  0.40114250  0.99815823  0.46785274  1  0.014286  0  0.095591  0.091277  0  0.990919  0
H  H146  1  0.40115095  0.50184931  0.53215101  1  0.01394  0  0.095557  0.091167  0  0.990939  0
H  H147  1  0.09885233  0.00184861  0.96784597  1  0.014328  0  0.095612  0.091274  0  0.991021  0
H  H148  1  0.90114729  0.50184156  0.96785380  1  0.014394  0  0.095567  0.091257  0  0.990886  0
H  H149  1  0.59884842  0.00185075  0.53214717  1  0.01402  0  0.095565  0.091221  0  0.990939  0
H  H150  1  0.59885503  0.49815305  0.46784950  1  0.014331  0  0.095588  0.091287  0  0.99092  0
H  H151  1  0.90114886  0.99815099  0.03214913  1  0.014417  0  0.095553  0.091157  0  0.99092  0
H  H152  1  0.06812575  0.51770227  0.93206381  1  0.047193  0  0.095574  0.090575  0  1.032649  0
H  H153  1  0.43187503  0.01771288  0.56793803  1  0.047228  0  0.095477  0.090453  0  1.03274  0
H  H154  1  0.43187869  0.48229187  0.43206432  1  0.047173  0  0.095532  0.090511  0  1.032622  0
H  H155  1  0.06812500  0.98228623  0.06793209  1  0.047132  0  0.09551  0.090514  0  1.032668  0
H  H156  1  0.93188023  0.48228851  0.06793911  1  0.047218  0  0.095496  0.090514  0  1.032689  0
H  H157  1  0.56811795  0.98229830  0.43206188  1  0.046884  0  0.095572  0.09056  0  1.032701  0
H  H158  1  0.56812524  0.51770994  0.56793559  1  0.047122  0  0.095518  0.09053  0  1.032646  0
H  H159  1  0.93187824  0.01770952  0.93206302  1  0.047086  0  0.095516  0.090505  0  1.032626  0
H  H160  1  0.92204563  0.28186341  0.32070845  1  0.142664  0  0.118416  0.122891  0  1.018022  0
H  H161  1  0.57794112  0.78185602  0.17930131  1  0.142529  0  0.118383  0.122755  0  1.018072  0
H  H162  1  0.57796440  0.71815055  0.82070332  1  0.142847  0  0.118379  0.122841  0  1.017892  0
H  H163  1  0.92206556  0.21815340  0.67930815  1  0.14279  0  0.118398  0.122789  0  1.018  0
H  H164  1  0.07797609  0.71813620  0.67929086  1  0.142386  0  0.118415  0.122881  0  1.017839  0
H  H165  1  0.42204227  0.21814855  0.82070641  1  0.142637  0  0.118388  0.122859  0  1.017863  0
H  H166  1  0.42204431  0.28186891  0.17930140  1  0.142453  0  0.118442  0.122896  0  1.017798  0
H  H167  1  0.07795137  0.78186109  0.32069597  1  0.142559  0  0.118421  0.122845  0  1.017897  0
H  H168  1  0.86368147  0.19148086  0.44408860  1  0.137484  0  0.130586  0.134665  0  0.984791  0
H  H169  1  0.63629552  0.69146880  0.05591829  1  0.137544  0  0.13061  0.134701  0  0.984819  0
H  H170  1  0.63631516  0.80853431  0.94408723  1  0.137243  0  0.130561  0.134587  0  0.984851  0
H  H171  1  0.86370061  0.30853773  0.55592891  1  0.137659  0  0.130627  0.134663  0  0.984845  0
H  H172  1  0.13632724  0.80852866  0.55591311  1  0.137455  0  0.130539  0.134599  0  0.984884  0
H  H173  1  0.36368582  0.30853576  0.94408883  1  0.137441  0  0.130548  0.134598  0  0.984886  0
H  H174  1  0.36368261  0.19149175  0.05591628  1  0.138036  0  0.130615  0.134727  0  0.984863  0
H  H175  1  0.13631495  0.69147621  0.44407281  1  0.137631  0  0.130554  0.134601  0  0.984905  0
H  H176  1  0.15072396  0.16791862  0.41508484  1  0.158155  0  0.140157  0.116137  0  0.986259  0
H  H177  1  0.34924484  0.66794100  0.08491769  1  0.157811  0  0.140228  0.116299  0  0.986314  0
H  H178  1  0.34927191  0.83208265  0.91507432  1  0.158156  0  0.140126  0.116119  0  0.986202  0
H  H179  1  0.15074801  0.33207854  0.58491238  1  0.157834  0  0.140264  0.116328  0  0.986243  0
H  H180  1  0.84928338  0.83207106  0.58492949  1  0.158278  0  0.140172  0.116117  0  0.986464  0
H  H181  1  0.65073103  0.33208065  0.91507381  1  0.158127  0  0.140134  0.116097  0  0.986175  0
H  H182  1  0.65072106  0.16791806  0.08492379  1  0.158181  0  0.140156  0.11611  0  0.98629  0
H  H183  1  0.84926892  0.66792107  0.41507131  1  0.158136  0  0.140134  0.116114  0  0.986261  0
H  H184  1  0.95211237  0.11680593  0.55228372  1  0.066701  0  0.114343  0.094691  0  0.982938  0
H  H185  1  0.54783902  0.61681419  0.94770964  1  0.067557  0  0.114301  0.09469  0  0.98303  0
H  H186  1  0.54786740  0.88320457  0.05228373  1  0.066988  0  0.114364  0.094813  0  0.982792  0
H  H187  1  0.95214796  0.38318930  0.44771289  1  0.067233  0  0.114374  0.094764  0  0.982994  0
H  H188  1  0.04788334  0.88320249  0.44772100  1  0.066736  0  0.114357  0.094708  0  0.982825  0
H  H189  1  0.45213342  0.38320416  0.05228546  1  0.067001  0  0.11435  0.094771  0  0.982832  0
H  H190  1  0.45211941  0.11681267  0.94771798  1  0.066807  0  0.114338  0.094689  0  0.982826  0
H  H191  1  0.04787718  0.61679763  0.55226899  1  0.067021  0  0.114375  0.094833  0  0.982799  0
H  H192  1  0.07276263  0.11095839  0.54518964  1  0.091686  0  0.118033  0.109486  0  0.958073  0
H  H193  1  0.42718691  0.61096276  0.95482939  1  0.091275  0  0.118075  0.109422  0  0.958434  0
H  H194  1  0.42721663  0.88905023  0.04518084  1  0.091588  0  0.118086  0.109524  0  0.958406  0
H  H195  1  0.07279586  0.38905384  0.45482662  1  0.091566  0  0.118102  0.109509  0  0.958493  0
H  H196  1  0.92723308  0.88903791  0.45481989  1  0.091733  0  0.118052  0.10953  0  0.958165  0
H  H197  1  0.57278348  0.38905448  0.04517773  1  0.091361  0  0.118078  0.109538  0  0.958476  0
H  H198  1  0.57277018  0.11096537  0.95481546  1  0.091998  0  0.118011  0.10937  0  0.958208  0
H  H199  1  0.92722381  0.61096616  0.54517990  1  0.092055  0  0.118076  0.109522  0  0.958234  0
H  H200  1  0.05780251  0.02451680  0.42774182  1  0.032604  0  0.097583  0.093386  0  1.004931  0
H  H201  1  0.44217446  0.52451453  0.07226089  1  0.032832  0  0.097618  0.093432  0  1.004887  0
H  H202  1  0.44218422  0.97549070  0.92773664  1  0.032854  0  0.097627  0.093465  0  1.004871  0
H  H203  1  0.05780289  0.47549987  0.57225709  1  0.032861  0  0.09761  0.093433  0  1.004878  0
H  H204  1  0.94217883  0.97548280  0.57226290  1  0.032833  0  0.09767  0.093519  0  1.004892  0
H  H205  1  0.55780619  0.47549995  0.92773602  1  0.033131  0  0.097655  0.093538  0  1.004801  0
H  H206  1  0.55780328  0.02452048  0.07225726  1  0.032663  0  0.097598  0.093482  0  1.004977  0
H  H207  1  0.94216202  0.52451296  0.42774102  1  0.032854  0  0.097584  0.093288  0  1.005061  0
H  H208  1  0.93738154  0.03021938  0.43334282  1  0.04909  0  0.09911  0.098788  0  0.974909  0
H  H209  1  0.56259113  0.53023253  0.06666307  1  0.044624  0  0.099051  0.098763  0  0.974983  0
H  H210  1  0.56260367  0.96978620  0.93333203  1  0.044655  0  0.099062  0.098742  0  0.975004  0
H  H211  1  0.93738357  0.46977699  0.56666108  1  0.049086  0  0.099095  0.098747  0  0.974985  0
H  H212  1  0.06259980  0.96978629  0.56667031  1  0.044654  0  0.099074  0.098812  0  0.974931  0
H  H213  1  0.43738611  0.46978306  0.93333564  1  0.048845  0  0.099058  0.098757  0  0.975036  0
H  H214  1  0.43738314  0.03022388  0.06666127  1  0.049071  0  0.099102  0.098841  0  0.974939  0
H  H215  1  0.06258340  0.53021380  0.43331901  1  0.044669  0  0.099036  0.09874  0  0.975097  0
C  C216  1  0.26637311  0.14582851  0.23624196  1  1.525364  0  0.184338  0.616259  0  4.177063  0
C  C217  1  0.23361548  0.64582756  0.26376314  1  1.525454  0  0.184426  0.616393  0  4.177442  0
C  C218  1  0.23362837  0.85417156  0.73624270  1  1.525617  0  0.184342  0.616318  0  4.176828  0
C  C219  1  0.26637997  0.35417223  0.76376006  1  1.525704  0  0.184407  0.616276  0  4.176936  0
C  C220  1  0.73363424  0.85415952  0.76372010  1  1.525312  0  0.183882  0.615351  0  4.177034  0
C  C221  1  0.76637612  0.35417645  0.73624939  1  1.525704  0  0.184229  0.616252  0  4.176961  0
C  C222  1  0.76637145  0.14581537  0.26377704  1  1.524221  0  0.184481  0.616758  0  4.177143  0
C  C223  1  0.73362464  0.64582628  0.23625728  1  1.525272  0  0.184132  0.615944  0  4.177202  0
C  C224  1  0.33380537  0.08393508  0.22162207  1  -0.038087  0  -0.172257  -0.292158  0  3.941243  0
C  C225  1  0.16618908  0.58393110  0.27838277  1  -0.03788  0  -0.172354  -0.292523  0  3.941306  0
C  C226  1  0.16619640  0.91606323  0.72162342  1  -0.038031  0  -0.172245  -0.29227  0  3.941179  0
C  C227  1  0.33380814  0.41606770  0.77837539  1  -0.038271  0  -0.17228  -0.292253  0  3.941156  0
C  C228  1  0.66620061  0.91605019  0.77835621  1  -0.038352  0  -0.172343  -0.292291  0  3.941457  0
C  C229  1  0.83380731  0.41606851  0.72162735  1  -0.03832  0  -0.172265  -0.292275  0  3.941279  0
C  C230  1  0.83380821  0.08392590  0.27838851  1  -0.037917  0  -0.172342  -0.292587  0  3.941364  0
C  C231  1  0.66619510  0.58393301  0.22163173  1  -0.038415  0  -0.172258  -0.292224  0  3.941368  0
C  C232  1  0.37285197  0.04653998  0.29604118  1  0.022482  0  -0.171133  -0.123874  0  3.962613  0
C  C233  1  0.12714628  0.54653944  0.20396016  1  0.022124  0  -0.171115  -0.123764  0  3.962503  0
C  C234  1  0.12714832  0.95345773  0.79604263  1  0.022159  0  -0.171134  -0.123772  0  3.962449  0
C  C235  1  0.37285037  0.45346216  0.70395307  1  0.020922  0  -0.171087  -0.123659  0  3.9626  0
C  C236  1  0.62714785  0.95345356  0.70394371  1  0.021023  0  -0.171151  -0.123765  0  3.962629  0
C  C237  1  0.87285217  0.45346402  0.79604696  1  0.021006  0  -0.171104  -0.123779  0  3.962552  0
C  C238  1  0.87285355  0.04653691  0.20396509  1  0.022402  0  -0.171059  -0.12375  0  3.962401  0
C  C239  1  0.62714672  0.54653524  0.29605045  1  0.02115  0  -0.171086  -0.123601  0  3.96249  0
C  C240  1  0.45445291  0.99717425  0.27575638  1  0.001491  0  -0.172715  -0.147439  0  3.928904  0
C  C241  1  0.04554831  0.49717168  0.22424431  1  0.001637  0  -0.172691  -0.14745  0  3.928783  0
C  C242  1  0.04554984  0.00282407  0.77575767  1  0.00155  0  -0.172719  -0.14756  0  3.928919  0
C  C243  1  0.45445136  0.50282710  0.72423568  1  0.001492  0  -0.172759  -0.147771  0  3.928834  0
C  C244  1  0.54555170  0.00282260  0.72423992  1  0.001219  0  -0.172667  -0.147466  0  3.928738  0
C  C245  1  0.95445357  0.50282737  0.77575740  1  0.001492  0  -0.172729  -0.14744  0  3.928872  0
C  C246  1  0.95445340  0.99717167  0.22424705  1  0.002084  0  -0.17271  -0.147362  0  3.9288  0
C  C247  1  0.54554778  0.49717030  0.27575943  1  0.001559  0  -0.172692  -0.147714  0  3.928903  0
C  C248  1  0.53871526  0.03976398  0.24716512  1  -0.00506  0  -0.173838  -0.150558  0  3.934022  0
C  C249  1  0.96128314  0.53976116  0.25283323  1  -0.004973  0  -0.173851  -0.150646  0  3.934094  0
C  C250  1  0.96128870  0.96023511  0.74716337  1  -0.005254  0  -0.173792  -0.150521  0  3.933841  0
C  C251  1  0.53871249  0.46023501  0.75282646  1  -0.005328  0  -0.173868  -0.15068  0  3.933994  0
C  C252  1  0.46129072  0.96023453  0.75283840  1  -0.004914  0  -0.17382  -0.150572  0  3.933943  0
C  C253  1  0.03871531  0.46023459  0.74716608  1  -0.005129  0  -0.17386  -0.150544  0  3.93403  0
C  C254  1  0.03871522  0.03976504  0.25283353  1  -0.005058  0  -0.173895  -0.15069  0  3.933918  0
C  C255  1  0.46128732  0.53976295  0.24716684  1  -0.005376  0  -0.173851  -0.150583  0  3.934098  0
C  C256  1  0.61766145  0.98978253  0.22148421  1  0.027229  0  -0.170245  -0.126675  0  3.965679  0
C  C257  1  0.88233515  0.48978082  0.27851111  1  0.025994  0  -0.17021  -0.126572  0  3.96559  0
C  C258  1  0.88234440  0.01021733  0.72148347  1  0.026975  0  -0.170176  -0.12644  0  3.965484  0
C  C259  1  0.61766203  0.51021181  0.77850519  1  0.026659  0  -0.170302  -0.126782  0  3.965715  0
C  C260  1  0.38234248  0.01021321  0.77851510  1  0.026898  0  -0.170223  -0.126689  0  3.965704  0
C  C261  1  0.11766604  0.51021107  0.72149121  1  0.027741  0  -0.170245  -0.12668  0  3.965684  0
C  C262  1  0.11766500  0.98978778  0.27850923  1  0.027849  0  -0.170275  -0.126741  0  3.965805  0
C  C263  1  0.38233847  0.48978614  0.22148871  1  0.027774  0  -0.170246  -0.126619  0  3.965591  0
C  C264  1  0.65826246  0.94697761  0.29173660  1  -0.044062  0  -0.170958  -0.289714  0  3.933776  0
C  C265  1  0.84173262  0.44697482  0.20826021  1  -0.043573  0  -0.170958  -0.289648  0  3.933679  0
C  C266  1  0.84173515  0.05302178  0.79173338  1  -0.044251  0  -0.17095  -0.289785  0  3.933896  0
C  C267  1  0.65827417  0.55301442  0.70825439  1  -0.043556  0  -0.17092  -0.289493  0  3.933893  0
C  C268  1  0.34173052  0.05301096  0.70826271  1  -0.044273  0  -0.170933  -0.289585  0  3.933862  0
C  C269  1  0.15827199  0.55301266  0.79174271  1  -0.043497  0  -0.170959  -0.289715  0  3.934018  0
C  C270  1  0.15826946  0.94698444  0.20825632  1  -0.043735  0  -0.170929  -0.289673  0  3.934037  0
C  C271  1  0.34173181  0.44698077  0.29173891  1  -0.043692  0  -0.170895  -0.289727  0  3.933983  0
C  C272  1  0.72779450  0.88829063  0.27020161  1  1.522975  0  0.1846  0.620448  0  4.170339  0
C  C273  1  0.77220155  0.38828735  0.22979423  1  1.523057  0  0.184757  0.62056  0  4.170026  0
C  C274  1  0.77220558  0.11170831  0.77019732  1  1.521954  0  0.184547  0.620535  0  4.170439  0
C  C275  1  0.72780823  0.61169793  0.72979382  1  1.522577  0  0.184805  0.620824  0  4.170227  0
C  C276  1  0.27219163  0.11169078  0.72980070  1  1.522736  0  0.184757  0.620859  0  4.170053  0
C  C277  1  0.22780306  0.61169902  0.77020387  1  1.522709  0  0.184808  0.620982  0  4.170045  0
C  C278  1  0.22780245  0.88830066  0.22979418  1  1.522705  0  0.184838  0.620868  0  4.17013  0
C  C279  1  0.27219706  0.38829892  0.27019948  1  1.522509  0  0.1846  0.620505  0  4.170515  0
C  C280  1  0.97493774  0.28919463  0.12972590  1  0.420042  0  -0.000857  -0.033158  0  3.995367  0
C  C281  1  0.52505770  0.78920308  0.37028120  1  0.419961  0  -0.000942  -0.033184  0  3.995545  0
C  C282  1  0.52505761  0.71080140  0.62972551  1  0.419978  0  -0.000853  -0.033279  0  3.995428  0
C  C283  1  0.97494245  0.21079724  0.87027660  1  0.419938  0  -0.000905  -0.033418  0  3.995789  0
C  C284  1  0.02506961  0.71079395  0.87027461  1  0.419745  0  -0.00085  -0.033091  0  3.995556  0
C  C285  1  0.47493801  0.21080534  0.62972472  1  0.420026  0  -0.000885  -0.033178  0  3.995361  0
C  C286  1  0.47494221  0.28919930  0.37028101  1  0.419771  0  -0.000868  -0.033086  0  3.995634  0
C  C287  1  0.02505600  0.78919740  0.12971730  1  0.419931  0  -0.000924  -0.033213  0  3.995731  0
C  C288  1  0.95605241  0.32444401  0.05836624  1  0.237479  0  0.00493  -0.110711  0  3.942682  0
C  C289  1  0.54394408  0.82445522  0.44163723  1  0.23718  0  0.004994  -0.110604  0  3.942664  0
C  C290  1  0.54394572  0.67555198  0.55836637  1  0.237234  0  0.0049  -0.110692  0  3.942716  0
C  C291  1  0.95605602  0.17554845  0.94163336  1  0.237012  0  0.005  -0.110475  0  3.942745  0
C  C292  1  0.04395288  0.67554567  0.94163307  1  0.237671  0  0.004863  -0.110838  0  3.943027  0
C  C293  1  0.45605437  0.17555596  0.55836869  1  0.237488  0  0.004839  -0.111016  0  3.942964  0
C  C294  1  0.45605752  0.32445094  0.44163534  1  0.237083  0  0.004982  -0.110595  0  3.942808  0
C  C295  1  0.04394448  0.82444839  0.05836235  1  0.236654  0  0.004992  -0.110584  0  3.942838  0
C  C296  1  0.10131188  0.34178836  0.09017774  1  0.948736  0  0.141464  0.08629  0  3.918578  0
C  C297  1  0.39868348  0.84179693  0.40982716  1  0.948291  0  0.141468  0.086466  0  3.918547  0
C  C298  1  0.39868634  0.65820455  0.59018201  1  0.948301  0  0.141438  0.086324  0  3.918424  0
C  C299  1  0.10131593  0.15820450  0.90981974  1  0.948499  0  0.141463  0.086387  0  3.918382  0
C  C300  1  0.89869547  0.65819856  0.90981677  1  0.948137  0  0.141407  0.086098  0  3.918632  0
C  C301  1  0.60131087  0.15820764  0.59018417  1  0.948721  0  0.141415  0.086303  0  3.918453  0
C  C302  1  0.60131690  0.34179064  0.40982210  1  0.949016  0  0.141424  0.086304  0  3.918464  0
C  C303  1  0.89868389  0.84179290  0.09017476  1  0.948946  0  0.141438  0.086379  0  3.918624  0
C  C304  1  0.05016202  0.40477467  0.96392103  1  0.282113  0  -0.048761  -0.067512  0  3.859612  0
C  C305  1  0.44983325  0.90478726  0.53607997  1  0.281259  0  -0.048911  -0.067718  0  3.859721  0
C  C306  1  0.44983836  0.59522016  0.46392293  1  0.281413  0  -0.048772  -0.067562  0  3.859851  0
C  C307  1  0.05016535  0.09521667  0.03607672  1  0.281335  0  -0.048866  -0.067735  0  3.859758  0
C  C308  1  0.94983916  0.59521391  0.03607587  1  0.281584  0  -0.048867  -0.067675  0  3.859839  0
C  C309  1  0.55016177  0.09522337  0.46392475  1  0.281902  0  -0.048739  -0.067489  0  3.859731  0
C  C310  1  0.55016694  0.40478275  0.53607818  1  0.281396  0  -0.048864  -0.067755  0  3.859839  0
C  C311  1  0.94983789  0.90478184  0.96392019  1  0.281527  0  -0.04889  -0.06775  0  3.859793  0
C  C312  1  0.04693366  0.48676434  0.98568076  1  -0.011633  0  -0.163922  -0.173549  0  3.933842  0
C  C313  1  0.45306134  0.98677593  0.51431979  1  -0.038847  0  -0.163679  -0.173288  0  3.93384  0
C  C314  1  0.45306765  0.51323093  0.48568128  1  -0.011484  0  -0.163786  -0.173285  0  3.933721  0
C  C315  1  0.04693633  0.01322810  0.01431701  1  -0.038733  0  -0.163811  -0.173481  0  3.933808  0
C  C316  1  0.95306615  0.51322479  0.01432036  1  -0.039043  0  -0.163691  -0.173401  0  3.933843  0
C  C317  1  0.54692958  0.01323414  0.48568072  1  -0.011469  0  -0.163847  -0.173485  0  3.933939  0
C  C318  1  0.54693696  0.48677198  0.51431863  1  -0.038883  0  -0.163761  -0.173438  0  3.933758  0
C  C319  1  0.95306691  0.98677095  0.98567990  1  -0.012075  0  -0.163728  -0.173188  0  3.933551  0
C  C320  1  0.96190703  0.24483878  0.35827757  1  0.421919  0  -0.001512  -0.032396  0  3.986357  0
C  C321  1  0.53807324  0.74483759  0.14172506  1  0.421945  0  -0.001453  -0.03223  0  3.986325  0
C  C322  1  0.53809609  0.75517403  0.85827376  1  0.421822  0  -0.001433  -0.032319  0  3.986356  0
C  C323  1  0.96192871  0.25517296  0.64173161  1  0.422042  0  -0.001403  -0.032241  0  3.986144  0
C  C324  1  0.03810921  0.75516137  0.64172294  1  0.421857  0  -0.001511  -0.032408  0  3.986399  0
C  C325  1  0.46190673  0.25517415  0.85827605  1  0.42221  0  -0.001421  -0.032274  0  3.98618  0
C  C326  1  0.46190646  0.24484542  0.14172855  1  0.421575  0  -0.001693  -0.032654  0  3.98621  0
C  C327  1  0.03808616  0.74483822  0.35827131  1  0.421962  0  -0.001502  -0.032264  0  3.98634  0
C  C328  1  0.93168566  0.20099543  0.42027225  1  0.250815  0  0.005308  -0.107647  0  3.938778  0
C  C329  1  0.56829106  0.70099218  0.07973311  1  0.250349  0  0.005227  -0.107872  0  3.938461  0
C  C330  1  0.56831281  0.79901661  0.92026916  1  0.250256  0  0.005421  -0.107435  0  3.938629  0
C  C331  1  0.93170459  0.29901804  0.57974069  1  0.250127  0  0.005318  -0.107624  0  3.938279  0
C  C332  1  0.06832511  0.79900859  0.57973187  1  0.250564  0  0.005401  -0.107535  0  3.938726  0
C  C333  1  0.43168686  0.29902121  0.92026920  1  0.249722  0  0.005368  -0.107585  0  3.938537  0
C  C334  1  0.43168496  0.20100394  0.07973195  1  0.250527  0  0.00543  -0.107554  0  3.938578  0
C  C335  1  0.06830823  0.70099369  0.42025922  1  0.251502  0  0.005417  -0.107584  0  3.938834  0
C  C336  1  0.08131048  0.18786146  0.40651252  1  0.95596  0  0.140581  0.083066  0  3.930558  0
C  C337  1  0.41866323  0.68787238  0.09349412  1  0.955689  0  0.140535  0.08279  0  3.930371  0
C  C338  1  0.41868693  0.81214228  0.90650954  1  0.955855  0  0.140557  0.083068  0  3.929988  0
C  C339  1  0.08133356  0.31214028  0.59348867  1  0.956556  0  0.140235  0.082488  0  3.930144  0
C  C340  1  0.91869892  0.81213098  0.59349159  1  0.956438  0  0.14074  0.083305  0  3.930444  0
C  C341  1  0.58131538  0.31214100  0.90650880  1  0.95589  0  0.140512  0.083067  0  3.930031  0
C  C342  1  0.58130810  0.18786394  0.09349277  1  0.956166  0  0.140591  0.083079  0  3.93034  0
C  C343  1  0.91868269  0.68786429  0.40650463  1  0.955725  0  0.140515  0.082961  0  3.930284  0
C  C344  1  0.00890235  0.10673054  0.51043502  1  0.319147  0  -0.046621  -0.067355  0  3.877701  0
C  C345  1  0.49105826  0.60673702  0.98956793  1  0.31857  0  -0.046649  -0.067514  0  3.878146  0
C  C346  1  0.49108171  0.89327802  0.01043235  1  0.319151  0  -0.046668  -0.067553  0  3.878139  0
C  C347  1  0.00892587  0.39327412  0.48956895  1  0.31894  0  -0.046704  -0.067652  0  3.8784  0
C  C348  1  0.99109404  0.89327127  0.48957150  1  0.319074  0  -0.046694  -0.067426  0  3.877926  0
C  C349  1  0.50891761  0.39327912  0.01043078  1  0.31941  0  -0.046669  -0.067577  0  3.878165  0
C  C350  1  0.50890648  0.10673757  0.98956756  1  0.318856  0  -0.046508  -0.067056  0  3.87764  0
C  C351  1  0.99108353  0.60673044  0.51042375  1  0.318614  0  -0.046728  -0.067607  0  3.878232  0
C  C352  1  0.00034736  0.03144273  0.46978067  1  -0.054508  0  -0.160312  -0.164165  0  3.933548  0
C  C353  1  0.49962736  0.53144821  0.03022180  1  -0.011025  0  -0.160223  -0.164087  0  3.933419  0
C  C354  1  0.49963853  0.96856460  0.96977362  1  -0.050612  0  -0.160169  -0.163946  0  3.933621  0
C  C355  1  0.00034878  0.46856195  0.53022035  1  -0.054929  0  -0.160263  -0.164007  0  3.933617  0
C  C356  1  0.99963740  0.96855963  0.53022766  1  -0.011194  0  -0.160198  -0.164162  0  3.93363  0
C  C357  1  0.50035124  0.46856628  0.96977390  1  -0.055103  0  -0.16026  -0.164139  0  3.933519  0
C  C358  1  0.50034897  0.03144768  0.03022088  1  -0.015222  0  -0.160351  -0.164486  0  3.933821  0
C  C359  1  0.99962435  0.53144151  0.46976875  1  -0.011272  0  -0.160066  -0.163835  0  3.933936  0
N  N360  1  0.06580140  0.30082559  0.14878906  1  -1.199798  0  -0.358911  -0.287608  0  3.542356  0
N  N361  1  0.43419375  0.80083089  0.35121846  1  -1.199658  0  -0.358968  -0.287853  0  3.542711  0
N  N362  1  0.43419429  0.69916886  0.64879173  1  -1.199843  0  -0.358969  -0.287557  0  3.542247  0
N  N363  1  0.06580545  0.19916791  0.85120981  1  -1.199779  0  -0.358991  -0.287632  0  3.542419  0
N  N364  1  0.93420663  0.69916354  0.85120784  1  -1.199698  0  -0.358963  -0.287598  0  3.542365  0
N  N365  1  0.56579991  0.19917368  0.64879226  1  -1.199955  0  -0.358907  -0.287586  0  3.54217  0
N  N366  1  0.56580622  0.30082413  0.35121479  1  -1.199985  0  -0.358963  -0.287642  0  3.542247  0
N  N367  1  0.93419232  0.80082673  0.14878349  1  -1.199781  0  -0.358958  -0.28769  0  3.542535  0
N  N368  1  0.03681298  0.35719749  0.03396867  1  -1.236744  0  -0.243392  0.040727  0  3.780282  0
N  N369  1  0.46318399  0.85720971  0.46603329  1  -1.235891  0  -0.243326  0.040954  0  3.780138  0
N  N370  1  0.46318567  0.64279602  0.53397194  1  -1.236521  0  -0.243354  0.040837  0  3.780122  0
N  N371  1  0.03681635  0.14279332  0.96602915  1  -1.236178  0  -0.243343  0.040893  0  3.779935  0
N  N372  1  0.96319300  0.64278833  0.96602704  1  -1.236394  0  -0.243283  0.041136  0  3.779962  0
N  N373  1  0.53681309  0.14279981  0.53397323  1  -1.236711  0  -0.243341  0.040849  0  3.780061  0
N  N374  1  0.53681757  0.35720523  0.46603097  1  -1.236006  0  -0.243328  0.040847  0  3.780044  0
N  N375  1  0.96318484  0.85720408  0.03396655  1  -1.236415  0  -0.243238  0.040939  0  3.780247  0
N  N376  1  0.05545140  0.23582794  0.35033163  1  -1.198798  0  -0.359926  -0.294108  0  3.53673  0
N  N377  1  0.44452985  0.73583655  0.14967515  1  -1.19823  0  -0.360082  -0.294301  0  3.536507  0
N  N378  1  0.44455192  0.76417640  0.85032898  1  -1.198659  0  -0.359922  -0.294164  0  3.536656  0
N  N379  1  0.05547335  0.26417441  0.64967090  1  -1.199707  0  -0.359937  -0.294121  0  3.536286  0
N  N380  1  0.94456485  0.76416285  0.64966949  1  -1.198306  0  -0.360037  -0.294175  0  3.536791  0
N  N381  1  0.55545080  0.26417463  0.85033077  1  -1.198738  0  -0.359917  -0.294185  0  3.536601  0
N  N382  1  0.55544995  0.23583038  0.14967514  1  -1.198389  0  -0.35987  -0.293985  0  3.536377  0
N  N383  1  0.94454358  0.73583346  0.35032540  1  -1.198397  0  -0.359993  -0.2942  0  3.536588  0
N  N384  1  0.00811436  0.16566235  0.45056232  1  -1.2502  0  -0.244978  0.032389  0  3.798995  0
N  N385  1  0.49185587  0.66566617  0.04944449  1  -1.249387  0  -0.24478  0.032997  0  3.798123  0
N  N386  1  0.49187944  0.83434557  0.95055878  1  -1.248921  0  -0.245121  0.032194  0  3.798908  0
N  N387  1  0.00813631  0.33434563  0.54944466  1  -1.248611  0  -0.244914  0.032801  0  3.798347  0
N  N388  1  0.99189230  0.83433836  0.54944360  1  -1.250606  0  -0.245119  0.032182  0  3.799058  0
N  N389  1  0.50812273  0.33434722  0.95055842  1  -1.248628  0  -0.245027  0.032382  0  3.798674  0
N  N390  1  0.50811490  0.16566892  0.04944113  1  -1.250753  0  -0.245071  0.032326  0  3.798724  0
N  N391  1  0.99187788  0.66566170  0.45055104  1  -1.250505  0  -0.244966  0.032503  0  3.798767  0
O  O392  1  0.21263033  0.16383095  0.17885517  1  -1.18416  0  -0.355658  -0.594291  0  2.1421  0
O  O393  1  0.28737144  0.66382317  0.32114629  1  -1.184135  0  -0.355691  -0.594268  0  2.142073  0
O  O394  1  0.28738734  0.83617748  0.67886166  1  -1.184415  0  -0.355705  -0.59435  0  2.141717  0
O  O395  1  0.21262220  0.33617929  0.82114112  1  -1.184221  0  -0.355619  -0.59421  0  2.14198  0
O  O396  1  0.78739276  0.83615984  0.82109607  1  -1.184125  0  -0.355413  -0.593808  0  2.142157  0
O  O397  1  0.71262085  0.33618029  0.67886563  1  -1.184102  0  -0.355634  -0.594278  0  2.141933  0
O  O398  1  0.71262206  0.16381000  0.32115868  1  -1.183511  0  -0.355663  -0.594302  0  2.142462  0
O  O399  1  0.78737557  0.66382858  0.17886720  1  -1.183977  0  -0.355579  -0.594175  0  2.141917  0
O  O400  1  0.26818358  0.18042194  0.30322154  1  -1.179141  0  -0.352039  -0.58427  0  2.124967  0
O  O401  1  0.23178555  0.68043184  0.19679377  1  -1.179195  0  -0.352057  -0.584356  0  2.125503  0
O  O402  1  0.23180357  0.81957059  0.80321689  1  -1.179194  0  -0.35198  -0.584237  0  2.125161  0
O  O403  1  0.26821329  0.31956446  0.69679068  1  -1.179313  0  -0.352097  -0.584309  0  2.125107  0
O  O404  1  0.73180666  0.81956609  0.69674172  1  -1.179141  0  -0.351874  -0.583879  0  2.124539  0
O  O405  1  0.76819921  0.31957603  0.80322056  1  -1.17951  0  -0.351926  -0.584239  0  2.125055  0
O  O406  1  0.76819762  0.18042240  0.19680285  1  -1.178617  0  -0.352123  -0.584613  0  2.125202  0
O  O407  1  0.73180706  0.68041860  0.30323146  1  -1.179303  0  -0.351902  -0.584049  0  2.125007  0
O  O408  1  0.78916844  0.87266711  0.32252628  1  -1.169508  0  -0.362454  -0.594251  0  2.143278  0
O  O409  1  0.71082121  0.37266721  0.17747792  1  -1.169543  0  -0.36249  -0.594281  0  2.143152  0
O  O410  1  0.71082992  0.12733466  0.82251936  1  -1.169328  0  -0.362494  -0.594309  0  2.143276  0
O  O411  1  0.78919371  0.62731359  0.67747784  1  -1.169754  0  -0.362515  -0.594433  0  2.143352  0
O  O412  1  0.21080401  0.12730438  0.67749046  1  -1.169537  0  -0.362637  -0.594527  0  2.143166  0
O  O413  1  0.28917929  0.62732192  0.82252680  1  -1.16951  0  -0.362457  -0.594452  0  2.143182  0
O  O414  1  0.28918221  0.87267817  0.17747394  1  -1.169536  0  -0.362501  -0.594394  0  2.143101  0
O  O415  1  0.21082801  0.37266837  0.32252808  1  -1.169608  0  -0.362436  -0.594298  0  2.14322  0
O  O416  1  0.72040063  0.85398994  0.20358494  1  -1.188517  0  -0.349779  -0.589073  0  2.115501  0
O  O417  1  0.77960598  0.35397912  0.29640849  1  -1.188898  0  -0.349898  -0.58916  0  2.115509  0
O  O418  1  0.77960420  0.14600881  0.70357881  1  -1.187692  0  -0.34974  -0.589117  0  2.115587  0
O  O419  1  0.72040180  0.64600691  0.79640572  1  -1.188218  0  -0.349882  -0.589292  0  2.115407  0
O  O420  1  0.27960261  0.14600084  0.79641377  1  -1.188518  0  -0.349712  -0.589153  0  2.115392  0
O  O421  1  0.22040411  0.64600230  0.70359022  1  -1.188536  0  -0.349904  -0.589338  0  2.115425  0
O  O422  1  0.22040041  0.85399576  0.29640848  1  -1.18854  0  -0.349956  -0.589306  0  2.115521  0
O  O423  1  0.27958776  0.35400593  0.20357797  1  -1.188295  0  -0.349796  -0.589111  0  2.115706  0
