# generated using pymatgen
data_Dy3H31C45O23
_symmetry_space_group_name_H-M   'P 1'
_cell_length_a   14.29261459
_cell_length_b   14.29252278
_cell_length_c   33.06518870
_cell_angle_alpha   102.51751327
_cell_angle_beta   102.51773755
_cell_angle_gamma   90.01007402
_symmetry_Int_Tables_number   1
_chemical_formula_structural   Dy3H31C45O23
_chemical_formula_sum   'Dy12 H124 C180 O92'
_cell_volume   6429.29158612
_cell_formula_units_Z   4
loop_
 _symmetry_equiv_pos_site_id
 _symmetry_equiv_pos_as_xyz
  1  'x, y, z'
loop_
 _atom_site_type_symbol
 _atom_site_label
 _atom_site_symmetry_multiplicity
 _atom_site_fract_x
 _atom_site_fract_y
 _atom_site_fract_z
 _atom_site_occupancy
 _atom_site_pbe_bader_charge
 _atom_site_pbe_bader_spin_density
 _atom_site_pbe_cm5_charge
 _atom_site_pbe_ddec_charge
 _atom_site_pbe_ddec_spin_density
 _atom_site_pbe_ddec_sum_bond_order
 _atom_site_pbe_magmom
Dy  Dy0  1  0.03988119  0.53800044  0.08207588  1  2.183686  0  1.522663  2.090741  0  2.19243  0
Dy  Dy1  1  0.46166504  0.95788205  0.91790406  1  2.182253  0  1.522869  2.090574  0  2.194429  0
Dy  Dy2  1  0.20788616  0.21165886  0.41790676  1  2.182341  0  1.522838  2.090611  0  2.194426  0
Dy  Dy3  1  0.78799560  0.78987822  0.58207620  1  2.183736  0  1.522723  2.090833  0  2.192299  0
Dy  Dy4  1  0.07524284  0.83477355  0.12380057  1  2.170212  0  1.512741  2.067579  0  2.174272  0
Dy  Dy5  1  0.04731734  0.28917434  0.12335356  1  2.169039  0  1.508822  2.063556  0  2.16839  0
Dy  Dy6  1  0.16492843  0.95117771  0.87626525  1  2.173369  0  1.511025  2.067156  0  2.170337  0
Dy  Dy7  1  0.71054311  0.92402716  0.87659270  1  2.167281  0  1.510128  2.062416  0  2.173005  0
Dy  Dy8  1  0.20118253  0.91492747  0.37626448  1  2.173307  0  1.510935  2.067039  0  2.170604  0
Dy  Dy9  1  0.17401675  0.46054131  0.37658935  1  2.166833  0  1.510281  2.062368  0  2.17308  0
Dy  Dy10  1  0.53917054  0.79731356  0.62335468  1  2.168985  0  1.508937  2.063545  0  2.168369  0
Dy  Dy11  1  0.08476461  0.82522833  0.62379767  1  2.170222  0  1.5127  2.067494  0  2.174514  0
H  H12  1  0.23976698  0.97835851  0.12777490  1  0.609601  0  0.33993  0.425076  0  0.854136  0
H  H13  1  0.88542942  0.15028552  0.12705519  1  0.630935  0  0.340899  0.426837  0  0.851065  0
H  H14  1  0.02329457  0.11448302  0.87303318  1  0.617277  0  0.341674  0.428217  0  0.849979  0
H  H15  1  0.85044861  0.76013235  0.87252260  1  0.633126  0  0.33883  0.424143  0  0.854662  0
H  H16  1  0.36449297  0.77329523  0.37303874  1  0.617104  0  0.341577  0.42809  0  0.85015  0
H  H17  1  0.01013600  0.60044500  0.37252351  1  0.633151  0  0.338831  0.424195  0  0.854586  0
H  H18  1  0.40027750  0.63542572  0.62706253  1  0.630886  0  0.340881  0.42685  0  0.850973  0
H  H19  1  0.22834439  0.98976387  0.62776837  1  0.609533  0  0.339924  0.425085  0  0.854152  0
H  H20  1  0.22348304  0.98573340  0.17362202  1  0.628034  0  0.328481  0.41589  0  0.877347  0
H  H21  1  0.94921851  0.18560005  0.17295088  1  0.627383  0  0.328291  0.415293  0  0.87823  0
H  H22  1  0.01308101  0.05165729  0.82705507  1  0.642548  0  0.3292  0.41559  0  0.877127  0
H  H23  1  0.81354073  0.77730091  0.82664927  1  0.637247  0  0.328193  0.418013  0  0.874674  0
H  H24  1  0.30167524  0.76307186  0.32705896  1  0.642795  0  0.329149  0.415454  0  0.877302  0
H  H25  1  0.02730217  0.56353718  0.32664957  1  0.637265  0  0.328191  0.416257  0  0.877383  0
H  H26  1  0.43561644  0.69922615  0.67295516  1  0.627305  0  0.328361  0.415343  0  0.878138  0
H  H27  1  0.23573397  0.97349116  0.67361837  1  0.628243  0  0.328517  0.415926  0  0.877301  0
H  H28  1  0.27250489  0.79274820  0.15781660  1  0.635437  0  0.326208  0.417096  0  0.873235  0
H  H29  1  0.88515040  0.36419972  0.15868272  1  0.636231  0  0.326144  0.416886  0  0.873486  0
H  H30  1  0.20710689  0.11442565  0.84240492  1  0.644262  0  0.325934  0.417185  0  0.873215  0
H  H31  1  0.63554953  0.72639785  0.84126748  1  0.627815  0  0.326216  0.416698  0  0.873471  0
H  H32  1  0.36443844  0.95712312  0.34240826  1  0.643902  0  0.325945  0.417164  0  0.873219  0
H  H33  1  0.97639170  0.38553882  0.34127049  1  0.627782  0  0.32625  0.416656  0  0.87358  0
H  H34  1  0.61419263  0.63515171  0.65868511  1  0.636102  0  0.326139  0.416838  0  0.873547  0
H  H35  1  0.04275671  0.02248601  0.65781627  1  0.635259  0  0.326196  0.417068  0  0.873277  0
H  H36  1  0.21420529  0.69444697  0.15536755  1  0.63672  0  0.30417  0.412924  0  0.916717  0
H  H37  1  0.93941665  0.46019148  0.15550602  1  0.661436  0  0.304644  0.412317  0  0.916742  0
H  H38  1  0.30545443  0.05869972  0.84484730  1  0.680064  0  0.304208  0.412953  0  0.916602  0
H  H39  1  0.53968522  0.78402253  0.84438122  1  0.662384  0  0.304741  0.412638  0  0.91632  0
H  H40  1  0.30870153  0.05546619  0.34485011  1  0.680025  0  0.304346  0.4133  0  0.916187  0
H  H41  1  0.03402141  0.28967920  0.34438110  1  0.66257  0  0.304738  0.412554  0  0.916419  0
H  H42  1  0.71018731  0.68941295  0.65550880  1  0.661677  0  0.304624  0.412239  0  0.916811  0
H  H43  1  0.94444634  0.96419241  0.65536617  1  0.636726  0  0.304109  0.41292  0  0.916705  0
H  H44  1  0.95319580  0.53938162  0.99398388  1  0.61206  0  0.332575  0.415403  0  0.870591  0
H  H45  1  0.05675087  0.50533633  0.99274697  1  0.616332  0  0.331151  0.412647  0  0.879324  0
H  H46  1  0.46327702  0.96069000  0.00705428  1  0.612701  0  0.333826  0.416715  0  0.868416  0
H  H47  1  0.50008513  0.06430407  0.00763099  1  0.604843  0  0.331604  0.4132  0  0.878051  0
H  H48  1  0.21070615  0.21331137  0.50707018  1  0.612094  0  0.333936  0.416882  0  0.868277  0
H  H49  1  0.31430876  0.25014883  0.50764129  1  0.603676  0  0.331639  0.413163  0  0.878099  0
H  H50  1  0.75536985  0.80676303  0.49275686  1  0.617245  0  0.331252  0.412679  0  0.879291  0
H  H51  1  0.78939361  0.70320224  0.49398949  1  0.611956  0  0.332573  0.415382  0  0.870518  0
H  H52  1  0.83241362  0.79848984  0.99566198  1  0.129931  0  0.118166  0.132454  0  0.977307  0
H  H53  1  0.16498555  0.19678622  0.99592578  1  0.147347  0  0.120401  0.135807  0  0.971253  0
H  H54  1  0.20109856  0.83472797  0.00438392  1  0.119789  0  0.11873  0.133746  0  0.973399  0
H  H55  1  0.80192101  0.16725880  0.00413543  1  0.128527  0  0.120078  0.134842  0  0.974454  0
H  H56  1  0.08473336  0.95109282  0.50438023  1  0.119741  0  0.118718  0.133808  0  0.973316  0
H  H57  1  0.41725803  0.55191903  0.50413714  1  0.128493  0  0.120071  0.134861  0  0.974384  0
H  H58  1  0.44680206  0.91497504  0.49592184  1  0.146781  0  0.120449  0.135804  0  0.971193  0
H  H59  1  0.04847828  0.58240835  0.49566008  1  0.129841  0  0.118136  0.132428  0  0.977359  0
H  H60  1  0.52595925  0.76712982  0.97672852  1  0.107895  0  0.106872  0.113377  0  1.028424  0
H  H61  1  0.45371300  0.21082155  0.97822852  1  0.135775  0  0.10628  0.113014  0  1.032833  0
H  H62  1  0.23351347  0.54612814  0.02201523  1  0.099036  0  0.106793  0.113513  0  1.033127  0
H  H63  1  0.79040337  0.47388671  0.02316520  1  0.114709  0  0.107174  0.114116  0  1.027555  0
H  H64  1  0.79612252  0.98349010  0.52200324  1  0.098748  0  0.106784  0.113396  0  1.033092  0
H  H65  1  0.72388836  0.54040748  0.52316205  1  0.114643  0  0.107197  0.114131  0  1.027679  0
H  H66  1  0.46082185  0.20370885  0.47822587  1  0.135791  0  0.106289  0.113029  0  1.032772  0
H  H67  1  0.01713334  0.27595424  0.47673076  1  0.107834  0  0.106812  0.113185  0  1.028161  0
H  H68  1  0.54687080  0.68010607  0.03559833  1  0.068944  0  0.097823  0.09903  0  1.01438  0
H  H69  1  0.49012621  0.35715211  0.03705951  1  0.061997  0  0.098869  0.101564  0  1.012945  0
H  H70  1  0.32101180  0.51008854  0.96320200  1  0.062713  0  0.099694  0.10221  0  1.01081  0
H  H71  1  0.64469338  0.45334974  0.96419494  1  0.070226  0  0.098075  0.099248  0  1.014512  0
H  H72  1  0.76007036  0.07098405  0.46318627  1  0.062139  0  0.099724  0.102299  0  1.010685  0
H  H73  1  0.70334252  0.39469637  0.46419134  1  0.070075  0  0.098142  0.099281  0  1.014517  0
H  H74  1  0.60715350  0.24012275  0.53705960  1  0.062067  0  0.098841  0.101547  0  1.013024  0
H  H75  1  0.93011416  0.29686665  0.53560020  1  0.068843  0  0.097859  0.099055  0  1.014371  0
H  H76  1  0.61378836  0.51826190  0.04948376  1  0.080831  0  0.095808  0.087931  0  1.033172  0
H  H77  1  0.43697610  0.53135745  0.05044811  1  0.057102  0  0.095489  0.087994  0  1.031266  0
H  H78  1  0.48195070  0.56386405  0.94990633  1  0.059235  0  0.096159  0.088537  0  1.032613  0
H  H79  1  0.46906333  0.38656710  0.94998033  1  0.077791  0  0.095322  0.088152  0  1.031399  0
H  H80  1  0.81386974  0.23193030  0.44990158  1  0.059168  0  0.095984  0.088306  0  1.032654  0
H  H81  1  0.63656683  0.21906328  0.44998047  1  0.07777  0  0.095327  0.088119  0  1.031481  0
H  H82  1  0.78135276  0.18697169  0.55044661  1  0.056591  0  0.095518  0.087998  0  1.031351  0
H  H83  1  0.76825175  0.36377884  0.54947926  1  0.080712  0  0.095886  0.088035  0  1.033042  0
H  H84  1  0.62234608  0.44419128  0.11125629  1  0.065215  0  0.100975  0.09725  0  0.994512  0
H  H85  1  0.48998162  0.66754466  0.11223212  1  0.066168  0  0.101218  0.098488  0  0.993938  0
H  H86  1  0.55565729  0.51035014  0.88803418  1  0.089969  0  0.102075  0.099629  0  0.993387  0
H  H87  1  0.33277967  0.37738941  0.88820750  1  0.061555  0  0.100329  0.097586  0  0.995173  0
H  H88  1  0.76036321  0.30566783  0.38803703  1  0.050749  0  0.102048  0.099631  0  0.993345  0
H  H89  1  0.62739642  0.08278748  0.38820490  1  0.061547  0  0.100284  0.097501  0  0.995298  0
H  H90  1  0.91754500  0.23998374  0.61223084  1  0.066078  0  0.101213  0.098419  0  0.993964  0
H  H91  1  0.69417700  0.37233100  0.61125224  1  0.064725  0  0.100927  0.097252  0  0.994451  0
H  H92  1  0.72694308  0.51983733  0.18146074  1  0.076752  0  0.099721  0.098861  0  1.001784  0
H  H93  1  0.45428191  0.66266952  0.18225955  1  0.063999  0  0.09927  0.098299  0  1.001898  0
H  H94  1  0.47991355  0.54512440  0.81791634  1  0.064284  0  0.100468  0.099711  0  1.000899  0
H  H95  1  0.33778303  0.27193797  0.81815232  1  0.056459  0  0.098983  0.098308  0  1.001972  0
H  H96  1  0.79513492  0.22993206  0.31791750  1  0.064297  0  0.100381  0.099658  0  1.001064  0
H  H97  1  0.52194513  0.08779806  0.31815196  1  0.056799  0  0.099019  0.098379  0  1.001976  0
H  H98  1  0.91266750  0.20428150  0.68225770  1  0.063908  0  0.099282  0.098287  0  1.001866  0
H  H99  1  0.76982704  0.47692970  0.68145736  1  0.077141  0  0.099669  0.098772  0  1.001896  0
H  H100  1  0.81011568  0.74810423  0.12830295  1  0.109654  0  0.10918  0.122795  0  1.008935  0
H  H101  1  0.31750254  0.38137245  0.12888390  1  0.093115  0  0.109184  0.122013  0  1.010631  0
H  H102  1  0.25254710  0.68242946  0.87142810  1  0.107355  0  0.109752  0.122971  0  1.009725  0
H  H103  1  0.61961553  0.18956805  0.87138588  1  0.120686  0  0.109477  0.123116  0  1.00937  0
H  H104  1  0.93243190  0.00254089  0.37141814  1  0.107284  0  0.109792  0.123053  0  1.009727  0
H  H105  1  0.43956126  0.36961743  0.37138689  1  0.120351  0  0.109464  0.12312  0  1.009263  0
H  H106  1  0.63136658  0.06751041  0.62888637  1  0.093039  0  0.109169  0.121997  0  1.010683  0
H  H107  1  0.99809507  0.56010545  0.62830194  1  0.109928  0  0.109243  0.122847  0  1.008995  0
H  H108  1  0.74519625  0.70757690  0.23929684  1  0.070216  0  0.102298  0.10407  0  0.995304  0
H  H109  1  0.49328027  0.53201598  0.23977512  1  0.046132  0  0.102184  0.104128  0  0.995837  0
H  H110  1  0.29254485  0.50609171  0.76032410  1  0.040095  0  0.102274  0.104507  0  0.995451  0
H  H111  1  0.46863243  0.25380674  0.76046426  1  0.078051  0  0.101985  0.104235  0  0.996188  0
H  H112  1  0.75610077  0.04255624  0.26031981  1  0.039517  0  0.102407  0.104629  0  0.995354  0
H  H113  1  0.50381636  0.21863669  0.26046607  1  0.07788  0  0.10195  0.104208  0  0.996108  0
H  H114  1  0.78202234  0.24328878  0.73977550  1  0.045949  0  0.102167  0.104141  0  0.99588  0
H  H115  1  0.95756901  0.49518443  0.73929502  1  0.070223  0  0.102332  0.104136  0  0.995301  0
H  H116  1  0.86897371  0.78479547  0.30434534  1  0.113191  0  0.107612  0.114326  0  0.988858  0
H  H117  1  0.43471683  0.51890658  0.30468759  1  0.115118  0  0.107721  0.114277  0  0.987827  0
H  H118  1  0.21504361  0.56475798  0.69532089  1  0.110349  0  0.108293  0.114939  0  0.986732  0
H  H119  1  0.48145187  0.13013510  0.69552827  1  0.083896  0  0.10724  0.113355  0  0.990442  0
H  H120  1  0.81476129  0.96504502  0.19531556  1  0.110456  0  0.108352  0.114982  0  0.986539  0
H  H121  1  0.38014998  0.23147524  0.19553100  1  0.084039  0  0.107271  0.113307  0  0.990472  0
H  H122  1  0.76890715  0.18472502  0.80468724  1  0.115484  0  0.107737  0.114351  0  0.987795  0
H  H123  1  0.03478974  0.61896116  0.80434294  1  0.113164  0  0.107562  0.114339  0  0.988866  0
H  H124  1  0.08706486  0.74392815  0.23199775  1  0.132896  0  0.117632  0.131505  0  0.982016  0
H  H125  1  0.14410988  0.48836242  0.23235583  1  0.131729  0  0.11673  0.130711  0  0.982656  0
H  H126  1  0.25584376  0.85530777  0.76784126  1  0.139447  0  0.11775  0.131991  0  0.98195  0
H  H127  1  0.51120528  0.91181386  0.76770983  1  0.120953  0  0.117477  0.131727  0  0.981714  0
H  H128  1  0.10531743  0.00585360  0.26783688  1  0.139066  0  0.117698  0.131835  0  0.982013  0
H  H129  1  0.16181738  0.26123402  0.26770831  1  0.120717  0  0.117414  0.131685  0  0.981577  0
H  H130  1  0.73833919  0.89411598  0.73235401  1  0.131838  0  0.116713  0.130731  0  0.982677  0
H  H131  1  0.99393331  0.83706369  0.73199875  1  0.133103  0  0.117641  0.131566  0  0.981942  0
H  H132  1  0.07344618  0.07648586  0.15287026  1  0.051993  0  0.105179  -0.018663  0  1.046394  0
H  H133  1  0.92349633  0.92472294  0.84719064  1  0.054233  0  0.105302  -0.018873  0  1.046282  0
H  H134  1  0.17473881  0.67348924  0.34719043  1  0.054176  0  0.10528  -0.018871  0  1.046245  0
H  H135  1  0.32648488  0.82348091  0.65286596  1  0.052197  0  0.105196  -0.018657  0  1.046364  0
C  C136  1  0.88453573  0.70339762  0.05632487  1  1.601118  0  0.236329  0.654876  0  4.164694  0
C  C137  1  0.17288190  0.35294380  0.05696788  1  1.609529  0  0.238871  0.660282  0  4.157215  0
C  C138  1  0.29674163  0.82788584  0.94373665  1  1.597759  0  0.23515  0.649605  0  4.16927  0
C  C139  1  0.64657377  0.11582376  0.94294614  1  1.593891  0  0.238375  0.659671  0  4.154498  0
C  C140  1  0.07788427  0.04674588  0.44373425  1  1.597579  0  0.235168  0.649584  0  4.168888  0
C  C141  1  0.36582004  0.39657775  0.44294588  1  1.594296  0  0.238521  0.660006  0  4.154337  0
C  C142  1  0.60294613  0.92287438  0.55696755  1  1.610023  0  0.238846  0.660177  0  4.157356  0
C  C143  1  0.95337523  0.63452845  0.55632106  1  1.600949  0  0.236255  0.654637  0  4.164865  0
C  C144  1  0.78261756  0.72164554  0.03693907  1  -0.062878  0  -0.007629  -0.069291  0  3.905267  0
C  C145  1  0.25532521  0.31524098  0.03751147  1  -0.043827  0  -0.004885  -0.065463  0  3.899664  0
C  C146  1  0.27864415  0.74489890  0.96292417  1  -0.007929  0  -0.005458  -0.061472  0  3.899981  0
C  C147  1  0.68454688  0.21745683  0.96265259  1  -0.011942  0  -0.007135  -0.069497  0  3.908078  0
C  C148  1  0.99489649  0.02863724  0.46292174  1  -0.00781  0  -0.005428  -0.06131  0  3.899892  0
C  C149  1  0.46745594  0.43455345  0.46264956  1  -0.012371  0  -0.007115  -0.069575  0  3.908367  0
C  C150  1  0.56524817  0.00532162  0.53751032  1  -0.043994  0  -0.004871  -0.065232  0  3.89933  0
C  C151  1  0.97163421  0.53261977  0.53693628  1  -0.065672  0  -0.007618  -0.069333  0  3.904979  0
C  C152  1  0.77006038  0.77139775  0.00438090  1  -0.010146  0  -0.071421  -0.098544  0  3.920424  0
C  C153  1  0.23611196  0.23264779  0.00498561  1  0.001275  0  -0.069374  -0.092679  0  3.912916  0
C  C154  1  0.22836202  0.76382357  0.99533845  1  -0.043055  0  -0.072419  -0.100938  0  3.921332  0
C  C155  1  0.76656195  0.22977603  0.99538984  1  -0.026039  0  -0.068657  -0.093054  0  3.914942  0
C  C156  1  0.01382333  0.97834764  0.49533344  1  -0.04229  0  -0.072471  -0.101212  0  3.921259  0
C  C157  1  0.47977577  0.51656185  0.49538917  1  -0.026011  0  -0.068697  -0.093237  0  3.915267  0
C  C158  1  0.48265724  0.98610377  0.50498245  1  0.001435  0  -0.069473  -0.092812  0  3.912689  0
C  C159  1  0.02140183  0.52005764  0.50438192  1  -0.009545  0  -0.07136  -0.098314  0  3.919935  0
C  C160  1  0.67837490  0.78668762  0.98223222  1  -0.026521  0  -0.014997  -0.034046  0  3.969371  0
C  C161  1  0.30672014  0.19519844  0.98350254  1  -0.010307  0  -0.019349  -0.043663  0  3.987024  0
C  C162  1  0.21243299  0.69310728  0.01675873  1  -0.011499  0  -0.019509  -0.040629  0  3.98594  0
C  C163  1  0.80417047  0.32141196  0.01759611  1  -0.084229  0  -0.014551  -0.035515  0  3.967851  0
C  C164  1  0.94310218  0.96241491  0.51675093  1  -0.012236  0  -0.0194  -0.040365  0  3.985486  0
C  C165  1  0.57141246  0.55416455  0.51759678  1  -0.084345  0  -0.014605  -0.035434  0  3.967964  0
C  C166  1  0.44520574  0.05671446  0.48350412  1  -0.010113  0  -0.019351  -0.04378  0  3.987405  0
C  C167  1  0.03669728  0.42836628  0.48223462  1  -0.026088  0  -0.015102  -0.034398  0  3.969375  0
C  C168  1  0.59749033  0.75387275  0.99358281  1  -0.028822  0  -0.079632  -0.081498  0  3.965235  0
C  C169  1  0.39877035  0.24012914  0.99513316  1  -0.141188  0  -0.087806  -0.104725  0  3.99502  0
C  C170  1  0.24590303  0.60116117  0.00514717  1  -0.063408  0  -0.08738  -0.105086  0  3.991742  0
C  C171  1  0.76021231  0.40240226  0.00623569  1  0.03755  0  -0.080017  -0.082428  0  3.964154  0
C  C172  1  0.85115204  0.99588272  0.50513424  1  -0.059674  0  -0.087395  -0.104911  0  3.991908  0
C  C173  1  0.65240519  0.51021884  0.50623754  1  0.03755  0  -0.079961  -0.082312  0  3.964246  0
C  C174  1  0.49013041  0.14876951  0.49513325  1  -0.141118  0  -0.08777  -0.104634  0  3.994896  0
C  C175  1  0.00387737  0.34749166  0.49358861  1  -0.028924  0  -0.079427  -0.080991  0  3.965  0
C  C176  1  0.60980004  0.70438528  0.02620809  1  -0.05417  0  -0.094401  -0.147229  0  3.99751  0
C  C177  1  0.41810903  0.32274403  0.02754758  1  -0.07423  0  -0.095366  -0.144813  0  4.000101  0
C  C178  1  0.29604089  0.58203391  0.97275341  1  0.004952  0  -0.093569  -0.14074  0  3.993415  0
C  C179  1  0.67819808  0.39031587  0.97352569  1  -0.067572  0  -0.095344  -0.148371  0  3.998057  0
C  C180  1  0.83202694  0.04602076  0.47274241  1  0.002953  0  -0.093617  -0.140944  0  3.994082  0
C  C181  1  0.64030443  0.42820348  0.47352421  1  -0.067068  0  -0.095525  -0.148563  0  3.998421  0
C  C182  1  0.57274371  0.16810389  0.52754588  1  -0.074354  0  -0.095371  -0.144786  0  4.000193  0
C  C183  1  0.95438885  0.35979257  0.52621080  1  -0.054561  0  -0.09442  -0.147344  0  3.997643  0
C  C184  1  0.70156875  0.68704799  0.04843078  1  -0.009249  0  0.004685  0.061448  0  3.945912  0
C  C185  1  0.34774333  0.36185931  0.04932284  1  0.020822  0  0.004779  0.059769  0  3.947012  0
C  C186  1  0.31337803  0.65254363  0.95105088  1  -0.073202  0  0.003502  0.05717  0  3.948179  0
C  C187  1  0.63864373  0.29859564  0.95117166  1  -0.036409  0  0.003759  0.059213  0  3.950759  0
C  C188  1  0.90254012  0.06336851  0.45104333  1  -0.07436  0  0.003451  0.057009  0  3.948384  0
C  C189  1  0.54859172  0.38864672  0.45117118  1  -0.036082  0  0.003869  0.059288  0  3.95121  0
C  C190  1  0.61186303  0.09774012  0.54932163  1  0.021114  0  0.004795  0.059578  0  3.947128  0
C  C191  1  0.93703825  0.45156346  0.54843012  1  -0.024181  0  0.004624  0.061418  0  3.945569  0
C  C192  1  0.67066933  0.83567441  0.94632448  1  1.557114  0  0.229956  0.64583  0  4.161263  0
C  C193  1  0.28137252  0.10896924  0.94794871  1  1.561876  0  0.228897  0.646803  0  4.175418  0
C  C194  1  0.16163218  0.71827657  0.05223844  1  1.577835  0  0.229064  0.647748  0  4.172638  0
C  C195  1  0.88925276  0.32898093  0.05344044  1  1.5714  0  0.231115  0.64747  0  4.15939  0
C  C196  1  0.96826706  0.91161621  0.55223149  1  1.576911  0  0.22889  0.647502  0  4.172798  0
C  C197  1  0.57897430  0.63925122  0.55344226  1  1.571369  0  0.231141  0.647394  0  4.159177  0
C  C198  1  0.35897976  0.03138065  0.44795236  1  1.561379  0  0.228928  0.647029  0  4.175355  0
C  C199  1  0.08567408  0.42065266  0.44632297  1  1.557105  0  0.230072  0.646107  0  4.161134  0
C  C200  1  0.71032338  0.63903819  0.08450048  1  -0.017555  0  -0.004671  0.079697  0  4.001033  0
C  C201  1  0.37438259  0.44628473  0.08530021  1  -0.052245  0  -0.006047  0.077384  0  4.008154  0
C  C202  1  0.36153933  0.62596974  0.91502694  1  0.038018  0  -0.006086  0.077638  0  4.006225  0
C  C203  1  0.55453442  0.28974832  0.91505437  1  0.021502  0  -0.003982  0.079746  0  4.000741  0
C  C204  1  0.87597873  0.11153101  0.41501885  1  0.038364  0  -0.006065  0.077803  0  4.006238  0
C  C205  1  0.53974086  0.30453792  0.41505311  1  0.021951  0  -0.003877  0.080028  0  4.000555  0
C  C206  1  0.69628886  0.12438232  0.58530077  1  -0.052282  0  -0.006136  0.077318  0  4.008244  0
C  C207  1  0.88903064  0.46031570  0.58449985  1  0.000924  0  -0.004726  0.079694  0  4.001181  0
C  C208  1  0.65820399  0.55296168  0.08030497  1  -0.116084  0  -0.089468  -0.133218  0  3.98495  0
C  C209  1  0.42270223  0.52794506  0.08118282  1  -0.05706  0  -0.089723  -0.130852  0  3.984054  0
C  C210  1  0.44738231  0.57773844  0.91913955  1  -0.120485  0  -0.088655  -0.131927  0  3.984908  0
C  C211  1  0.47267346  0.34182664  0.91919720  1  -0.069926  0  -0.090504  -0.132462  0  3.984355  0
C  C212  1  0.82775192  0.19737598  0.41913545  1  -0.120321  0  -0.088496  -0.131638  0  3.984613  0
C  C213  1  0.59182961  0.22268294  0.41919881  1  -0.069848  0  -0.090511  -0.132381  0  3.984406  0
C  C214  1  0.77794391  0.17270659  0.58118265  1  -0.056527  0  -0.089703  -0.130875  0  3.984106  0
C  C215  1  0.80295297  0.40819390  0.58030317  1  -0.113176  0  -0.089622  -0.133435  0  3.985124  0
C  C216  1  0.66375585  0.51083440  0.11502003  1  0.001816  0  -0.090617  -0.06642  0  4.03977  0
C  C217  1  0.45173312  0.60493483  0.11589182  1  -0.024456  0  -0.090154  -0.068045  0  4.042519  0
C  C218  1  0.48927543  0.54840038  0.88437116  1  -0.044608  0  -0.089813  -0.0674  0  4.041734  0
C  C219  1  0.39561965  0.33587829  0.88449478  1  -0.02097  0  -0.091554  -0.069852  0  4.045554  0
C  C220  1  0.79840688  0.23928043  0.38436892  1  -0.00553  0  -0.089899  -0.067635  0  4.041583  0
C  C221  1  0.58588503  0.14563223  0.38449466  1  -0.020615  0  -0.091585  -0.069977  0  4.045575  0
C  C222  1  0.85493718  0.20173662  0.61589171  1  -0.024587  0  -0.090137  -0.067882  0  4.042556  0
C  C223  1  0.76082064  0.41374218  0.61501741  1  -0.001304  0  -0.090259  -0.066147  0  4.039849  0
C  C224  1  0.72157473  0.55348893  0.15446186  1  -0.085201  0  -0.094662  -0.141932  0  3.99281  0
C  C225  1  0.43268005  0.60201126  0.15522121  1  -0.049933  0  -0.095076  -0.141953  0  3.993559  0
C  C226  1  0.44658448  0.56701354  0.84499810  1  -0.06418  0  -0.095169  -0.1418  0  3.992135  0
C  C227  1  0.39859560  0.27758457  0.84513354  1  -0.021428  0  -0.094708  -0.141928  0  3.994712  0
C  C228  1  0.81702720  0.19659500  0.34499575  1  -0.03919  0  -0.095012  -0.141697  0  3.991932  0
C  C229  1  0.52759009  0.14860512  0.34513449  1  -0.02343  0  -0.094738  -0.142008  0  3.99466  0
C  C230  1  0.85201124  0.18268088  0.65521833  1  -0.049796  0  -0.095087  -0.141944  0  3.993748  0
C  C231  1  0.80347539  0.47155979  0.65445839  1  -0.085354  0  -0.094821  -0.142051  0  3.992942  0
C  C232  1  0.77621292  0.63814592  0.15906242  1  -0.012813  0  -0.00897  0.073575  0  4.024257  0
C  C233  1  0.38221924  0.52208983  0.15970079  1  -0.006982  0  -0.009983  0.071613  0  4.025329  0
C  C234  1  0.36215486  0.61740179  0.84051827  1  -0.020788  0  -0.010431  0.070272  0  4.022009  0
C  C235  1  0.47867550  0.22293771  0.84059060  1  -0.074608  0  -0.009992  0.072188  0  4.022688  0
C  C236  1  0.86741131  0.11215796  0.34051514  1  -0.04594  0  -0.010486  0.070323  0  4.022138  0
C  C237  1  0.47293679  0.22868141  0.34058968  1  -0.073675  0  -0.010026  0.072193  0  4.022816  0
C  C238  1  0.77209152  0.13222236  0.65969861  1  -0.006424  0  -0.009983  0.071561  0  4.025331  0
C  C239  1  0.88813338  0.52620282  0.65906269  1  -0.012886  0  -0.008941  0.073685  0  4.023862  0
C  C240  1  0.76936107  0.68069509  0.12415737  1  -0.046482  0  -0.085725  -0.176294  0  3.89817  0
C  C241  1  0.35441162  0.44451925  0.12481965  1  -0.01512  0  -0.084371  -0.171578  0  3.900948  0
C  C242  1  0.31984724  0.64566035  0.87547888  1  -0.039877  0  -0.084572  -0.172777  0  3.898957  0
C  C243  1  0.55634205  0.23030523  0.87546903  1  -0.090125  0  -0.085398  -0.17402  0  3.897487  0
C  C244  1  0.89567345  0.06984858  0.37547236  1  -0.039215  0  -0.084455  -0.172794  0  3.899406  0
C  C245  1  0.48029317  0.30633920  0.37546864  1  -0.090064  0  -0.085367  -0.174019  0  3.897406  0
C  C246  1  0.69451230  0.10441702  0.62481953  1  -0.015403  0  -0.084311  -0.171464  0  3.900965  0
C  C247  1  0.93068729  0.51935182  0.62415689  1  -0.046597  0  -0.085768  -0.176346  0  3.898213  0
C  C248  1  0.84666482  0.68022593  0.19896378  1  -0.026754  0  0.00815  0.068052  0  3.957003  0
C  C249  1  0.35143090  0.51976150  0.19949797  1  -0.019915  0  0.00736  0.066025  0  3.958437  0
C  C250  1  0.31986659  0.64796194  0.80067822  1  0.003084  0  0.008711  0.069812  0  3.95335  0
C  C251  1  0.48079906  0.15229547  0.80072141  1  -0.009119  0  0.009147  0.068607  0  3.95235  0
C  C252  1  0.89797369  0.06988178  0.30067515  1  -0.011921  0  0.008606  0.069589  0  3.953289  0
C  C253  1  0.40229694  0.23081482  0.30072232  1  -0.008851  0  0.009268  0.068626  0  3.952278  0
C  C254  1  0.76976756  0.10143599  0.69949659  1  -0.02029  0  0.007405  0.06612  0  3.958829  0
C  C255  1  0.93022074  0.59665300  0.69896344  1  -0.026722  0  0.008138  0.067772  0  3.957188  0
C  C256  1  0.82049652  0.71379635  0.23787270  1  -0.016541  0  -0.08932  -0.138624  0  3.995907  0
C  C257  1  0.41657023  0.52453013  0.23836326  1  0.000347  0  -0.090019  -0.140777  0  3.998889  0
C  C258  1  0.28625352  0.58280525  0.76175785  1  -0.031969  0  -0.089628  -0.141097  0  3.997708  0
C  C259  1  0.47596825  0.17849176  0.76185328  1  -0.029175  0  -0.090761  -0.142383  0  3.99707  0
C  C260  1  0.83281894  0.03626574  0.26175367  1  -0.016422  0  -0.089625  -0.141045  0  3.99773  0
C  C261  1  0.42850334  0.22598906  0.26185711  1  -0.02927  0  -0.090804  -0.142404  0  3.997185  0
C  C262  1  0.77453210  0.16657495  0.73836125  1  0.000358  0  -0.090067  -0.140953  0  3.999144  0
C  C263  1  0.96378948  0.57048617  0.73787342  1  -0.016926  0  -0.089284  -0.138388  0  3.995849  0
C  C264  1  0.88893093  0.75722212  0.27410175  1  -0.084181  0  -0.078628  -0.083108  0  3.972167  0
C  C265  1  0.38444487  0.51676453  0.27450042  1  -0.051639  0  -0.077769  -0.079968  0  3.972382  0
C  C266  1  0.24271207  0.61496809  0.72557345  1  -0.052529  0  -0.077984  -0.081074  0  3.971063  0
C  C267  1  0.48348898  0.11010103  0.72569602  1  -0.051686  0  -0.078332  -0.080045  0  3.976162  0
C  C268  1  0.86497785  0.99271816  0.22557067  1  -0.052433  0  -0.078098  -0.08116  0  3.971212  0
C  C269  1  0.36012497  0.23352240  0.22570104  1  -0.051804  0  -0.078421  -0.080013  0  3.97592  0
C  C270  1  0.76676044  0.13445631  0.77449879  1  -0.051822  0  -0.077798  -0.080035  0  3.972447  0
C  C271  1  0.00722038  0.63892128  0.77410127  1  -0.084248  0  -0.078622  -0.083344  0  3.972536  0
C  C272  1  0.98516314  0.76781370  0.27203774  1  0.035724  0  -0.018506  -0.028871  0  3.982257  0
C  C273  1  0.28613056  0.50411498  0.27237223  1  -0.006983  0  -0.018204  -0.030298  0  3.982096  0
C  C274  1  0.23211590  0.71329976  0.72774764  1  0.014595  0  -0.018507  -0.029213  0  3.984074  0
C  C275  1  0.49585337  0.01384554  0.72774589  1  -0.025908  0  -0.01891  -0.030836  0  3.985433  0
C  C276  1  0.96330766  0.98211690  0.22774419  1  0.015038  0  -0.018502  -0.029378  0  3.98385  0
C  C277  1  0.26385917  0.24588886  0.22774762  1  -0.025085  0  -0.018891  -0.030878  0  3.98519  0
C  C278  1  0.75409977  0.03614413  0.77236957  1  -0.007015  0  -0.018234  -0.030299  0  3.982112  0
C  C279  1  0.01781635  0.73515245  0.77203850  1  0.035553  0  -0.018484  -0.02858  0  3.981965  0
C  C280  1  0.01224123  0.73488571  0.23343827  1  -0.032704  0  -0.068475  -0.093444  0  3.909579  0
C  C281  1  0.22036894  0.49898135  0.23381309  1  -0.024158  0  -0.069253  -0.095029  0  3.907668  0
C  C282  1  0.26497915  0.77904132  0.76636225  1  -0.077192  0  -0.068972  -0.095573  0  3.910956  0
C  C283  1  0.50083853  0.98665979  0.76626987  1  -0.039696  0  -0.068513  -0.093653  0  3.909331  0
C  C284  1  0.02905214  0.01499139  0.26636235  1  -0.076993  0  -0.069022  -0.095557  0  3.910581  0
C  C285  1  0.23666979  0.25086310  0.26626954  1  -0.03988  0  -0.068434  -0.093637  0  3.909304  0
C  C286  1  0.74896842  0.97037637  0.73381251  1  -0.024034  0  -0.069174  -0.094969  0  3.907596  0
C  C287  1  0.98488730  0.76223239  0.73343956  1  -0.032982  0  -0.068546  -0.093796  0  3.909491  0
C  C288  1  0.94395314  0.69062012  0.19738562  1  -0.08174  0  -0.007555  -0.07718  0  3.938136  0
C  C289  1  0.25251315  0.50771477  0.19782733  1  -0.063347  0  -0.004937  -0.071109  0  3.929169  0
C  C290  1  0.30934406  0.74683820  0.80237122  1  0.004354  0  -0.00703  -0.074494  0  3.936038  0
C  C291  1  0.49238009  0.05496709  0.80229939  1  -0.015647  0  -0.006631  -0.074425  0  3.933414  0
C  C292  1  0.99684750  0.05936202  0.30236817  1  0.004223  0  -0.006924  -0.074057  0  3.935433  0
C  C293  1  0.30496914  0.24239630  0.30230019  1  -0.015926  0  -0.006688  -0.074316  0  3.933238  0
C  C294  1  0.75770649  0.00251996  0.69782685  1  -0.063452  0  -0.00504  -0.071233  0  3.929398  0
C  C295  1  0.94061290  0.69394073  0.69738721  1  -0.081305  0  -0.007412  -0.076767  0  3.93817  0
C  C296  1  0.05903914  0.81513527  0.31033569  1  1.511178  0  0.182854  0.557119  0  4.267564  0
C  C297  1  0.25053002  0.49441999  0.31057558  1  1.530247  0  0.182578  0.557156  0  4.270599  0
C  C298  1  0.18472711  0.74902830  0.68956000  1  1.506146  0  0.183256  0.55709  0  4.270647  0
C  C299  1  0.50550505  0.94010346  0.68949239  1  1.533935  0  0.183998  0.559918  0  4.264415  0
C  C300  1  0.99903889  0.93472589  0.18955892  1  1.506224  0  0.183275  0.55722  0  4.270878  0
C  C301  1  0.19011684  0.25553119  0.18949330  1  1.53414  0  0.184083  0.559976  0  4.264054  0
C  C302  1  0.74440866  0.00053992  0.81057154  1  1.530257  0  0.182511  0.557346  0  4.270299  0
C  C303  1  0.06513440  0.80903209  0.81033750  1  1.511254  0  0.182718  0.55699  0  4.267376  0
C  C304  1  0.97646894  0.64895278  0.15770340  1  1.577811  0  0.232285  0.643994  0  4.15139  0
C  C305  1  0.18019478  0.50945382  0.15810847  1  1.547899  0  0.233662  0.645784  0  4.146377  0
C  C306  1  0.35092153  0.81891693  0.84215382  1  1.56621  0  0.232429  0.643028  0  4.151032  0
C  C307  1  0.49046678  0.02226943  0.84195602  1  1.560526  0  0.232145  0.643778  0  4.147723  0
C  C308  1  0.06892381  0.10092858  0.34215387  1  1.566267  0  0.23241  0.64284  0  4.15126  0
C  C309  1  0.27227274  0.24047652  0.34195636  1  1.560887  0  0.232097  0.643689  0  4.147754  0
C  C310  1  0.75945394  0.93018872  0.65810977  1  1.547925  0  0.233781  0.64595  0  4.146281  0
C  C311  1  0.89894162  0.72646113  0.65770440  1  1.578652  0  0.23219  0.643837  0  4.151561  0
C  C312  1  0.05851400  0.05876966  0.11738964  1  1.577186  0  0.152629  0.517551  0  4.288748  0
C  C313  1  0.94113950  0.94199205  0.88269112  1  1.572756  0  0.152783  0.51833  0  4.287089  0
C  C314  1  0.19199549  0.69112935  0.38269093  1  1.573245  0  0.152782  0.518071  0  4.287175  0
C  C315  1  0.30878282  0.80851383  0.61738624  1  1.577217  0  0.152542  0.517411  0  4.288872  0
O  O316  1  0.94372514  0.77494216  0.07018455  1  -1.183642  0  -0.389072  -0.64893  0  2.283963  0
O  O317  1  0.12612282  0.29459587  0.06989430  1  -1.191382  0  -0.389202  -0.654288  0  2.278198  0
O  O318  1  0.22490558  0.87271525  0.92984313  1  -1.184435  0  -0.386357  -0.645935  0  2.282965  0
O  O319  1  0.70470992  0.05587331  0.92999419  1  -1.185938  0  -0.390588  -0.654123  0  2.27902  0
O  O320  1  0.12271743  0.97489927  0.42984085  1  -1.184228  0  -0.386455  -0.646082  0  2.282558  0
O  O321  1  0.30586580  0.45470999  0.42998938  1  -1.185976  0  -0.390714  -0.654325  0  2.278908  0
O  O322  1  0.54460010  0.87612238  0.56989425  1  -1.191436  0  -0.389141  -0.654182  0  2.278465  0
O  O323  1  0.02493017  0.69372963  0.57018178  1  -1.183649  0  -0.389209  -0.648935  0  2.283556  0
O  O324  1  0.90517611  0.61602199  0.05547610  1  -1.19442  0  -0.398333  -0.687235  0  2.311997  0
O  O325  1  0.15410313  0.44044157  0.05765832  1  -1.192433  0  -0.399041  -0.669607  0  2.309874  0
O  O326  1  0.38403430  0.84969586  0.94468532  1  -1.193795  0  -0.39683  -0.683422  0  2.310109  0
O  O327  1  0.55898771  0.09628798  0.94218598  1  -1.193427  0  -0.401036  -0.671094  0  2.312878  0
O  O328  1  0.09968748  0.13403667  0.44468541  1  -1.19384  0  -0.396724  -0.683225  0  2.310096  0
O  O329  1  0.34628301  0.30899353  0.44218500  1  -1.193898  0  -0.401118  -0.671243  0  2.313063  0
O  O330  1  0.69045059  0.90410151  0.55766204  1  -1.192656  0  -0.399174  -0.669688  0  2.309698  0
O  O331  1  0.86600966  0.65516759  0.55547224  1  -1.194466  0  -0.398229  -0.687064  0  2.312479  0
O  O332  1  0.74337717  0.83816924  0.93018717  1  -1.173517  0  -0.389772  -0.634949  0  2.227  0
O  O333  1  0.19338042  0.08994545  0.93009218  1  -1.183433  0  -0.391912  -0.63787  0  2.234195  0
O  O334  1  0.16070880  0.80620843  0.07019285  1  -1.179729  0  -0.392506  -0.639344  0  2.234889  0
O  O335  1  0.90809364  0.25630495  0.06957719  1  -1.172155  0  -0.389517  -0.635317  0  2.227451  0
O  O336  1  0.05619940  0.91069800  0.57018956  1  -1.17931  0  -0.392447  -0.639265  0  2.234943  0
O  O337  1  0.50630835  0.65809350  0.56958035  1  -1.17213  0  -0.38944  -0.635119  0  2.227773  0
O  O338  1  0.33994791  0.94338953  0.43008971  1  -1.183086  0  -0.391904  -0.637947  0  2.234023  0
O  O339  1  0.08815863  0.49335884  0.43018126  1  -1.173629  0  -0.389911  -0.635135  0  2.226852  0
O  O340  1  0.59226302  0.87267803  0.93192887  1  -1.215234  0  -0.431397  -0.737038  0  2.403454  0
O  O341  1  0.34811479  0.05740070  0.93638090  1  -1.22516  0  -0.429158  -0.749246  0  2.421195  0
O  O342  1  0.12137251  0.65141098  0.06359731  1  -1.229329  0  -0.428165  -0.749169  0  2.419629  0
O  O343  1  0.94088140  0.40736044  0.06777971  1  -1.221196  0  -0.433371  -0.73912  0  2.401917  0
O  O344  1  0.90140132  0.87136072  0.56358778  1  -1.229294  0  -0.428126  -0.749095  0  2.419619  0
O  O345  1  0.65736142  0.69087496  0.56778234  1  -1.221089  0  -0.433483  -0.739294  0  2.401619  0
O  O346  1  0.30741980  0.09812805  0.43638546  1  -1.224978  0  -0.429167  -0.749308  0  2.421288  0
O  O347  1  0.12267008  0.34224551  0.43192855  1  -1.21538  0  -0.431326  -0.737058  0  2.403652  0
O  O348  1  0.03424888  0.85629179  0.34430447  1  -1.167869  0  -0.373758  -0.626429  0  2.18193  0
O  O349  1  0.30926637  0.48674255  0.34444916  1  -1.172492  0  -0.372554  -0.624454  0  2.182949  0
O  O350  1  0.14363929  0.69035364  0.65553707  1  -1.178358  0  -0.374042  -0.625396  0  2.182862  0
O  O351  1  0.51335325  0.96506986  0.65567816  1  -1.180112  0  -0.372465  -0.626909  0  2.179926  0
O  O352  1  0.94036661  0.89364005  0.15553566  1  -1.178441  0  -0.373976  -0.625363  0  2.18299  0
O  O353  1  0.21508431  0.26337005  0.15567600  1  -1.180152  0  -0.372565  -0.627072  0  2.179635  0
O  O354  1  0.73673408  0.05927782  0.84444614  1  -1.172636  0  -0.372411  -0.624516  0  2.182644  0
O  O355  1  0.10629577  0.78424655  0.84430416  1  -1.168086  0  -0.373769  -0.62644  0  2.182136  0
O  O356  1  0.14811006  0.81395865  0.30818638  1  -1.181457  0  -0.409308  -0.667453  0  2.202997  0
O  O357  1  0.15931174  0.49336802  0.30840457  1  -1.190864  0  -0.40699  -0.667118  0  2.208851  0
O  O358  1  0.18567344  0.84033006  0.69185339  1  -1.183932  0  -0.409204  -0.668562  0  2.205909  0
O  O359  1  0.50639232  0.85100791  0.69154270  1  -1.183044  0  -0.408041  -0.667221  0  2.205746  0
O  O360  1  0.09033962  0.93567578  0.19185524  1  -1.184275  0  -0.409281  -0.668646  0  2.206087  0
O  O361  1  0.10102076  0.25640936  0.19154465  1  -1.183251  0  -0.408049  -0.667125  0  2.205384  0
O  O362  1  0.74335893  0.90932399  0.80840095  1  -1.190642  0  -0.406945  -0.667265  0  2.209409  0
O  O363  1  0.06395658  0.89810174  0.80818482  1  -1.181162  0  -0.409239  -0.667407  0  2.202844  0
O  O364  1  0.02675699  0.69980556  0.14234661  1  -1.203331  0  -0.413706  -0.721556  0  2.453446  0
O  O365  1  0.11461643  0.44300751  0.14275646  1  -1.206382  0  -0.416741  -0.724776  0  2.459116  0
O  O366  1  0.29996651  0.88432182  0.85764392  1  -1.21163  0  -0.413726  -0.721543  0  2.450437  0
O  O367  1  0.55672642  0.97180963  0.85720625  1  -1.209997  0  -0.415959  -0.723698  0  2.460237  0
O  O368  1  0.13432035  0.04996734  0.35764502  1  -1.211623  0  -0.413716  -0.721537  0  2.450522  0
O  O369  1  0.22180044  0.30673057  0.35720107  1  -1.210258  0  -0.415948  -0.72367  0  2.460147  0
O  O370  1  0.69300600  0.86461876  0.64275871  1  -1.206366  0  -0.416754  -0.724831  0  2.459229  0
O  O371  1  0.94979869  0.77674580  0.64234434  1  -1.204234  0  -0.41378  -0.721566  0  2.453349  0
O  O372  1  0.95718825  0.56073981  0.13984596  1  -1.185442  0  -0.349287  -0.612559  0  2.321642  0
O  O373  1  0.18109444  0.57941241  0.14001187  1  -1.173817  0  -0.347028  -0.611662  0  2.320549  0
O  O374  1  0.43911192  0.81750966  0.86000807  1  -1.187633  0  -0.348687  -0.611869  0  2.324801  0
O  O375  1  0.42047863  0.04123981  0.86004335  1  -1.175277  0  -0.346847  -0.610514  0  2.319788  0
O  O376  1  0.06751475  0.18911490  0.36001015  1  -1.187848  0  -0.348657  -0.611718  0  2.324951  0
O  O377  1  0.29124440  0.17048722  0.36004238  1  -1.1753  0  -0.34673  -0.610537  0  2.319908  0
O  O378  1  0.82941867  0.93108604  0.64001528  1  -1.173761  0  -0.34706  -0.611778  0  2.320533  0
O  O379  1  0.81073386  0.70717628  0.63984949  1  -1.18538  0  -0.34918  -0.61246  0  2.321684  0
O  O380  1  0.05194884  0.97109110  0.09895478  1  -1.186487  0  -0.413162  -0.604921  0  2.331645  0
O  O381  1  0.04989619  0.12783111  0.09894568  1  -1.17564  0  -0.409158  -0.597405  0  2.335475  0
O  O382  1  0.02882882  0.95163299  0.90120786  1  -1.186222  0  -0.413453  -0.604909  0  2.328861  0
O  O383  1  0.87199788  0.95018175  0.90108133  1  -1.173357  0  -0.409149  -0.598191  0  2.336009  0
O  O384  1  0.20163713  0.77883199  0.40120572  1  -1.185855  0  -0.413561  -0.604947  0  2.32838  0
O  O385  1  0.20016119  0.62200374  0.40108342  1  -1.174063  0  -0.409054  -0.597947  0  2.336591  0
O  O386  1  0.37782846  0.79989982  0.59894575  1  -1.175938  0  -0.409009  -0.59712  0  2.336352  0
O  O387  1  0.22107924  0.80193642  0.59894807  1  -1.186358  0  -0.413187  -0.605008  0  2.330718  0
O  O388  1  0.23872440  0.94143902  0.14921311  1  -1.199389  0  -0.581367  -0.794057  0  1.98927  0
O  O389  1  0.91043838  0.20738940  0.14889187  1  -1.219787  0  -0.580531  -0.795122  0  1.99773  0
O  O390  1  0.05900055  0.08960991  0.85137204  1  -1.220406  0  -0.579707  -0.794426  0  1.994424  0
O  O391  1  0.79277477  0.76138812  0.85071666  1  -1.232998  0  -0.581598  -0.797137  0  1.988544  0
O  O392  1  0.33963034  0.80899569  0.35137317  1  -1.220488  0  -0.579571  -0.794144  0  1.994615  0
O  O393  1  0.01138112  0.54277061  0.35071659  1  -1.233012  0  -0.581621  -0.795261  0  1.992051  0
O  O394  1  0.45738925  0.66043797  0.64889275  1  -1.219669  0  -0.580578  -0.795178  0  1.997588  0
O  O395  1  0.19143544  0.98872409  0.64921050  1  -1.199551  0  -0.581416  -0.79413  0  1.989228  0
O  O396  1  0.21251131  0.76591714  0.16074200  1  -1.244734  0  -0.634551  -0.835551  0  2.040822  0
O  O397  1  0.94758458  0.39459389  0.16122600  1  -1.26679  0  -0.632742  -0.833176  0  2.042553  0
O  O398  1  0.23398664  0.05152770  0.83949169  1  -1.296377  0  -0.634589  -0.835994  0  2.041264  0
O  O399  1  0.60525599  0.78627699  0.83862626  1  -1.260289  0  -0.632529  -0.83275  0  2.042228  0
O  O400  1  0.30153855  0.98399781  0.33949539  1  -1.295976  0  -0.634716  -0.836265  0  2.040836  0
O  O401  1  0.03626722  0.35525080  0.33862466  1  -1.26026  0  -0.632599  -0.832678  0  2.042434  0
O  O402  1  0.64458713  0.69758236  0.66122476  1  -1.266784  0  -0.632721  -0.833038  0  2.042651  0
O  O403  1  0.01592063  0.96249502  0.66074357  1  -1.244545  0  -0.634515  -0.835507  0  2.040873  0
O  O404  1  0.99917446  0.49298125  0.00245387  1  -1.19306  0  -0.595412  -0.783274  0  2.021393  0
O  O405  1  0.50907195  0.99636327  0.99743082  1  -1.181258  0  -0.594004  -0.784131  0  2.028293  0
O  O406  1  0.24636440  0.25910125  0.49743531  1  -1.179555  0  -0.594097  -0.784265  0  2.028264  0
O  O407  1  0.74298918  0.74918211  0.50245483  1  -1.193888  0  -0.595546  -0.783293  0  2.021265  0
