# generated using pymatgen
data_Cu3H49C47(N2O5)2
_symmetry_space_group_name_H-M   'P 1'
_cell_length_a   12.79440559
_cell_length_b   16.34133736
_cell_length_c   30.05355157
_cell_angle_alpha   89.99655876
_cell_angle_beta   90.00227049
_cell_angle_gamma   108.08151451
_symmetry_Int_Tables_number   1
_chemical_formula_structural   Cu3H49C47(N2O5)2
_chemical_formula_sum   'Cu12 H196 C188 N16 O40'
_cell_volume   5973.22113033
_cell_formula_units_Z   4
loop_
 _symmetry_equiv_pos_site_id
 _symmetry_equiv_pos_as_xyz
  1  'x, y, z'
loop_
 _atom_site_type_symbol
 _atom_site_label
 _atom_site_symmetry_multiplicity
 _atom_site_fract_x
 _atom_site_fract_y
 _atom_site_fract_z
 _atom_site_occupancy
 _atom_site_pbe_bader_charge
 _atom_site_pbe_bader_spin_density
 _atom_site_pbe_cm5_charge
 _atom_site_pbe_ddec_charge
 _atom_site_pbe_ddec_spin_density
 _atom_site_pbe_ddec_sum_bond_order
 _atom_site_pbe_magmom
Cu  Cu0  1  0.48272790  0.26462462  0.65501251  1  1.077488  0  0.719386  0.803421  0  2.441137  0
Cu  Cu1  1  0.51726295  0.23534992  0.15500815  1  1.077674  0  0.719277  0.803305  0  2.441336  0
Cu  Cu2  1  0.51727778  0.73537959  0.34498386  1  1.077509  0  0.719283  0.803372  0  2.44114  0
Cu  Cu3  1  0.48273253  0.76466010  0.84500353  1  1.077607  0  0.719277  0.803292  0  2.441345  0
Cu  Cu4  1  0.60924140  0.64061577  0.88475467  1  1.141587  0  0.758079  0.938905  0  2.409157  0
Cu  Cu5  1  0.39072960  0.85939434  0.38475344  1  1.141907  0  0.758352  0.939204  0  2.409767  0
Cu  Cu6  1  0.39075743  0.35940068  0.11524869  1  1.141765  0  0.758237  0.939156  0  2.409143  0
Cu  Cu7  1  0.60926902  0.14061374  0.61524260  1  1.141636  0  0.758235  0.939151  0  2.409615  0
Cu  Cu8  1  0.56162040  0.28594326  0.05951815  1  1.086862  0  0.7387  0.867064  0  2.37892  0
Cu  Cu9  1  0.43837380  0.21404441  0.55950944  1  1.087627  0  0.738619  0.866889  0  2.378484  0
Cu  Cu10  1  0.43836345  0.71405517  0.94048454  1  1.087651  0  0.738706  0.866892  0  2.379309  0
Cu  Cu11  1  0.56161446  0.78595530  0.44049026  1  1.086598  0  0.738646  0.866872  0  2.378351  0
H  H12  1  0.37424283  0.39390481  0.68486353  1  0.121065  0  0.122608  0.088194  0  1.003688  0
H  H13  1  0.62577905  0.10607195  0.18486355  1  0.120663  0  0.122606  0.088124  0  1.00338  0
H  H14  1  0.62576293  0.60608781  0.31513450  1  0.120969  0  0.122631  0.088218  0  1.003538  0
H  H15  1  0.37421363  0.89392906  0.81513715  1  0.12061  0  0.122657  0.0882  0  1.003293  0
H  H16  1  0.27657733  0.41540613  0.75419327  1  0.081838  0  0.112358  0.121319  0  0.990588  0
H  H17  1  0.72345189  0.08457676  0.25420495  1  0.081387  0  0.112402  0.121435  0  0.990639  0
H  H18  1  0.72343252  0.58459679  0.24580277  1  0.081896  0  0.112358  0.121337  0  0.990676  0
H  H19  1  0.27654186  0.91541909  0.74579442  1  0.081409  0  0.112412  0.121446  0  0.990647  0
H  H20  1  0.29247779  0.16909697  0.79944332  1  0.058477  0  0.113652  0.123356  0  0.978584  0
H  H21  1  0.70753783  0.33090987  0.29945502  1  0.09683  0  0.113686  0.123456  0  0.978141  0
H  H22  1  0.70752403  0.83089952  0.20055438  1  0.097023  0  0.113659  0.123343  0  0.978508  0
H  H23  1  0.29248507  0.66908852  0.70054602  1  0.096765  0  0.113729  0.123501  0  0.978076  0
H  H24  1  0.39293882  0.15926457  0.72876383  1  0.118788  0  0.126684  0.098091  0  0.979271  0
H  H25  1  0.60707383  0.34073369  0.22876186  1  0.118818  0  0.126597  0.098009  0  0.979314  0
H  H26  1  0.60706224  0.84072998  0.27123387  1  0.118907  0  0.126588  0.097967  0  0.979205  0
H  H27  1  0.39293499  0.65926858  0.77124249  1  0.118651  0  0.126594  0.097993  0  0.979282  0
H  H28  1  0.95645799  0.25817238  0.79610110  1  0.067636  0  0.092038  0.127804  0  1.037287  0
H  H29  1  0.04354108  0.24183094  0.29610884  1  0.06743  0  0.092019  0.127753  0  1.037318  0
H  H30  1  0.04354071  0.74182411  0.20389927  1  0.067642  0  0.092054  0.127786  0  1.037344  0
H  H31  1  0.95646409  0.75817198  0.70388986  1  0.067535  0  0.092042  0.127743  0  1.037274  0
H  H32  1  0.05822230  0.22600000  0.76684760  1  0.033611  0  0.091002  0.126657  0  0.997899  0
H  H33  1  0.94177338  0.27399973  0.26685445  1  0.033736  0  0.090947  0.12656  0  0.997869  0
H  H34  1  0.94177848  0.77399584  0.23315277  1  0.033634  0  0.091004  0.126636  0  0.997857  0
H  H35  1  0.05823282  0.72600384  0.73314459  1  0.033777  0  0.09096  0.126579  0  0.997886  0
H  H36  1  0.06475017  0.33524949  0.76808533  1  0.032976  0  0.091594  0.126185  0  0.995626  0
H  H37  1  0.93525440  0.16475462  0.26809164  1  0.033151  0  0.091663  0.126258  0  0.995589  0
H  H38  1  0.93525191  0.66474764  0.23191404  1  0.032928  0  0.091596  0.126166  0  0.995591  0
H  H39  1  0.06475180  0.83524894  0.73190607  1  0.033221  0  0.091666  0.126266  0  0.995554  0
H  H40  1  0.14127590  0.30981320  0.98242511  1  0.029136  0  0.092629  0.132358  0  1.021756  0
H  H41  1  0.85872390  0.19018360  0.48242831  1  0.028916  0  0.092581  0.132238  0  1.021845  0
H  H42  1  0.85872490  0.69018070  0.01757525  1  0.029256  0  0.092601  0.13236  0  1.02173  0
H  H43  1  0.14127894  0.80981545  0.51756906  1  0.028917  0  0.092559  0.132198  0  1.021763  0
H  H44  1  0.02566835  0.22492232  0.96342511  1  0.0597  0  0.096065  0.136932  0  0.993415  0
H  H45  1  0.97433279  0.27507247  0.46343081  1  0.054311  0  0.096003  0.136755  0  0.993407  0
H  H46  1  0.97433220  0.77507094  0.03657426  1  0.059833  0  0.096102  0.136905  0  0.99337  0
H  H47  1  0.02566979  0.72492788  0.53656623  1  0.054352  0  0.095978  0.136737  0  0.993429  0
H  H48  1  0.02690224  0.33228013  0.95783501  1  0.055436  0  0.095051  0.133376  0  1.010993  0
H  H49  1  0.97309934  0.16771906  0.45784286  1  0.055431  0  0.095091  0.133393  0  1.01091  0
H  H50  1  0.97309725  0.66771442  0.04216669  1  0.055683  0  0.095051  0.133349  0  1.011004  0
H  H51  1  0.02690508  0.83227806  0.54215484  1  0.055585  0  0.095066  0.133333  0  1.010882  0
H  H52  1  0.44442785  0.31988496  0.82890821  1  0.034056  0  0.086018  0.121363  0  1.035185  0
H  H53  1  0.55557407  0.18011195  0.32890762  1  0.034017  0  0.086013  0.12131  0  1.035188  0
H  H54  1  0.55557237  0.68011732  0.17109149  1  0.034031  0  0.085994  0.121293  0  1.03523  0
H  H55  1  0.44442982  0.81988582  0.67109074  1  0.034092  0  0.08595  0.121227  0  1.035147  0
H  H56  1  0.45377178  0.31211425  0.88758534  1  0.054856  0  0.08805  0.121846  0  1.055401  0
H  H57  1  0.54623094  0.18788662  0.38758368  1  0.054945  0  0.088045  0.121825  0  1.055347  0
H  H58  1  0.54622872  0.68788481  0.11241303  1  0.054807  0  0.088017  0.121804  0  1.055407  0
H  H59  1  0.45377400  0.81211179  0.61241303  1  0.055129  0  0.088039  0.121829  0  1.055326  0
H  H60  1  0.45234669  0.40953375  0.86279665  1  0.108752  0  0.095061  0.148998  0  1.009386  0
H  H61  1  0.54765339  0.09046631  0.36279420  1  0.10878  0  0.095031  0.148982  0  1.009401  0
H  H62  1  0.54765822  0.59046853  0.13720405  1  0.108728  0  0.095037  0.148977  0  1.009447  0
H  H63  1  0.45234528  0.90953404  0.63720417  1  0.108787  0  0.095056  0.149015  0  1.009371  0
H  H64  1  0.50854113  0.42529497  0.01754968  1  0.154363  0  0.119424  0.090684  0  1.043163  0
H  H65  1  0.49147273  0.07468323  0.51754009  1  0.154416  0  0.119383  0.090526  0  1.043296  0
H  H66  1  0.49144639  0.57469895  0.98245768  1  0.154542  0  0.119469  0.090665  0  1.043142  0
H  H67  1  0.50851061  0.92531198  0.48245129  1  0.154119  0  0.119416  0.090595  0  1.043302  0
H  H68  1  0.39576566  0.16037803  0.00879202  1  0.135603  0  0.12991  0.102973  0  0.978871  0
H  H69  1  0.60423227  0.33961328  0.50878733  1  0.136055  0  0.129896  0.102994  0  0.978815  0
H  H70  1  0.60421717  0.83961589  0.99120967  1  0.135881  0  0.12992  0.10295  0  0.978956  0
H  H71  1  0.39576121  0.66038386  0.49120771  1  0.135868  0  0.129928  0.102997  0  0.978902  0
H  H72  1  0.26314701  0.16462403  0.94793774  1  0.103257  0  0.113223  0.120917  0  0.978208  0
H  H73  1  0.73685738  0.33538256  0.44793648  1  0.10314  0  0.113224  0.120903  0  0.978269  0
H  H74  1  0.73684903  0.83538147  0.05206262  1  0.103205  0  0.113194  0.120849  0  0.978191  0
H  H75  1  0.26314703  0.66461650  0.55206223  1  0.103169  0  0.113201  0.120896  0  0.978269  0
H  H76  1  0.38309737  0.44198421  0.95493673  1  0.179136  0  0.108047  0.138221  0  1.048039  0
H  H77  1  0.61691971  0.05801139  0.45493151  1  0.179064  0  0.107983  0.138163  0  1.048036  0
H  H78  1  0.61690262  0.55801356  0.04506730  1  0.179205  0  0.107993  0.13822  0  1.048168  0
H  H79  1  0.38307483  0.94198446  0.54506419  1  0.179153  0  0.108042  0.138229  0  1.048079  0
H  H80  1  0.54799313  0.15212025  0.88415887  1  0.054478  0  0.089553  0.128221  0  1.027122  0
H  H81  1  0.45200387  0.34789062  0.38415772  1  0.054279  0  0.089616  0.128313  0  1.027102  0
H  H82  1  0.45200713  0.84787624  0.11583917  1  0.054573  0  0.089526  0.128131  0  1.027138  0
H  H83  1  0.54799846  0.65210715  0.61584265  1  0.05426  0  0.089629  0.12832  0  1.027107  0
H  H84  1  0.56677827  0.25111918  0.85611480  1  0.028847  0  0.089572  0.124076  0  1.025612  0
H  H85  1  0.43322062  0.24888926  0.35611590  1  0.028814  0  0.08956  0.124091  0  1.025586  0
H  H86  1  0.43322303  0.74887795  0.14388424  1  0.02881  0  0.08962  0.12412  0  1.025681  0
H  H87  1  0.56678199  0.75110722  0.64388380  1  0.028901  0  0.089543  0.124087  0  1.025454  0
H  H88  1  0.57127870  0.24852504  0.91490693  1  0.032946  0  0.092897  0.134606  0  1.004086  0
H  H89  1  0.42871504  0.25148220  0.41490821  1  0.032308  0  0.09285  0.134574  0  1.004164  0
H  H90  1  0.42871896  0.75147081  0.08509243  1  0.032925  0  0.09288  0.13455  0  1.004096  0
H  H91  1  0.57128548  0.74851493  0.58509216  1  0.032342  0  0.092876  0.134585  0  1.004183  0
H  H92  1  0.86864750  0.05138073  0.88511252  1  0.062342  0  0.094705  0.138385  0  1.006645  0
H  H93  1  0.13134728  0.44862039  0.38511266  1  0.062324  0  0.094707  0.138419  0  1.006662  0
H  H94  1  0.13135042  0.94861576  0.11488419  1  0.062407  0  0.094712  0.138389  0  1.006663  0
H  H95  1  0.86865948  0.55137866  0.61488737  1  0.062321  0  0.094726  0.138443  0  1.006642  0
H  H96  1  0.00237389  0.12753942  0.89105901  1  0.054756  0  0.088879  0.123547  0  1.017284  0
H  H97  1  0.99762198  0.37246305  0.39106093  1  0.054581  0  0.08889  0.123547  0  1.017261  0
H  H98  1  0.99762586  0.87245578  0.10893769  1  0.054624  0  0.088888  0.123536  0  1.017286  0
H  H99  1  0.00238267  0.62753858  0.60893877  1  0.054518  0  0.088904  0.123567  0  1.017251  0
H  H100  1  0.94378736  0.10098663  0.83785004  1  0.055281  0  0.093299  0.131731  0  0.987317  0
H  H101  1  0.05620199  0.39901587  0.33785153  1  0.055347  0  0.093221  0.131609  0  0.987311  0
H  H102  1  0.05620875  0.89900729  0.16214567  1  0.055295  0  0.093273  0.131693  0  0.987286  0
H  H103  1  0.94380449  0.60098641  0.66214883  1  0.055322  0  0.093255  0.131686  0  0.987273  0
H  H104  1  0.93580081  0.47826497  0.88504922  1  0.041179  0  0.090438  0.128813  0  1.019689  0
H  H105  1  0.06420725  0.02173421  0.38505085  1  0.041068  0  0.090441  0.12884  0  1.019574  0
H  H106  1  0.06420648  0.52173151  0.11495248  1  0.041009  0  0.090415  0.128778  0  1.019607  0
H  H107  1  0.93579716  0.97826485  0.61494818  1  0.04115  0  0.09043  0.128839  0  1.019588  0
H  H108  1  0.02056432  0.44548561  0.84673808  1  0.048055  0  0.093672  0.134953  0  0.990209  0
H  H109  1  0.97942847  0.05450185  0.34673809  1  0.048366  0  0.093714  0.135034  0  0.990123  0
H  H110  1  0.97943544  0.55450765  0.15326428  1  0.048326  0  0.093687  0.134953  0  0.990177  0
H  H111  1  0.02057388  0.94549399  0.65326028  1  0.048053  0  0.093654  0.134953  0  0.990151  0
H  H112  1  0.04397875  0.44076272  0.90420478  1  0.025464  0  0.095894  0.137042  0  1.002369  0
H  H113  1  0.95603033  0.05923846  0.40420524  1  0.025528  0  0.095824  0.136978  0  1.002374  0
H  H114  1  0.95602463  0.55923376  0.09579525  1  0.025546  0  0.095849  0.137036  0  1.002255  0
H  H115  1  0.04397408  0.94076060  0.59579413  1  0.025439  0  0.09585  0.137032  0  1.00243  0
H  H116  1  0.66942174  0.53364886  0.95449643  1  0.098832  0  0.11936  0.086272  0  1.00839  0
H  H117  1  0.33056350  0.96635317  0.45450101  1  0.098801  0  0.119281  0.086269  0  1.008454  0
H  H118  1  0.33058578  0.46635213  0.04550527  1  0.096492  0  0.119335  0.086225  0  1.008409  0
H  H119  1  0.66943628  0.03363817  0.54549436  1  0.098743  0  0.11925  0.08618  0  1.008607  0
H  H120  1  0.73279181  0.40345935  0.95717298  1  0.115312  0  0.113231  0.138324  0  0.997353  0
H  H121  1  0.26719144  0.09655088  0.45717759  1  0.115394  0  0.113218  0.138329  0  0.996979  0
H  H122  1  0.26721336  0.59654358  0.04282772  1  0.115349  0  0.113184  0.138265  0  0.997225  0
H  H123  1  0.73280548  0.90343917  0.54282244  1  0.115105  0  0.113184  0.13827  0  0.997037  0
H  H124  1  0.73328011  0.40645202  0.81330941  1  0.0777  0  0.109636  0.116719  0  1.009527  0
H  H125  1  0.26672103  0.09357410  0.31329547  1  0.07721  0  0.109578  0.116563  0  1.009405  0
H  H126  1  0.26671467  0.59354641  0.18669795  1  0.077052  0  0.109594  0.116643  0  1.009582  0
H  H127  1  0.73328855  0.90643010  0.68670157  1  0.077374  0  0.109618  0.116688  0  1.009383  0
H  H128  1  0.66050030  0.53270149  0.81706902  1  0.158188  0  0.124699  0.10983  0  1.004623  0
H  H129  1  0.33950317  0.96731773  0.31706940  1  0.157787  0  0.124726  0.109856  0  1.004754  0
H  H130  1  0.33949891  0.46729628  0.18293301  1  0.15807  0  0.124742  0.10996  0  1.004543  0
H  H131  1  0.66050200  0.03268326  0.68292698  1  0.157911  0  0.124667  0.109905  0  1.004696  0
H  H132  1  0.50123821  0.91050908  0.92576247  1  0.132121  0  0.111624  0.083778  0  1.035389  0
H  H133  1  0.49876392  0.58949894  0.42575757  1  0.132073  0  0.111644  0.083821  0  1.035361  0
H  H134  1  0.49876230  0.08948805  0.07423656  1  0.132073  0  0.111661  0.083819  0  1.035457  0
H  H135  1  0.50123844  0.41049496  0.57424379  1  0.132245  0  0.111641  0.083786  0  1.035433  0
H  H136  1  0.61994472  0.06068571  0.94069338  1  0.089479  0  0.108666  0.130412  0  1.010301  0
H  H137  1  0.38006237  0.43932545  0.44068737  1  0.089794  0  0.108643  0.130373  0  1.010526  0
H  H138  1  0.38005840  0.93931207  0.05930565  1  0.089399  0  0.108618  0.130362  0  1.010298  0
H  H139  1  0.61993505  0.56066781  0.55931199  1  0.089853  0  0.108641  0.130412  0  1.010506  0
H  H140  1  0.73337370  0.07110101  0.80450261  1  0.078838  0  0.106311  0.112394  0  0.999831  0
H  H141  1  0.26663485  0.42891436  0.30449936  1  0.078133  0  0.10628  0.112249  0  0.999912  0
H  H142  1  0.26662839  0.92889418  0.19549443  1  0.078818  0  0.106344  0.112432  0  0.999921  0
H  H143  1  0.73337244  0.57108212  0.69550001  1  0.078135  0  0.106287  0.112285  0  0.999852  0
H  H144  1  0.61034019  0.91978203  0.79550576  1  0.104998  0  0.11213  0.084066  0  1.007765  0
H  H145  1  0.38965796  0.58023479  0.29550065  1  0.104784  0  0.112189  0.084081  0  1.007919  0
H  H146  1  0.38966137  0.08021381  0.20449461  1  0.105063  0  0.112145  0.084065  0  1.007714  0
H  H147  1  0.61034802  0.41976234  0.70449938  1  0.10466  0  0.11218  0.084085  0  1.007825  0
H  H148  1  0.84211465  0.27569391  0.97455463  1  0.059711  0  0.089888  0.138541  0  1.030467  0
H  H149  1  0.15784172  0.22430950  0.47454624  1  0.038791  0  0.089879  0.138588  0  1.030382  0
H  H150  1  0.15787488  0.72431095  0.02544773  1  0.059603  0  0.089877  0.138528  0  1.030433  0
H  H151  1  0.84215091  0.77569923  0.52545246  1  0.038644  0  0.089817  0.138495  0  1.03043  0
H  H152  1  0.78756383  0.16134232  0.96740980  1  0.049146  0  0.090036  0.140263  0  1.029082  0
H  H153  1  0.21245411  0.33866430  0.46741024  1  0.049273  0  0.090053  0.140231  0  1.029084  0
H  H154  1  0.21243689  0.83866318  0.03258990  1  0.049127  0  0.090043  0.140225  0  1.029095  0
H  H155  1  0.78754713  0.66134249  0.53258980  1  0.049381  0  0.08997  0.140226  0  1.029007  0
H  H156  1  0.84288059  0.20551106  0.01952822  1  0.038922  0  0.09652  0.145821  0  0.997273  0
H  H157  1  0.15713027  0.29450431  0.51952646  1  0.039448  0  0.096544  0.145868  0  0.997377  0
H  H158  1  0.15711336  0.79449509  0.98047281  1  0.038889  0  0.096547  0.145818  0  0.997204  0
H  H159  1  0.84285820  0.70550378  0.48047191  1  0.040955  0  0.096473  0.145748  0  0.997387  0
H  H160  1  0.94083115  0.87431496  0.93295560  1  0.00968  0  0.09144  0.140755  0  1.001576  0
H  H161  1  0.05920757  0.62569297  0.43294278  1  0.009847  0  0.091344  0.140612  0  1.001672  0
H  H162  1  0.05920081  0.12569244  0.06705142  1  0.009838  0  0.09136  0.14065  0  1.001609  0
H  H163  1  0.94082961  0.37431378  0.56705260  1  0.009848  0  0.091363  0.140686  0  1.00148  0
H  H164  1  0.90895588  0.77095880  0.95969662  1  0.038551  0  0.085191  0.134406  0  1.050908  0
H  H165  1  0.09105274  0.72905365  0.45970791  1  0.038516  0  0.085262  0.134499  0  1.0507  0
H  H166  1  0.09105680  0.22904927  0.04030275  1  0.038655  0  0.085222  0.134434  0  1.050884  0
H  H167  1  0.90895140  0.27094670  0.54029578  1  0.038547  0  0.085203  0.134473  0  1.050768  0
H  H168  1  0.97502319  0.78835332  0.90693840  1  0.054736  0  0.095386  0.145782  0  0.991982  0
H  H169  1  0.02499024  0.71164235  0.40693052  1  0.054691  0  0.095401  0.14569  0  0.991905  0
H  H170  1  0.02498329  0.21164702  0.09306329  1  0.054768  0  0.09538  0.145771  0  0.992014  0
H  H171  1  0.97501367  0.28835349  0.59306952  1  0.054758  0  0.095426  0.145796  0  0.991817  0
H  H172  1  0.70174401  0.29275061  0.77237374  1  0.023614  0  0.08559  0.131015  0  1.033635  0
H  H173  1  0.29822327  0.20721769  0.27238823  1  0.02304  0  0.085585  0.13118  0  1.033659  0
H  H174  1  0.29824532  0.70724395  0.22762663  1  0.023346  0  0.08548  0.130837  0  1.033849  0
H  H175  1  0.70176053  0.79278654  0.72761313  1  0.022636  0  0.085605  0.1312  0  1.033569  0
H  H176  1  0.81487578  0.30924385  0.73502875  1  0.062058  0  0.102268  0.159132  0  0.977639  0
H  H177  1  0.18509748  0.19073645  0.23502092  1  0.061465  0  0.102228  0.159186  0  0.977412  0
H  H178  1  0.18511513  0.69074878  0.26497195  1  0.06186  0  0.102199  0.159028  0  0.977622  0
H  H179  1  0.81489493  0.80926584  0.76498011  1  0.061148  0  0.102242  0.159254  0  0.977352  0
H  H180  1  0.76167673  0.20856426  0.76276378  1  0.033976  0  0.08935  0.137118  0  1.020684  0
H  H181  1  0.23833590  0.29143778  0.26274257  1  0.034623  0  0.089387  0.137211  0  1.02043  0
H  H182  1  0.23831884  0.79143223  0.23723626  1  0.03396  0  0.089386  0.137156  0  1.020583  0
H  H183  1  0.76164946  0.70856645  0.73726046  1  0.034872  0  0.089292  0.137168  0  1.020663  0
H  H184  1  0.22527117  0.25069487  0.64281434  1  0.023613  0  0.084652  0.080211  0  1.013214  0
H  H185  1  0.77472108  0.24932142  0.14281586  1  0.023605  0  0.084653  0.080276  0  1.013154  0
H  H186  1  0.77473587  0.74930097  0.35718935  1  0.02358  0  0.084679  0.080246  0  1.0132  0
H  H187  1  0.22529066  0.75067248  0.85718151  1  0.023592  0  0.084662  0.080324  0  1.013162  0
H  H188  1  0.20919575  0.22785900  0.58489131  1  0.054744  0  0.095938  0.103628  0  1.001941  0
H  H189  1  0.79081568  0.27213263  0.08488669  1  0.055085  0  0.095973  0.103648  0  1.002014  0
H  H190  1  0.79080715  0.77213233  0.41510905  1  0.054719  0  0.095891  0.103576  0  1.00202  0
H  H191  1  0.20918199  0.72786321  0.91511367  1  0.04207  0  0.09599  0.10373  0  1.00187  0
H  H192  1  0.29024244  0.33290306  0.60310576  1  0.02087  0  0.082753  0.075561  0  1.007305  0
H  H193  1  0.70976514  0.16707070  0.10309722  1  0.020272  0  0.082857  0.075704  0  1.006945  0
H  H194  1  0.70976324  0.66710115  0.39689360  1  0.020394  0  0.082764  0.075547  0  1.007357  0
H  H195  1  0.29024182  0.83293672  0.89690314  1  0.020269  0  0.082861  0.075784  0  1.006829  0
H  H196  1  0.28990438  0.50679262  0.82039172  1  0.011214  0  0.083479  0.129  0  1.024269  0
H  H197  1  0.71011967  0.99321467  0.32037786  1  0.010629  0  0.083364  0.12888  0  1.024348  0
H  H198  1  0.71009087  0.49321288  0.17961430  1  0.011184  0  0.083495  0.128993  0  1.02421  0
H  H199  1  0.28987976  0.00678955  0.67961918  1  0.010669  0  0.083451  0.128992  0  1.024277  0
H  H200  1  0.21707351  0.46647508  0.87092090  1  0.06896  0  0.090064  0.136759  0  1.054735  0
H  H201  1  0.78292446  0.03351775  0.37092161  1  0.068818  0  0.090093  0.136773  0  1.054751  0
H  H202  1  0.78291475  0.53352464  0.12908113  1  0.069106  0  0.090092  0.136768  0  1.054777  0
H  H203  1  0.21706821  0.96648518  0.62908075  1  0.068891  0  0.090059  0.136737  0  1.054845  0
H  H204  1  0.24346996  0.57647036  0.85581196  1  0.076218  0  0.100583  0.162254  0  0.985268  0
H  H205  1  0.75647624  0.92350780  0.35582378  1  0.075197  0  0.1006  0.162287  0  0.985311  0
H  H206  1  0.75649436  0.42352616  0.14418308  1  0.075272  0  0.100632  0.162323  0  0.985277  0
H  H207  1  0.24349953  0.07648999  0.64418191  1  0.076156  0  0.100585  0.162335  0  0.985301  0
C  C208  1  0.35343035  0.34571901  0.71121344  1  0.45242  0  0.0529  0.094235  0  3.959801  0
C  C209  1  0.64658973  0.15427065  0.21121091  1  0.450359  0  0.053008  0.094552  0  3.95937  0
C  C210  1  0.64657253  0.65427426  0.28878360  1  0.452  0  0.05289  0.094365  0  3.959451  0
C  C211  1  0.35340610  0.84572649  0.78879212  1  0.450485  0  0.052919  0.094342  0  3.959164  0
C  C212  1  0.29902816  0.35684489  0.74970742  1  0.019307  0  -0.077856  -0.174816  0  3.931365  0
C  C213  1  0.70098493  0.14313974  0.24970617  1  0.019095  0  -0.078071  -0.175175  0  3.931386  0
C  C214  1  0.70097366  0.64315160  0.25028928  1  0.017776  0  -0.077789  -0.174782  0  3.931308  0
C  C215  1  0.29901298  0.85685868  0.75029420  1  0.02101  0  -0.078014  -0.174958  0  3.931329  0
C  C216  1  0.27716901  0.29377664  0.78287506  1  -0.061809  0  0.021543  0.148371  0  3.974015  0
C  C217  1  0.72283486  0.20621830  0.28287012  1  -0.059495  0  0.021782  0.148767  0  3.973671  0
C  C218  1  0.72283748  0.70622371  0.21712364  1  -0.06022  0  0.021575  0.148412  0  3.974107  0
C  C219  1  0.27717190  0.79377882  0.71713091  1  -0.060749  0  0.02173  0.148491  0  3.973847  0
C  C220  1  0.30868804  0.22015421  0.77464156  1  0.021568  0  -0.080329  -0.181632  0  3.95097  0
C  C221  1  0.69132026  0.27985183  0.27464500  1  -0.017204  0  -0.080298  -0.181804  0  3.950689  0
C  C222  1  0.69131561  0.77984098  0.22535681  1  -0.016987  0  -0.080397  -0.181704  0  3.951043  0
C  C223  1  0.30869222  0.72014787  0.72535603  1  -0.016963  0  -0.080372  -0.181848  0  3.950709  0
C  C224  1  0.36364572  0.21392145  0.73570829  1  0.480072  0  0.050813  0.095366  0  3.955492  0
C  C225  1  0.63637457  0.28608063  0.23570461  1  0.480478  0  0.050906  0.095613  0  3.955261  0
C  C226  1  0.63635948  0.78607567  0.26428841  1  0.480114  0  0.050939  0.095621  0  3.955189  0
C  C227  1  0.36363372  0.71392229  0.76429842  1  0.480517  0  0.050846  0.095588  0  3.955238  0
C  C228  1  0.04421848  0.27615975  0.78824879  1  -0.059519  0  -0.240373  -0.408336  0  3.986293  0
C  C229  1  0.95578385  0.22383789  0.28825552  1  -0.059445  0  -0.240365  -0.408198  0  3.986085  0
C  C230  1  0.95578152  0.72383802  0.21175057  1  -0.059343  0  -0.24038  -0.408247  0  3.986174  0
C  C231  1  0.04422108  0.77616246  0.71174285  1  -0.059731  0  -0.240362  -0.408137  0  3.986073  0
C  C232  1  0.22701777  0.30150689  0.82654589  1  -0.066453  0  -0.018799  -0.081241  0  3.97616  0
C  C233  1  0.77297860  0.19848253  0.32654338  1  -0.066749  0  -0.018736  -0.081285  0  3.97623  0
C  C234  1  0.77298353  0.69849024  0.17345314  1  -0.066451  0  -0.018854  -0.081343  0  3.976253  0
C  C235  1  0.22702533  0.80150945  0.67345499  1  -0.067156  0  -0.018802  -0.081298  0  3.976263  0
C  C236  1  0.11337728  0.28904715  0.82981597  1  0.012068  0  -0.006914  0.082301  0  3.956948  0
C  C237  1  0.88661771  0.21094195  0.32981862  1  0.01225  0  -0.007151  0.081905  0  3.957133  0
C  C238  1  0.88661961  0.71094676  0.17018373  1  0.011727  0  -0.006942  0.082242  0  3.956964  0
C  C239  1  0.11338541  0.78905582  0.67017942  1  0.012142  0  -0.007163  0.081825  0  3.957239  0
C  C240  1  0.06643072  0.28747391  0.87226183  1  -0.031861  0  -0.010615  -0.036073  0  3.954805  0
C  C241  1  0.93356906  0.21253103  0.37226522  1  -0.032711  0  -0.010347  -0.035476  0  3.954385  0
C  C242  1  0.93356874  0.71252451  0.12773787  1  -0.031801  0  -0.010587  -0.036019  0  3.954899  0
C  C243  1  0.06643249  0.78746674  0.62773282  1  -0.031987  0  -0.010289  -0.035329  0  3.9542  0
C  C244  1  0.13145350  0.29528767  0.91092190  1  0.029516  0  -0.005112  0.081564  0  3.970247  0
C  C245  1  0.86855466  0.20471157  0.41092712  1  0.029896  0  -0.005367  0.081017  0  3.970521  0
C  C246  1  0.86854647  0.70471204  0.08907846  1  0.029563  0  -0.005177  0.081394  0  3.970373  0
C  C247  1  0.13145105  0.79528877  0.58907125  1  0.029462  0  -0.005397  0.080934  0  3.970473  0
C  C248  1  0.24432276  0.30671074  0.90673415  1  -0.036848  0  -0.012579  -0.066856  0  3.952508  0
C  C249  1  0.75568366  0.19328118  0.40674149  1  -0.036992  0  -0.012301  -0.06634  0  3.951558  0
C  C250  1  0.75567695  0.69329025  0.09326622  1  -0.036896  0  -0.012511  -0.066739  0  3.952501  0
C  C251  1  0.24432181  0.80671466  0.59325654  1  -0.037488  0  -0.01238  -0.066489  0  3.951653  0
C  C252  1  0.29423115  0.31384061  0.86453744  1  -0.000944  0  -0.005056  0.097898  0  3.956886  0
C  C253  1  0.70577866  0.18615992  0.36453886  1  -0.000485  0  -0.005161  0.097709  0  3.956765  0
C  C254  1  0.70576985  0.68616167  0.13546226  1  -0.000871  0  -0.005082  0.097835  0  3.956931  0
C  C255  1  0.29422681  0.81383592  0.63545985  1  -0.000576  0  -0.005077  0.097782  0  3.956694  0
C  C256  1  0.07936783  0.29047620  0.95606729  1  -0.075841  0  -0.239258  -0.416323  0  3.973563  0
C  C257  1  0.92063680  0.20951930  0.45607289  1  -0.070181  0  -0.239098  -0.415841  0  3.973481  0
C  C258  1  0.92063296  0.70951771  0.04393341  1  -0.076335  0  -0.239212  -0.416173  0  3.973418  0
C  C259  1  0.07936866  0.79047847  0.54392581  1  -0.070309  0  -0.239024  -0.415711  0  3.973355  0
C  C260  1  0.41727750  0.33903694  0.86067230  1  -0.128387  0  -0.249917  -0.425759  0  3.964969  0
C  C261  1  0.58272923  0.16096461  0.36067413  1  -0.12839  0  -0.249989  -0.425722  0  3.96502  0
C  C262  1  0.58272090  0.66096470  0.13932740  1  -0.128303  0  -0.249853  -0.425608  0  3.964918  0
C  C263  1  0.41727701  0.83903316  0.63932324  1  -0.128673  0  -0.249897  -0.425637  0  3.964886  0
C  C264  1  0.45257848  0.37025112  0.00039639  1  0.401777  0  0.04741  0.077455  0  3.955613  0
C  C265  1  0.54742606  0.12973714  0.50039327  1  0.401773  0  0.047287  0.077431  0  3.955853  0
C  C266  1  0.54740824  0.62974474  0.99960930  1  0.4015  0  0.04736  0.077523  0  3.955491  0
C  C267  1  0.45257264  0.87025935  0.49960377  1  0.401733  0  0.047244  0.077347  0  3.956047  0
C  C268  1  0.38850258  0.22094130  0.99629456  1  0.447383  0  0.060392  0.108688  0  3.924186  0
C  C269  1  0.61149594  0.27904708  0.49629535  1  0.447568  0  0.060428  0.108448  0  3.924222  0
C  C270  1  0.61148570  0.77905455  0.00370847  1  0.447477  0  0.060391  0.108629  0  3.924245  0
C  C271  1  0.38849859  0.72094877  0.50369936  1  0.447847  0  0.060472  0.108624  0  3.924301  0
C  C272  1  0.31586003  0.22427955  0.96247094  1  -0.033882  0  -0.075756  -0.169371  0  3.919237  0
C  C273  1  0.68414281  0.27572370  0.46247139  1  -0.034131  0  -0.075721  -0.169235  0  3.919144  0
C  C274  1  0.68413837  0.77572209  0.03753009  1  -0.034106  0  -0.075705  -0.169257  0  3.919038  0
C  C275  1  0.31585952  0.72427407  0.53752564  1  -0.034299  0  -0.075785  -0.169464  0  3.919227  0
C  C276  1  0.31330032  0.30417111  0.94636137  1  -0.015072  0  0.020427  0.143701  0  3.967009  0
C  C277  1  0.68670687  0.19583113  0.44636747  1  -0.014979  0  0.020297  0.143511  0  3.966841  0
C  C278  1  0.68669783  0.69582989  0.05364000  1  -0.014987  0  0.020442  0.143759  0  3.967012  0
C  C279  1  0.31329470  0.80416471  0.55362990  1  -0.014687  0  0.020214  0.143614  0  3.967112  0
C  C280  1  0.38255852  0.37846085  0.96651343  1  -0.026388  0  -0.081931  -0.175701  0  3.897522  0
C  C281  1  0.61744330  0.12153299  0.46651547  1  -0.026102  0  -0.081851  -0.175668  0  3.897604  0
C  C282  1  0.61743573  0.62153822  0.03349093  1  -0.025858  0  -0.081907  -0.175878  0  3.897633  0
C  C283  1  0.38255356  0.87846478  0.53348057  1  -0.026575  0  -0.081865  -0.175759  0  3.897922  0
C  C284  1  0.78749968  0.32202525  0.88320814  1  -0.050578  0  -0.015291  -0.0746  0  3.956318  0
C  C285  1  0.21250202  0.17797605  0.38320384  1  -0.050987  0  -0.015369  -0.074616  0  3.956206  0
C  C286  1  0.21250058  0.67797124  0.11679356  1  -0.050598  0  -0.015269  -0.074449  0  3.956154  0
C  C287  1  0.78750240  0.82202108  0.61679419  1  -0.051173  0  -0.015265  -0.074515  0  3.9562  0
C  C288  1  0.71624503  0.23674691  0.88248955  1  0.017608  0  -0.002997  0.100556  0  3.950261  0
C  C289  1  0.28375244  0.26325768  0.38248334  1  0.018647  0  -0.002966  0.100638  0  3.95023  0
C  C290  1  0.28375628  0.76324829  0.11751015  1  0.017684  0  -0.002994  0.100554  0  3.95036  0
C  C291  1  0.71624989  0.73674009  0.61751703  1  0.019045  0  -0.003041  0.100589  0  3.950322  0
C  C292  1  0.76101242  0.16867473  0.87831083  1  -0.0539  0  -0.012472  -0.067013  0  3.96229  0
C  C293  1  0.23898535  0.33132962  0.37830797  1  -0.054628  0  -0.012456  -0.066977  0  3.962346  0
C  C294  1  0.23898837  0.83132111  0.12168687  1  -0.054096  0  -0.012521  -0.067248  0  3.962538  0
C  C295  1  0.76101517  0.66866751  0.62169173  1  -0.054626  0  -0.0124  -0.066972  0  3.962461  0
C  C296  1  0.87576823  0.18499660  0.87599134  1  0.070217  0  -0.005988  0.079409  0  3.954824  0
C  C297  1  0.12423047  0.31500669  0.37599107  1  0.070286  0  -0.005971  0.079536  0  3.954484  0
C  C298  1  0.12423205  0.81499795  0.12400636  1  0.069993  0  -0.006087  0.079286  0  3.954832  0
C  C299  1  0.87577031  0.68499108  0.62400664  1  0.070276  0  -0.006016  0.079432  0  3.954486  0
C  C300  1  0.94531530  0.27065656  0.87669361  1  -0.081251  0  -0.012535  -0.04089  0  3.966932  0
C  C301  1  0.05468318  0.22934602  0.37669063  1  -0.081552  0  -0.01268  -0.041138  0  3.967074  0
C  C302  1  0.05468211  0.72933864  0.12330743  1  -0.081268  0  -0.012434  -0.040622  0  3.966845  0
C  C303  1  0.94531863  0.77065240  0.62330774  1  -0.081323  0  -0.012701  -0.041166  0  3.967069  0
C  C304  1  0.90202665  0.33984658  0.88002250  1  0.00084  0  -0.006933  0.081198  0  3.969222  0
C  C305  1  0.09796915  0.16015439  0.38002185  1  0.001007  0  -0.006825  0.081202  0  3.969078  0
C  C306  1  0.09797076  0.66014862  0.11998020  1  0.000564  0  -0.006921  0.081112  0  3.968999  0
C  C307  1  0.90203344  0.83984402  0.61997685  1  0.000765  0  -0.006868  0.081181  0  3.969176  0
C  C308  1  0.59415710  0.22073940  0.88451783  1  -0.057034  0  -0.243051  -0.413033  0  3.974178  0
C  C309  1  0.40583785  0.27926822  0.38451614  1  -0.056051  0  -0.243081  -0.413202  0  3.974273  0
C  C310  1  0.40584290  0.77925645  0.11548221  1  -0.057074  0  -0.243065  -0.412912  0  3.974185  0
C  C311  1  0.59416448  0.72072955  0.61548356  1  -0.056234  0  -0.243079  -0.413201  0  3.974144  0
C  C312  1  0.92460756  0.11224443  0.87262828  1  -0.118687  0  -0.239934  -0.410398  0  3.977331  0
C  C313  1  0.07538757  0.38775854  0.37263080  1  -0.118497  0  -0.239869  -0.410368  0  3.97717  0
C  C314  1  0.07539087  0.88775334  0.12736776  1  -0.118524  0  -0.239905  -0.410318  0  3.977165  0
C  C315  1  0.92461683  0.61224245  0.62736924  1  -0.118466  0  -0.239924  -0.410461  0  3.977133  0
C  C316  1  0.97873222  0.43084019  0.87911694  1  -0.051504  0  -0.24015  -0.412665  0  3.979344  0
C  C317  1  0.02126798  0.06915635  0.37911631  1  -0.05179  0  -0.240158  -0.412732  0  3.979085  0
C  C318  1  0.02127012  0.56915565  0.12088509  1  -0.051376  0  -0.240144  -0.412693  0  3.979137  0
C  C319  1  0.97873383  0.93084206  0.62088240  1  -0.051483  0  -0.240119  -0.412704  0  3.979151  0
C  C320  1  0.68224932  0.50196083  0.92399983  1  0.476529  0  0.053029  0.099872  0  3.944945  0
C  C321  1  0.31776053  0.99804736  0.42399983  1  0.476638  0  0.053051  0.099864  0  3.944807  0
C  C322  1  0.31775870  0.49804338  0.07600220  1  0.478872  0  0.053123  0.099934  0  3.944916  0
C  C323  1  0.68224857  0.00195170  0.57599721  1  0.47699  0  0.053225  0.099947  0  3.945185  0
C  C324  1  0.71949996  0.43041822  0.92518786  1  -0.039095  0  -0.077475  -0.174624  0  3.894005  0
C  C325  1  0.28049489  0.06958351  0.42519224  1  -0.039365  0  -0.077423  -0.174515  0  3.89362  0
C  C326  1  0.28050576  0.56958020  0.07481351  1  -0.038664  0  -0.077463  -0.17453  0  3.893985  0
C  C327  1  0.71950537  0.93041297  0.57480646  1  -0.039101  0  -0.077357  -0.174276  0  3.893614  0
C  C328  1  0.74041299  0.39477642  0.88498272  1  -0.00559  0  0.020749  0.142776  0  3.97281  0
C  C329  1  0.25959143  0.10522148  0.38497826  1  -0.005652  0  0.020817  0.142615  0  3.972508  0
C  C330  1  0.25959091  0.60522135  0.11502098  1  -0.006557  0  0.020833  0.14274  0  3.972624  0
C  C331  1  0.74041015  0.89477243  0.61501944  1  -0.006179  0  0.020746  0.142579  0  3.972744  0
C  C332  1  0.71803403  0.43156982  0.84542787  1  0.035243  0  -0.080766  -0.181005  0  3.934398  0
C  C333  1  0.28197310  0.06844416  0.34541767  1  0.03564  0  -0.080625  -0.180563  0  3.933665  0
C  C334  1  0.28196571  0.56842731  0.15457749  1  0.036514  0  -0.080741  -0.180938  0  3.934397  0
C  C335  1  0.71803548  0.93155554  0.65457870  1  0.035353  0  -0.080683  -0.180819  0  3.933908  0
C  C336  1  0.67804846  0.50143997  0.84690608  1  0.411435  0  0.053649  0.105949  0  3.922926  0
C  C337  1  0.32196164  0.99856927  0.34690648  1  0.412519  0  0.05361  0.10591  0  3.923035  0
C  C338  1  0.32195178  0.49855845  0.15309728  1  0.411392  0  0.053543  0.105739  0  3.922869  0
C  C339  1  0.67804304  0.00142850  0.65309090  1  0.412559  0  0.053567  0.105741  0  3.922943  0
C  C340  1  0.55394876  0.94819574  0.89951815  1  0.492909  0  0.047067  0.103241  0  3.946356  0
C  C341  1  0.44604313  0.55180840  0.39951725  1  0.493114  0  0.046962  0.103097  0  3.946668  0
C  C342  1  0.44605487  0.05180332  0.10048089  1  0.492918  0  0.046981  0.103099  0  3.946403  0
C  C343  1  0.55395740  0.44818680  0.60048279  1  0.492803  0  0.046902  0.10304  0  3.946614  0
C  C344  1  0.62097122  0.03218094  0.90784383  1  -0.032502  0  -0.083389  -0.180797  0  3.908238  0
C  C345  1  0.37902345  0.46782440  0.40783720  1  -0.032324  0  -0.08346  -0.180784  0  3.908641  0
C  C346  1  0.37902930  0.96781618  0.09215587  1  -0.032417  0  -0.083348  -0.180782  0  3.908332  0
C  C347  1  0.62097891  0.53216950  0.59216183  1  -0.03228  0  -0.083418  -0.180802  0  3.908404  0
C  C348  1  0.68742377  0.07872676  0.87343672  1  -0.061516  0  0.011656  0.123874  0  3.998925  0
C  C349  1  0.31257375  0.42127613  0.37343249  1  -0.062336  0  0.011648  0.123744  0  3.999047  0
C  C350  1  0.31257911  0.92126843  0.12656032  1  -0.061689  0  0.011646  0.124053  0  3.999021  0
C  C351  1  0.68742678  0.57871907  0.62656788  1  -0.062238  0  0.011664  0.123925  0  3.998921  0
C  C352  1  0.68305684  0.03771762  0.83224554  1  -0.055557  0  -0.085551  -0.17822  0  3.955103  0
C  C353  1  0.31693993  0.46229700  0.33224338  1  -0.054222  0  -0.085418  -0.177808  0  3.955222  0
C  C354  1  0.31694499  0.96227886  0.16775283  1  -0.055341  0  -0.085625  -0.178419  0  3.955158  0
C  C355  1  0.68306321  0.53769691  0.66775566  1  -0.05425  0  -0.085529  -0.178069  0  3.955398  0
C  C356  1  0.61399437  0.95406592  0.82689985  1  0.502419  0  0.041347  0.098957  0  3.987043  0
C  C357  1  0.38599849  0.54594399  0.32689713  1  0.502162  0  0.041188  0.098764  0  3.987652  0
C  C358  1  0.38600771  0.04593121  0.17309918  1  0.502374  0  0.041365  0.099036  0  3.986987  0
C  C359  1  0.61400698  0.45405185  0.67310190  1  0.502233  0  0.041282  0.098843  0  3.987587  0
C  C360  1  0.79578783  0.21487924  0.99034538  1  -0.083785  0  -0.250334  -0.518116  0  3.919948  0
C  C361  1  0.20419499  0.28511231  0.49034377  1  -0.063555  0  -0.25032  -0.518081  0  3.920147  0
C  C362  1  0.20420562  0.78512369  0.00965565  1  -0.083624  0  -0.25037  -0.518017  0  3.919916  0
C  C363  1  0.79579714  0.71489320  0.50965659  1  -0.064975  0  -0.250127  -0.517893  0  3.919846  0
C  C364  1  0.68458491  0.21689355  0.00675584  1  1.539805  0  0.189939  0.659516  0  4.177607  0
C  C365  1  0.31540044  0.28309411  0.50675711  1  1.539205  0  0.189654  0.659218  0  4.178162  0
C  C366  1  0.31540364  0.78310102  0.99324287  1  1.539105  0  0.18997  0.659471  0  4.177921  0
C  C367  1  0.68458783  0.71690368  0.49324425  1  1.539258  0  0.189886  0.659592  0  4.177642  0
C  C368  1  0.91365259  0.80440111  0.92790386  1  -0.055733  0  -0.248606  -0.509678  0  3.911097  0
C  C369  1  0.08636677  0.69561827  0.42790785  1  -0.05574  0  -0.248575  -0.509432  0  3.910665  0
C  C370  1  0.08635982  0.19561017  0.07209850  1  -0.055709  0  -0.248535  -0.509524  0  3.911088  0
C  C371  1  0.91364617  0.30439044  0.57209252  1  -0.055889  0  -0.248601  -0.50964  0  3.91054  0
C  C372  1  0.80412384  0.77763648  0.90277989  1  1.581445  0  0.197602  0.67224  0  4.137151  0
C  C373  1  0.19589941  0.72237698  0.40277819  1  1.581815  0  0.197457  0.671665  0  4.137397  0
C  C374  1  0.19588485  0.22238512  0.09722513  1  1.577954  0  0.197415  0.67193  0  4.137258  0
C  C375  1  0.80411372  0.27764204  0.59722151  1  1.58203  0  0.197501  0.671887  0  4.137438  0
C  C376  1  0.73943684  0.26176637  0.74749797  1  -0.06838  0  -0.245897  -0.506123  0  3.888106  0
C  C377  1  0.26054576  0.23820305  0.24749917  1  -0.06746  0  -0.245741  -0.506401  0  3.887541  0
C  C378  1  0.26055537  0.73822755  0.25250173  1  -0.067355  0  -0.245671  -0.505798  0  3.88802  0
C  C379  1  0.73944272  0.76180311  0.75250286  1  -0.067094  0  -0.245757  -0.506551  0  3.887624  0
C  C380  1  0.66359647  0.22993936  0.70784829  1  1.600006  0  0.209172  0.703472  0  4.135125  0
C  C381  1  0.33640718  0.27002745  0.20784807  1  1.599189  0  0.209292  0.703774  0  4.134308  0
C  C382  1  0.33640485  0.77005390  0.29215041  1  1.598775  0  0.209178  0.703504  0  4.135161  0
C  C383  1  0.66358833  0.72997870  0.79215695  1  1.59914  0  0.209249  0.703873  0  4.134354  0
C  C384  1  0.26767045  0.26325266  0.61039171  1  0.426582  0  -0.168004  -0.135505  0  4.042999  0
C  C385  1  0.73234426  0.23672554  0.11038693  1  0.426958  0  -0.168084  -0.135783  0  4.042793  0
C  C386  1  0.73233028  0.73675091  0.38960833  1  0.427114  0  -0.168054  -0.135507  0  4.0431  0
C  C387  1  0.26765151  0.76327932  0.88961410  1  0.439817  0  -0.168077  -0.135995  0  4.042543  0
C  C388  1  0.27649864  0.52183915  0.85503851  1  -0.085576  0  -0.250488  -0.514932  0  3.896598  0
C  C389  1  0.72349996  0.97816480  0.35503169  1  -0.084136  0  -0.250429  -0.514826  0  3.896513  0
C  C390  1  0.72348855  0.47816572  0.14496551  1  -0.084778  0  -0.250506  -0.514888  0  3.896644  0
C  C391  1  0.27649269  0.02184007  0.64496767  1  -0.085141  0  -0.2505  -0.515042  0  3.896636  0
C  C392  1  0.38300638  0.54915730  0.88112540  1  1.502168  0  0.198574  0.672459  0  4.159925  0
C  C393  1  0.61698116  0.95087954  0.38111169  1  1.502909  0  0.198673  0.672696  0  4.160093  0
C  C394  1  0.61697885  0.45086625  0.11888062  1  1.50273  0  0.198444  0.672273  0  4.160214  0
C  C395  1  0.38300803  0.04913627  0.61888336  1  1.502565  0  0.198521  0.67255  0  4.159708  0
N  N396  1  0.38637943  0.27621532  0.70457737  1  -1.215737  0  -0.35236  -0.224154  0  3.654117  0
N  N397  1  0.61363844  0.22378013  0.20457268  1  -1.2148  0  -0.352461  -0.224522  0  3.65379  0
N  N398  1  0.61362475  0.72377923  0.29542033  1  -1.215362  0  -0.352421  -0.224454  0  3.654078  0
N  N399  1  0.38636206  0.77621893  0.79543235  1  -1.215084  0  -0.352369  -0.224343  0  3.653545  0
N  N400  1  0.45656614  0.29306687  0.01441233  1  -1.186053  0  -0.350348  -0.216633  0  3.679844  0
N  N401  1  0.54343528  0.20691617  0.51441228  1  -1.186846  0  -0.350245  -0.216235  0  3.679566  0
N  N402  1  0.54341722  0.70692642  0.98559269  1  -1.186775  0  -0.350361  -0.216465  0  3.679609  0
N  N403  1  0.45655404  0.79308033  0.48558243  1  -1.185969  0  -0.35021  -0.216135  0  3.679764  0
N  N404  1  0.66184194  0.53675717  0.88567217  1  -1.192919  0  -0.34025  -0.230823  0  3.61284  0
N  N405  1  0.33816693  0.96324379  0.38567432  1  -1.193454  0  -0.340337  -0.230997  0  3.612692  0
N  N406  1  0.33816193  0.46324446  0.11432986  1  -1.192989  0  -0.340268  -0.230693  0  3.612697  0
N  N407  1  0.66183774  0.03675591  0.61432238  1  -1.193147  0  -0.340324  -0.23089  0  3.612671  0
N  N408  1  0.54973293  0.90959167  0.85972079  1  -1.220997  0  -0.331126  -0.276512  0  3.506614  0
N  N409  1  0.45024769  0.59041120  0.35971903  1  -1.221021  0  -0.330973  -0.276504  0  3.506731  0
N  N410  1  0.45026680  0.09040546  0.14027891  1  -1.220984  0  -0.331046  -0.276405  0  3.506456  0
N  N411  1  0.54975156  0.40958078  0.64028101  1  -1.221062  0  -0.330931  -0.276377  0  3.506628  0
O  O412  1  0.59521909  0.27223903  0.70103352  1  -1.131073  0  -0.333474  -0.573886  0  2.36897  0
O  O413  1  0.40474898  0.22769693  0.20102951  1  -1.130332  0  -0.333663  -0.574197  0  2.368608  0
O  O414  1  0.40478224  0.72775424  0.29896518  1  -1.130753  0  -0.333446  -0.573871  0  2.369027  0
O  O415  1  0.59524989  0.77231180  0.79897318  1  -1.130024  0  -0.333612  -0.574189  0  2.368689  0
O  O416  1  0.67406586  0.16795695  0.68579376  1  -1.178505  0  -0.328664  -0.591644  0  2.263054  0
O  O417  1  0.32599894  0.33203319  0.18579966  1  -1.178996  0  -0.328774  -0.591694  0  2.262647  0
O  O418  1  0.32593468  0.83203631  0.31420427  1  -1.178135  0  -0.328785  -0.59177  0  2.262999  0
O  O419  1  0.67400123  0.66797682  0.81420836  1  -1.179035  0  -0.32867  -0.591646  0  2.262624  0
O  O420  1  0.35989682  0.23295964  0.61109173  1  -0.991449  0  -0.395053  -0.470389  0  2.544462  0
O  O421  1  0.64011533  0.26701786  0.11108042  1  -0.991487  0  -0.395081  -0.470305  0  2.544779  0
O  O422  1  0.64010444  0.76704329  0.38890597  1  -0.991507  0  -0.395004  -0.470414  0  2.544398  0
O  O423  1  0.35987864  0.73298443  0.88892694  1  -0.99139  0  -0.395095  -0.470241  0  2.545014  0
O  O424  1  0.54303945  0.22471895  0.60571268  1  -0.826461  0  -0.533103  -0.771735  0  2.264226  0
O  O425  1  0.45696748  0.27525650  0.10571664  1  -0.825762  0  -0.533139  -0.771772  0  2.264176  0
O  O426  1  0.45696125  0.77529042  0.39428170  1  -0.825701  0  -0.533042  -0.771558  0  2.264073  0
O  O427  1  0.54303473  0.72476059  0.89429204  1  -0.826593  0  -0.53302  -0.771526  0  2.264159  0
O  O428  1  0.47111346  0.57023505  0.85689372  1  -1.091824  0  -0.329099  -0.570308  0  2.321637  0
O  O429  1  0.52888646  0.92977967  0.35687389  1  -1.092336  0  -0.329282  -0.570676  0  2.321428  0
O  O430  1  0.52887907  0.42978721  0.14311397  1  -1.092462  0  -0.32915  -0.570472  0  2.321747  0
O  O431  1  0.47110903  0.07022841  0.64311816  1  -1.092483  0  -0.329042  -0.5705  0  2.321232  0
O  O432  1  0.38072898  0.55246501  0.92282688  1  -1.14513  0  -0.334985  -0.606475  0  2.203064  0
O  O433  1  0.61921521  0.94757684  0.42281399  1  -1.145253  0  -0.334804  -0.606358  0  2.20324  0
O  O434  1  0.61924071  0.44754696  0.07717880  1  -1.145113  0  -0.334827  -0.606225  0  2.203004  0
O  O435  1  0.38075211  0.05243899  0.57718205  1  -1.144728  0  -0.334869  -0.606308  0  2.202939  0
O  O436  1  0.73923862  0.70225828  0.91644552  1  -1.062432  0  -0.337793  -0.557071  0  2.271715  0
O  O437  1  0.26077762  0.79774612  0.41644079  1  -1.062867  0  -0.33783  -0.556862  0  2.272361  0
O  O438  1  0.26076429  0.29777040  0.08355951  1  -1.059393  0  -0.337743  -0.557096  0  2.271551  0
O  O439  1  0.73923705  0.20227675  0.58356490  1  -1.062425  0  -0.337972  -0.557115  0  2.272787  0
O  O440  1  0.68344397  0.29313994  0.01940067  1  -1.099567  0  -0.350238  -0.572953  0  2.262822  0
O  O441  1  0.31652907  0.20684328  0.51939680  1  -1.099602  0  -0.350088  -0.572713  0  2.262957  0
O  O442  1  0.31653342  0.70685012  0.98060302  1  -1.099237  0  -0.350239  -0.572894  0  2.26289  0
O  O443  1  0.68344644  0.79315388  0.48060855  1  -1.099252  0  -0.350196  -0.57288  0  2.262897  0
O  O444  1  0.78710465  0.82368660  0.87295058  1  -1.165561  0  -0.330649  -0.537688  0  2.060269  0
O  O445  1  0.21294658  0.67634131  0.37294767  1  -1.165577  0  -0.330534  -0.53742  0  2.060408  0
O  O446  1  0.21292298  0.17634528  0.12705245  1  -1.165466  0  -0.330508  -0.537437  0  2.060581  0
O  O447  1  0.78706956  0.32369508  0.62704837  1  -1.165964  0  -0.330426  -0.537405  0  2.059984  0
O  O448  1  0.60471478  0.14965116  0.00966207  1  -1.19599  0  -0.342096  -0.591263  0  2.074301  0
O  O449  1  0.39527910  0.35033169  0.50967581  1  -1.195476  0  -0.34203  -0.591315  0  2.074417  0
O  O450  1  0.39528397  0.85033759  0.99033130  1  -1.195638  0  -0.342099  -0.591288  0  2.074512  0
O  O451  1  0.60472093  0.64966029  0.49032056  1  -1.195708  0  -0.342133  -0.591512  0  2.074253  0
