# generated using pymatgen
data_Zn5H41C38(NO)13
_symmetry_space_group_name_H-M   'P 1'
_cell_length_a   15.33192774
_cell_length_b   19.30554344
_cell_length_c   25.37352491
_cell_angle_alpha   90.00006771
_cell_angle_beta   89.99999444
_cell_angle_gamma   89.99954548
_symmetry_Int_Tables_number   1
_chemical_formula_structural   Zn5H41C38(NO)13
_chemical_formula_sum   'Zn20 H164 C152 N52 O52'
_cell_volume   7510.34001057
_cell_formula_units_Z   4
loop_
 _symmetry_equiv_pos_site_id
 _symmetry_equiv_pos_as_xyz
  1  'x, y, z'
loop_
 _atom_site_type_symbol
 _atom_site_label
 _atom_site_symmetry_multiplicity
 _atom_site_fract_x
 _atom_site_fract_y
 _atom_site_fract_z
 _atom_site_occupancy
 _atom_site_pbe_bader_charge
 _atom_site_pbe_bader_spin_density
 _atom_site_pbe_cm5_charge
 _atom_site_pbe_ddec_charge
 _atom_site_pbe_ddec_spin_density
 _atom_site_pbe_ddec_sum_bond_order
 _atom_site_pbe_magmom
Zn  Zn0  1  0.46000143  0.66113394  0.51636724  1  1.238345  0  0.698985  0.76105  0  2.466919  0
Zn  Zn1  1  0.04000110  0.33886577  0.01636524  1  1.238354  0  0.698957  0.761007  0  2.467024  0
Zn  Zn2  1  0.95999899  0.83886885  0.48363161  1  1.238387  0  0.698965  0.760992  0  2.466997  0
Zn  Zn3  1  0.53999970  0.16113311  0.98363162  1  1.23844  0  0.698938  0.761004  0  2.467045  0
Zn  Zn4  1  0.44713849  0.84101288  0.51886717  1  1.261656  0  0.692371  0.775884  0  2.36651  0
Zn  Zn5  1  0.05286405  0.15898890  0.01886698  1  1.261697  0  0.692363  0.775794  0  2.366666  0
Zn  Zn6  1  0.94713784  0.65898688  0.48113168  1  1.261667  0  0.692323  0.775827  0  2.36666  0
Zn  Zn7  1  0.55286020  0.34100731  0.98113185  1  1.261938  0  0.692399  0.775886  0  2.366663  0
Zn  Zn8  1  0.32403118  0.74140244  0.44242958  1  1.207304  0  0.737134  0.727064  0  2.534765  0
Zn  Zn9  1  0.17596802  0.25859691  0.94242731  1  1.207257  0  0.737096  0.726945  0  2.534991  0
Zn  Zn10  1  0.82403084  0.75859913  0.55756967  1  1.207377  0  0.737115  0.727072  0  2.534753  0
Zn  Zn11  1  0.67597510  0.24140164  0.05756875  1  1.207522  0  0.737065  0.726917  0  2.534813  0
Zn  Zn12  1  0.03330669  0.04354553  0.79331865  1  1.289899  0  0.669368  0.83959  0  2.389448  0
Zn  Zn13  1  0.46669059  0.95645565  0.29331834  1  1.290009  0  0.669386  0.839623  0  2.389472  0
Zn  Zn14  1  0.53330572  0.45644873  0.20668097  1  1.289851  0  0.669335  0.839579  0  2.38942  0
Zn  Zn15  1  0.96668715  0.54354710  0.70668326  1  1.289854  0  0.669358  0.839601  0  2.389423  0
Zn  Zn16  1  0.98007796  0.97593788  0.70051245  1  1.287604  0  0.669817  0.840556  0  2.388066  0
Zn  Zn17  1  0.51992144  0.02406829  0.20051175  1  1.287704  0  0.669815  0.840565  0  2.387968  0
Zn  Zn18  1  0.48007463  0.52406582  0.29948718  1  1.287698  0  0.669829  0.840503  0  2.388236  0
Zn  Zn19  1  0.01992330  0.47593589  0.79948668  1  1.287728  0  0.66977  0.840507  0  2.388115  0
H  H20  1  0.62305694  0.59328609  0.53945741  1  0.074666  0  0.10565  0.153796  0  1.009601  0
H  H21  1  0.87694248  0.40671361  0.03945466  1  0.074608  0  0.105664  0.153798  0  1.009547  0
H  H22  1  0.12305693  0.90671468  0.46054263  1  0.074664  0  0.105651  0.153802  0  1.009581  0
H  H23  1  0.37693640  0.09328522  0.96054454  1  0.074787  0  0.10568  0.153833  0  1.009541  0
H  H24  1  0.71913670  0.61842523  0.57348541  1  0.078783  0  0.105236  0.155217  0  1.007009  0
H  H25  1  0.78086402  0.38157194  0.07348185  1  0.077438  0  0.105259  0.155197  0  1.006986  0
H  H26  1  0.21913435  0.88157131  0.42651424  1  0.078813  0  0.105277  0.155238  0  1.00699  0
H  H27  1  0.28085834  0.11842698  0.92651775  1  0.077386  0  0.105242  0.155188  0  1.006994  0
H  H28  1  0.71882429  0.61796106  0.50360430  1  0.121244  0  0.10883  0.16878  0  0.97953  0
H  H29  1  0.78117448  0.38203652  0.00360232  1  0.121352  0  0.108892  0.168855  0  0.979523  0
H  H30  1  0.21882583  0.88203859  0.49639495  1  0.12125  0  0.108838  0.168797  0  0.979498  0
H  H31  1  0.28117011  0.11796395  0.99639846  1  0.121056  0  0.108899  0.168852  0  0.979578  0
H  H32  1  0.70891415  0.89987442  0.50737213  1  0.074741  0  0.108092  0.173055  0  0.985151  0
H  H33  1  0.79108789  0.10012575  0.00737188  1  0.074784  0  0.108084  0.173056  0  0.985145  0
H  H34  1  0.20891981  0.60012529  0.49263185  1  0.074625  0  0.108069  0.173071  0  0.985165  0
H  H35  1  0.29108395  0.39987725  0.99262969  1  0.074674  0  0.108076  0.173032  0  0.985141  0
H  H36  1  0.71478231  0.89624545  0.57710032  1  0.046421  0  0.101428  0.151072  0  1.000006  0
H  H37  1  0.78521776  0.10375742  0.07709928  1  0.046468  0  0.101443  0.151121  0  0.99999  0
H  H38  1  0.21478338  0.60375267  0.42290602  1  0.046386  0  0.101424  0.151113  0  1.00008  0
H  H39  1  0.28522105  0.39624665  0.92290268  1  0.046384  0  0.101408  0.151049  0  1.000132  0
H  H40  1  0.61497868  0.92178400  0.54652161  1  0.158986  0  0.106031  0.173199  0  1.019082  0
H  H41  1  0.88502400  0.07821468  0.04652291  1  0.159008  0  0.106067  0.173256  0  1.019085  0
H  H42  1  0.11498131  0.57821527  0.45348198  1  0.158963  0  0.105986  0.173173  0  1.019063  0
H  H43  1  0.38502768  0.42178254  0.95347905  1  0.158925  0  0.106059  0.173186  0  1.019048  0
H  H44  1  0.52759541  0.97503886  0.46861682  1  0.04073  0  0.100501  0.1522  0  1.008893  0
H  H45  1  0.97240198  0.02496308  0.96861708  1  0.040437  0  0.100451  0.152114  0  1.008965  0
H  H46  1  0.02759921  0.52496095  0.53138481  1  0.040489  0  0.100472  0.152178  0  1.008943  0
H  H47  1  0.47239941  0.47503567  0.03138093  1  0.040663  0  0.100457  0.152146  0  1.008957  0
H  H48  1  0.52570093  0.01172069  0.40329989  1  0.144508  0  0.10864  0.16923  0  0.997977  0
H  H49  1  0.97429322  0.98828218  0.90330139  1  0.144584  0  0.108636  0.169232  0  0.99795  0
H  H50  1  0.02570335  0.48827880  0.59670130  1  0.14447  0  0.108637  0.169233  0  0.997969  0
H  H51  1  0.47429331  0.51171637  0.09669706  1  0.144696  0  0.108651  0.169291  0  0.997986  0
H  H52  1  0.59912017  0.94392266  0.41816736  1  0.100707  0  0.109006  0.165132  0  0.980081  0
H  H53  1  0.90087658  0.05607401  0.91817081  1  0.100669  0  0.109022  0.165143  0  0.980151  0
H  H54  1  0.09912039  0.55607774  0.58183347  1  0.100483  0  0.10905  0.165222  0  0.980114  0
H  H55  1  0.40087757  0.44392259  0.08182799  1  0.100658  0  0.109021  0.165154  0  0.980187  0
H  H56  1  0.27088825  0.79111830  0.33473113  1  0.012762  0  0.092856  0.127383  0  1.028775  0
H  H57  1  0.22910641  0.20887466  0.83473354  1  0.012834  0  0.092919  0.127408  0  1.028896  0
H  H58  1  0.77088381  0.70887895  0.66526773  1  0.012504  0  0.092859  0.127335  0  1.028882  0
H  H59  1  0.72910776  0.29112199  0.16526764  1  0.01277  0  0.092877  0.127388  0  1.028859  0
H  H60  1  0.35425340  0.81193637  0.28743026  1  0.088543  0  0.111478  0.174001  0  0.98076  0
H  H61  1  0.14574975  0.18806066  0.78743186  1  0.088745  0  0.111418  0.173925  0  0.98074  0
H  H62  1  0.85424916  0.68806242  0.71256741  1  0.088673  0  0.111427  0.173924  0  0.98075  0
H  H63  1  0.64574371  0.31193911  0.21256696  1  0.088598  0  0.111464  0.173962  0  0.980773  0
H  H64  1  0.27812175  0.87587111  0.30610566  1  0.117527  0  0.108273  0.166562  0  1.002902  0
H  H65  1  0.22188009  0.12412232  0.80610681  1  0.117519  0  0.108247  0.166495  0  1.002877  0
H  H66  1  0.77812207  0.62412713  0.69389202  1  0.117481  0  0.108234  0.166551  0  1.00291  0
H  H67  1  0.72187667  0.37587386  0.19389122  1  0.117684  0  0.108247  0.166535  0  1.002893  0
H  H68  1  0.61394481  0.54813267  0.41764302  1  0.077279  0  0.107971  0.164604  0  0.987638  0
H  H69  1  0.88605259  0.45186867  0.91764169  1  0.077231  0  0.107974  0.164575  0  0.987647  0
H  H70  1  0.11394630  0.95186660  0.58235821  1  0.077249  0  0.107972  0.164587  0  0.987669  0
H  H71  1  0.38605492  0.04813943  0.08235869  1  0.077739  0  0.107954  0.164615  0  0.987634  0
H  H72  1  0.54048082  0.47821205  0.41257235  1  0.130812  0  0.111217  0.174476  0  0.988066  0
H  H73  1  0.95952050  0.52179032  0.91257266  1  0.130699  0  0.11118  0.174393  0  0.988103  0
H  H74  1  0.04047877  0.02178786  0.58742608  1  0.130771  0  0.111238  0.17446  0  0.988086  0
H  H75  1  0.45952245  0.97821351  0.08742658  1  0.130829  0  0.111242  0.174519  0  0.988086  0
H  H76  1  0.54963469  0.52426413  0.47387801  1  0.072507  0  0.09923  0.140947  0  1.002715  0
H  H77  1  0.95036988  0.47573627  0.97387591  1  0.072638  0  0.099257  0.140979  0  1.002724  0
H  H78  1  0.04963072  0.97573296  0.52612244  1  0.07261  0  0.099239  0.140943  0  1.002687  0
H  H79  1  0.45037181  0.02427039  0.02612211  1  0.072627  0  0.099249  0.140995  0  1.002632  0
H  H80  1  0.26622144  0.67550541  0.33664015  1  0.031624  0  0.093325  0.12825  0  1.019272  0
H  H81  1  0.23378235  0.32449533  0.83663990  1  0.031565  0  0.093347  0.128248  0  1.019336  0
H  H82  1  0.76622498  0.82449239  0.66336067  1  0.03139  0  0.093348  0.128238  0  1.019277  0
H  H83  1  0.73378420  0.17550648  0.16336206  1  0.031535  0  0.093342  0.128253  0  1.01934  0
H  H84  1  0.30021103  0.59863927  0.30240286  1  0.148901  0  0.108004  0.171376  0  1.018506  0
H  H85  1  0.19979277  0.40136038  0.80240189  1  0.148904  0  0.10801  0.171377  0  1.018598  0
H  H86  1  0.80021249  0.90135417  0.69759994  1  0.149094  0  0.10803  0.171436  0  1.018408  0
H  H87  1  0.69978951  0.09864060  0.19759850  1  0.148997  0  0.108017  0.171368  0  1.018589  0
H  H88  1  0.35733457  0.67660580  0.29213786  1  0.097852  0  0.110886  0.172984  0  0.978104  0
H  H89  1  0.14267053  0.32339382  0.79213446  1  0.097641  0  0.110884  0.172891  0  0.978118  0
H  H90  1  0.85733681  0.82338986  0.70786336  1  0.097681  0  0.11086  0.1729  0  0.978098  0
H  H91  1  0.64266910  0.17660907  0.20786554  1  0.097769  0  0.110892  0.172908  0  0.978091  0
H  H92  1  0.78348222  0.08057093  0.86228541  1  0.13931  0  0.099785  0.108815  0  1.038532  0
H  H93  1  0.71651911  0.91942928  0.36228863  1  0.139057  0  0.099835  0.108807  0  1.038575  0
H  H94  1  0.28348084  0.41942901  0.13770867  1  0.139002  0  0.099794  0.10875  0  1.038602  0
H  H95  1  0.21651646  0.58057245  0.63771062  1  0.139014  0  0.099827  0.108741  0  1.038631  0
H  H96  1  0.69412825  0.97918398  0.72131367  1  0.056837  0  0.098659  0.109529  0  1.017886  0
H  H97  1  0.80587114  0.02079995  0.22131177  1  0.057506  0  0.098713  0.109511  0  1.017818  0
H  H98  1  0.19412626  0.52079976  0.27868598  1  0.057577  0  0.098708  0.109528  0  1.017933  0
H  H99  1  0.30587754  0.47919984  0.77868586  1  0.057406  0  0.098709  0.109535  0  1.017887  0
H  H100  1  0.50945556  0.04022844  0.84154882  1  0.10376  0  0.099145  0.112386  0  1.026843  0
H  H101  1  0.99054576  0.95975983  0.34154892  1  0.103805  0  0.099118  0.112262  0  1.026931  0
H  H102  1  0.00945508  0.45976234  0.15844527  1  0.103948  0  0.099138  0.11233  0  1.026938  0
H  H103  1  0.49054809  0.54024225  0.65844875  1  0.103779  0  0.099177  0.112348  0  1.026814  0
H  H104  1  0.24639945  0.92351012  0.63676214  1  0.115658  0  0.104452  0.116764  0  1.015979  0
H  H105  1  0.25359133  0.07649806  0.13675911  1  0.115601  0  0.104455  0.116724  0  1.015989  0
H  H106  1  0.74639443  0.57649505  0.36324302  1  0.115396  0  0.104496  0.116822  0  1.016068  0
H  H107  1  0.75359255  0.42349895  0.86324089  1  0.115493  0  0.104451  0.116755  0  1.015939  0
H  H108  1  0.27792465  0.11117347  0.72591140  1  0.076927  0  0.104062  0.114778  0  1.018126  0
H  H109  1  0.22207851  0.88883797  0.22591736  1  0.076888  0  0.104005  0.114647  0  1.018265  0
H  H110  1  0.77791717  0.38883790  0.27408386  1  0.076861  0  0.104013  0.114654  0  1.01825  0
H  H111  1  0.72208090  0.61116995  0.77409530  1  0.077012  0  0.104057  0.11464  0  1.018085  0
H  H112  1  0.47487541  0.04945318  0.61307407  1  0.073709  0  0.101956  0.115212  0  1.007785  0
H  H113  1  0.02512581  0.95053684  0.11307024  1  0.073664  0  0.102078  0.115357  0  1.007597  0
H  H114  1  0.97486600  0.45054555  0.38692631  1  0.07374  0  0.101922  0.115206  0  1.007797  0
H  H115  1  0.52511706  0.54945419  0.88692666  1  0.073637  0  0.10211  0.115385  0  1.007695  0
H  H116  1  0.00295652  0.26067234  0.74225686  1  0.098324  0  0.100522  0.112051  0  1.023392  0
H  H117  1  0.49704468  0.73932410  0.24225597  1  0.098371  0  0.100541  0.112034  0  1.023368  0
H  H118  1  0.50295837  0.23933609  0.25774867  1  0.098509  0  0.100513  0.111914  0  1.02345  0
H  H119  1  0.99704819  0.76066965  0.75774248  1  0.098354  0  0.100527  0.112083  0  1.023327  0
H  H120  1  0.95836224  0.37368287  0.59867651  1  0.073957  0  0.100993  0.110291  0  1.019941  0
H  H121  1  0.54163195  0.62631382  0.09867240  1  0.073926  0  0.10101  0.110308  0  1.02  0
H  H122  1  0.45836440  0.12631700  0.40132820  1  0.073983  0  0.10103  0.11034  0  1.019981  0
H  H123  1  0.04165699  0.87368591  0.90132647  1  0.073798  0  0.100996  0.110209  0  1.019966  0
H  H124  1  0.97632914  0.15020037  0.59604493  1  0.071092  0  0.100597  0.112479  0  1.014305  0
H  H125  1  0.52366832  0.84980046  0.09604890  1  0.071259  0  0.100538  0.112359  0  1.014436  0
H  H126  1  0.47633363  0.34980405  0.40395820  1  0.070911  0  0.100561  0.112408  0  1.014351  0
H  H127  1  0.02366755  0.65019679  0.90395470  1  0.071016  0  0.100583  0.112447  0  1.014275  0
H  H128  1  0.53059829  0.97294379  0.70974847  1  0.409651  0  0.296886  0.291535  0  0.962666  0
H  H129  1  0.96938936  0.02704012  0.20974301  1  0.409498  0  0.29676  0.291418  0  0.962689  0
H  H130  1  0.03060928  0.52704150  0.29025316  1  0.409605  0  0.29679  0.291423  0  0.962666  0
H  H131  1  0.46939452  0.47295709  0.79025185  1  0.409652  0  0.296811  0.291474  0  0.962633  0
H  H132  1  0.46297461  0.98948334  0.76129157  1  0.461892  0  0.29411  0.287421  0  0.991537  0
H  H133  1  0.03702854  0.01050122  0.26128613  1  0.461787  0  0.294005  0.287364  0  0.991554  0
H  H134  1  0.96297288  0.51050286  0.23871240  1  0.461828  0  0.29402  0.287348  0  0.991718  0
H  H135  1  0.53703303  0.48949198  0.73871152  1  0.461681  0  0.294018  0.287331  0  0.991689  0
H  H136  1  0.41478906  0.17338573  0.71609016  1  0.425872  0  0.308163  0.301837  0  0.940893  0
H  H137  1  0.08521671  0.82661377  0.21609095  1  0.425805  0  0.308135  0.301803  0  0.940828  0
H  H138  1  0.91478481  0.32661959  0.28390706  1  0.425811  0  0.308215  0.301881  0  0.940841  0
H  H139  1  0.58521718  0.67338723  0.78391738  1  0.425642  0  0.308155  0.301852  0  0.940835  0
H  H140  1  0.49357314  0.14865887  0.67348432  1  0.425277  0  0.309432  0.302855  0  0.940558  0
H  H141  1  0.00643589  0.85133539  0.17348120  1  0.425384  0  0.309378  0.302747  0  0.940682  0
H  H142  1  0.99356473  0.35134388  0.32651763  1  0.42546  0  0.309396  0.302839  0  0.940602  0
H  H143  1  0.50643660  0.64866715  0.82652004  1  0.425376  0  0.309403  0.302846  0  0.94062  0
H  H144  1  0.93750263  0.21863932  0.51814329  1  0.422551  0  0.30412  0.296976  0  0.949609  0
H  H145  1  0.56249027  0.78136345  0.01814404  1  0.422517  0  0.304108  0.296943  0  0.949659  0
H  H146  1  0.43749866  0.28136327  0.48186024  1  0.422508  0  0.304049  0.296874  0  0.949601  0
H  H147  1  0.06248815  0.71863511  0.98185759  1  0.422521  0  0.304078  0.297007  0  0.949499  0
H  H148  1  0.93154730  0.30596556  0.51927404  1  0.412951  0  0.303973  0.296528  0  0.950747  0
H  H149  1  0.56844886  0.69403878  0.01927431  1  0.412811  0  0.303983  0.296618  0  0.950748  0
H  H150  1  0.43154355  0.19403707  0.48072753  1  0.412823  0  0.303991  0.297183  0  0.950788  0
H  H151  1  0.06844848  0.80596027  0.98072850  1  0.412805  0  0.304006  0.297261  0  0.950782  0
H  H152  1  0.33860407  0.73418434  0.54097797  1  0.626591  0  0.307576  0.406088  0  0.889111  0
H  H153  1  0.16139912  0.26581644  0.04097471  1  0.626604  0  0.307585  0.406113  0  0.889052  0
H  H154  1  0.83860758  0.76581403  0.45902128  1  0.626616  0  0.30759  0.406108  0  0.889099  0
H  H155  1  0.66139177  0.23417805  0.95902096  1  0.626584  0  0.307571  0.406094  0  0.889147  0
H  H156  1  0.86347216  0.61344666  0.23902064  1  0.030106  0  0.09093  0.095425  0  1.006429  0
H  H157  1  0.63653962  0.38655336  0.73902597  1  0.029712  0  0.090954  0.0954  0  1.006553  0
H  H158  1  0.36346318  0.88655622  0.76097427  1  0.029618  0  0.090974  0.095481  0  1.006557  0
H  H159  1  0.13653867  0.11344129  0.26097522  1  0.029697  0  0.090971  0.095458  0  1.006462  0
H  H160  1  0.75613487  0.58120081  0.22838553  1  0.060031  0  0.096902  0.112708  0  1.007414  0
H  H161  1  0.74387626  0.41879971  0.72838851  1  0.059752  0  0.09686  0.112688  0  1.007388  0
H  H162  1  0.25612557  0.91880533  0.77161136  1  0.059741  0  0.096869  0.112743  0  1.007425  0
H  H163  1  0.24388149  0.08120048  0.27161345  1  0.060038  0  0.096902  0.11273  0  1.007433  0
H  H164  1  0.79322770  0.65324267  0.19126104  1  0.032047  0  0.079498  0.071061  0  1.003317  0
H  H165  1  0.70678018  0.34675728  0.69126554  1  0.03194  0  0.079489  0.071139  0  1.003281  0
H  H166  1  0.29322041  0.84676065  0.80873388  1  0.032057  0  0.079459  0.071088  0  1.003352  0
H  H167  1  0.20677164  0.15324211  0.30873722  1  0.032094  0  0.079501  0.071105  0  1.003291  0
H  H168  1  0.72581418  0.51257392  0.14688244  1  0.04999  0  0.094947  0.112185  0  1.006003  0
H  H169  1  0.77418587  0.48743113  0.64688430  1  0.049906  0  0.094964  0.11223  0  1.005955  0
H  H170  1  0.22581592  0.98743293  0.85311721  1  0.049849  0  0.094977  0.112249  0  1.005982  0
H  H171  1  0.27419113  0.01257042  0.35311727  1  0.04998  0  0.094983  0.112262  0  1.005996  0
H  H172  1  0.81055633  0.50591646  0.09872515  1  0.005018  0  0.088727  0.091122  0  1.015536  0
H  H173  1  0.68943982  0.49408023  0.59872978  1  0.005124  0  0.088749  0.091135  0  1.015578  0
H  H174  1  0.31056061  0.99408364  0.90127095  1  0.005015  0  0.088736  0.091103  0  1.015594  0
H  H175  1  0.18944839  0.00591616  0.40127022  1  0.005178  0  0.088766  0.091147  0  1.015589  0
H  H176  1  0.75638662  0.58677373  0.11007087  1  0.025862  0  0.078058  0.069417  0  1.008113  0
H  H177  1  0.74361475  0.41322609  0.61007306  1  0.026064  0  0.078061  0.06942  0  1.008074  0
H  H178  1  0.25638713  0.91323086  0.88992720  1  0.026058  0  0.078066  0.069382  0  1.008071  0
H  H179  1  0.24361665  0.08676996  0.38992733  1  0.026094  0  0.078048  0.069362  0  1.008061  0
H  H180  1  0.90156738  0.57324248  0.15307474  1  0.375956  0  0.285865  0.219915  0  0.959952  0
H  H181  1  0.59843333  0.42675482  0.65308129  1  0.376056  0  0.285853  0.219909  0  0.959823  0
H  H182  1  0.40156712  0.92675498  0.84692056  1  0.376003  0  0.285855  0.219885  0  0.959884  0
H  H183  1  0.09843602  0.07323748  0.34692069  1  0.376111  0  0.285826  0.219853  0  0.959964  0
C  C184  1  0.67881687  0.62876951  0.53869837  1  -0.081879  0  -0.226504  -0.478025  0  3.918148  0
C  C185  1  0.82118386  0.37122916  0.03869520  1  -0.080543  0  -0.226605  -0.478049  0  3.918079  0
C  C186  1  0.17881657  0.87122936  0.46130168  1  -0.081895  0  -0.226563  -0.478103  0  3.918062  0
C  C187  1  0.32117872  0.12877054  0.96130519  1  -0.08046  0  -0.226641  -0.478135  0  3.918207  0
C  C188  1  0.64777018  0.70159998  0.53846391  1  1.016766  0  0.229509  0.408597  0  3.995833  0
C  C189  1  0.85223250  0.29840024  0.03845988  1  1.016775  0  0.229529  0.408589  0  3.995738  0
C  C190  1  0.14776996  0.79839908  0.46153851  1  1.016707  0  0.229442  0.408557  0  3.995691  0
C  C191  1  0.35222729  0.20159875  0.96154051  1  1.016753  0  0.229474  0.408544  0  3.99576  0
C  C192  1  0.64330704  0.81404024  0.54114904  1  0.971893  0  0.233101  0.417332  0  3.977671  0
C  C193  1  0.85669499  0.18596050  0.04114767  1  0.97185  0  0.233043  0.417307  0  3.977858  0
C  C194  1  0.14330794  0.68595988  0.45885456  1  0.971956  0  0.233139  0.417398  0  3.977684  0
C  C195  1  0.35668997  0.31403846  0.95885429  1  0.972104  0  0.233031  0.417195  0  3.977544  0
C  C196  1  0.67155622  0.88746673  0.54327648  1  -0.046654  0  -0.231658  -0.487521  0  3.903291  0
C  C197  1  0.82844712  0.11253246  0.04327624  1  -0.046746  0  -0.231667  -0.487613  0  3.903318  0
C  C198  1  0.17155720  0.61253270  0.45672908  1  -0.046474  0  -0.231598  -0.487568  0  3.903445  0
C  C199  1  0.32844723  0.38746875  0.95672691  1  -0.046495  0  -0.231677  -0.487435  0  3.903198  0
C  C200  1  0.53342318  0.96406683  0.42634243  1  -0.083813  0  -0.22727  -0.473154  0  3.897947  0
C  C201  1  0.96657422  0.03593504  0.92634349  1  -0.083609  0  -0.227229  -0.473007  0  3.898047  0
C  C202  1  0.03342491  0.53593295  0.57365880  1  -0.083346  0  -0.227264  -0.473247  0  3.897996  0
C  C203  1  0.46657240  0.46406374  0.07365452  1  -0.083961  0  -0.227248  -0.47319  0  3.898109  0
C  C204  1  0.46643643  0.91288225  0.41014640  1  1.012465  0  0.238515  0.42529  0  3.955272  0
C  C205  1  0.03355822  0.08711757  0.91014595  1  1.011801  0  0.238533  0.425119  0  3.955307  0
C  C206  1  0.96643714  0.58711843  0.58985245  1  1.012501  0  0.238598  0.425479  0  3.954967  0
C  C207  1  0.53355902  0.41288084  0.08985091  1  1.012049  0  0.238605  0.425481  0  3.955204  0
C  C208  1  0.37359256  0.85450756  0.36408655  1  1.007776  0  0.231574  0.407424  0  3.9929  0
C  C209  1  0.12640405  0.14548907  0.86408852  1  1.007826  0  0.23146  0.407333  0  3.992868  0
C  C210  1  0.87358746  0.64548904  0.63591072  1  1.008032  0  0.231603  0.407404  0  3.993091  0
C  C211  1  0.62640803  0.35451134  0.13590794  1  1.008091  0  0.231566  0.407483  0  3.992956  0
C  C212  1  0.31560128  0.83139466  0.32077644  1  -0.047553  0  -0.231216  -0.479844  0  3.926964  0
C  C213  1  0.18439795  0.16859724  0.82077763  1  -0.047688  0  -0.231202  -0.47976  0  3.927037  0
C  C214  1  0.81559855  0.66860334  0.67922163  1  -0.047569  0  -0.231144  -0.479704  0  3.927151  0
C  C215  1  0.68439498  0.33139917  0.17922079  1  -0.047774  0  -0.23118  -0.479772  0  3.927012  0
C  C216  1  0.54996209  0.52919998  0.43082171  1  -0.082034  0  -0.22535  -0.471672  0  3.911321  0
C  C217  1  0.95003792  0.47080138  0.93081961  1  -0.081956  0  -0.225324  -0.471592  0  3.911368  0
C  C218  1  0.04996208  0.97079866  0.56917913  1  -0.082018  0  -0.225342  -0.471575  0  3.911347  0
C  C219  1  0.45003849  0.02920372  0.06917919  1  -0.082643  0  -0.225366  -0.471774  0  3.911223  0
C  C220  1  0.47988977  0.57696263  0.41338348  1  1.005245  0  0.238068  0.424129  0  3.963793  0
C  C221  1  0.02011009  0.42303771  0.91338175  1  1.005134  0  0.238071  0.424166  0  3.963687  0
C  C222  1  0.97989039  0.92303692  0.58661930  1  1.005149  0  0.238062  0.4241  0  3.963657  0
C  C223  1  0.52011359  0.07696596  0.08661747  1  1.005424  0  0.238102  0.42418  0  3.963475  0
C  C224  1  0.38160899  0.62760484  0.36606647  1  1.01386  0  0.234865  0.415718  0  3.977113  0
C  C225  1  0.11839023  0.37239543  0.86606430  1  1.014097  0  0.234723  0.415483  0  3.977115  0
C  C226  1  0.88161271  0.87239275  0.63393474  1  1.013865  0  0.234888  0.415725  0  3.977118  0
C  C227  1  0.61839387  0.12760555  0.13393649  1  1.013476  0  0.234724  0.41544  0  3.97716  0
C  C228  1  0.32245783  0.64611677  0.32202530  1  -0.090669  0  -0.231248  -0.479792  0  3.920646  0
C  C229  1  0.17754596  0.35388239  0.82202311  1  -0.090509  0  -0.231227  -0.479605  0  3.920594  0
C  C230  1  0.82246173  0.85387860  0.67797631  1  -0.09048  0  -0.231337  -0.479792  0  3.920439  0
C  C231  1  0.67754680  0.14611977  0.17797847  1  -0.090232  0  -0.231291  -0.479662  0  3.920542  0
C  C232  1  0.62646012  0.09932359  0.90776432  1  1.50623  0  0.196822  0.57619  0  4.191345  0
C  C233  1  0.87354511  0.90068343  0.40776910  1  1.5067  0  0.196749  0.576174  0  4.191428  0
C  C234  1  0.12646219  0.40068044  0.09222780  1  1.506814  0  0.196953  0.576549  0  4.190953  0
C  C235  1  0.37354033  0.59932042  0.59222936  1  1.506774  0  0.196833  0.576217  0  4.191127  0
C  C236  1  0.64462240  0.06347576  0.85689317  1  -0.040694  0  -0.029395  -0.025771  0  4.045085  0
C  C237  1  0.85538023  0.93652134  0.35689759  1  -0.040297  0  -0.029443  -0.025982  0  4.045334  0
C  C238  1  0.14462541  0.43652039  0.14310013  1  -0.04019  0  -0.029458  -0.025927  0  4.045182  0
C  C239  1  0.35537645  0.56348003  0.64310403  1  -0.040294  0  -0.02944  -0.025911  0  4.045103  0
C  C240  1  0.73057574  0.05921452  0.83888306  1  -0.064175  0  -0.096085  -0.142693  0  3.97195  0
C  C241  1  0.76942755  0.94078048  0.33888669  1  -0.063615  0  -0.096131  -0.142702  0  3.971863  0
C  C242  1  0.23057479  0.44078316  0.16111261  1  -0.063661  0  -0.096085  -0.142649  0  3.971892  0
C  C243  1  0.26942511  0.55922506  0.66111532  1  -0.063806  0  -0.096191  -0.142659  0  3.971885  0
C  C244  1  0.74792010  0.02814097  0.79025558  1  0.019652  0  -0.021773  -0.015666  0  4.006511  0
C  C245  1  0.75208515  0.97184981  0.29025767  1  0.019519  0  -0.021554  -0.015205  0  4.006024  0
C  C246  1  0.24791296  0.47185142  0.20974402  1  0.01965  0  -0.021686  -0.015452  0  4.006488  0
C  C247  1  0.25208302  0.52814911  0.70974237  1  0.019997  0  -0.021556  -0.015308  0  4.006253  0
C  C248  1  0.84111259  0.02186681  0.77232941  1  1.582833  0  0.215495  0.59156  0  4.162027  0
C  C249  1  0.65889267  0.97812549  0.27233151  1  1.582313  0  0.215419  0.591484  0  4.162116  0
C  C250  1  0.34110734  0.47812499  0.22766939  1  1.582348  0  0.215396  0.591486  0  4.162195  0
C  C251  1  0.15889451  0.52187350  0.72766972  1  1.582319  0  0.21551  0.591701  0  4.161967  0
C  C252  1  0.67931437  0.00229159  0.75953694  1  -0.009752  0  -0.099307  -0.211465  0  3.914113  0
C  C253  1  0.82069023  0.99769344  0.25953668  1  -0.010195  0  -0.099531  -0.21185  0  3.914244  0
C  C254  1  0.17930698  0.49769968  0.24045991  1  -0.0106  0  -0.099405  -0.211732  0  3.914709  0
C  C255  1  0.32068966  0.50231126  0.74046335  1  -0.010335  0  -0.099552  -0.211851  0  3.914477  0
C  C256  1  0.59247205  0.00541119  0.77765465  1  0.3484  0  0.086108  0.293853  0  4.123547  0
C  C257  1  0.90753125  0.99457439  0.27765241  1  0.348879  0  0.086025  0.293967  0  4.123325  0
C  C258  1  0.09246664  0.49457493  0.22234220  1  0.349152  0  0.085988  0.294003  0  4.123693  0
C  C259  1  0.40753130  0.50542303  0.72234525  1  0.348782  0  0.086026  0.293915  0  4.12355  0
C  C260  1  0.57613670  0.03641377  0.82684767  1  -0.035169  0  -0.101781  -0.215651  0  3.922741  0
C  C261  1  0.92386724  0.96357395  0.32684935  1  -0.03598  0  -0.101783  -0.215501  0  3.922443  0
C  C262  1  0.07613291  0.46357400  0.17314761  1  -0.036295  0  -0.101751  -0.215602  0  3.922896  0
C  C263  1  0.42386699  0.53642233  0.67314871  1  -0.035961  0  -0.101809  -0.215555  0  3.92259  0
C  C264  1  0.39856292  0.93189476  0.58193452  1  1.511995  0  0.192146  0.559324  0  4.195577  0
C  C265  1  0.10142982  0.06809936  0.08193070  1  1.512928  0  0.192097  0.559027  0  4.195423  0
C  C266  1  0.89855928  0.56810842  0.41806551  1  1.511405  0  0.192213  0.559429  0  4.195504  0
C  C267  1  0.60142573  0.43189603  0.91806655  1  1.512849  0  0.192066  0.558859  0  4.195489  0
C  C268  1  0.36428975  0.98187743  0.62148364  1  -0.038571  0  -0.026389  -0.022969  0  4.045117  0
C  C269  1  0.13571082  0.01811882  0.12148056  1  -0.038805  0  -0.026338  -0.02298  0  4.045298  0
C  C270  1  0.86428270  0.51812596  0.37851679  1  -0.038723  0  -0.026298  -0.022891  0  4.045161  0
C  C271  1  0.63570689  0.48187532  0.87851786  1  -0.038676  0  -0.026304  -0.022741  0  4.045161  0
C  C272  1  0.28411202  0.96958227  0.64625513  1  -0.044993  0  -0.092975  -0.146668  0  3.956551  0
C  C273  1  0.21588724  0.03042075  0.14625442  1  -0.045519  0  -0.093033  -0.146593  0  3.956631  0
C  C274  1  0.78410290  0.53042163  0.35374767  1  -0.04451  0  -0.093069  -0.146882  0  3.957011  0
C  C275  1  0.71588473  0.46957391  0.85374518  1  -0.045079  0  -0.092973  -0.146776  0  3.956565  0
C  C276  1  0.25389357  0.01655509  0.68409928  1  -0.019036  0  -0.014931  -0.006309  0  3.995104  0
C  C277  1  0.24610698  0.98345213  0.18410098  1  -0.018743  0  -0.014968  -0.006419  0  3.995079  0
C  C278  1  0.75388841  0.48345435  0.31590033  1  -0.019462  0  -0.014945  -0.006007  0  3.994791  0
C  C279  1  0.74610510  0.51654993  0.81590222  1  -0.018857  0  -0.014911  -0.006116  0  3.99499  0
C  C280  1  0.16715567  0.00529541  0.71065569  1  1.561272  0  0.21369  0.579686  0  4.192851  0
C  C281  1  0.33284227  0.99471807  0.21065661  1  1.561208  0  0.213768  0.579791  0  4.19229  0
C  C282  1  0.66714714  0.49471717  0.28934628  1  1.560303  0  0.21371  0.579407  0  4.192483  0
C  C283  1  0.83284637  0.50529277  0.78934539  1  1.561344  0  0.213815  0.579812  0  4.192503  0
C  C284  1  0.30317540  0.07517179  0.69653431  1  0.034982  0  -0.091586  -0.203106  0  3.902643  0
C  C285  1  0.19682515  0.92483442  0.19653754  1  0.035111  0  -0.09153  -0.202925  0  3.90265  0
C  C286  1  0.80316757  0.42483579  0.30346371  1  0.035076  0  -0.091633  -0.203195  0  3.90264  0
C  C287  1  0.69682464  0.57516640  0.80346920  1  0.035231  0  -0.091577  -0.203027  0  3.90243  0
C  C288  1  0.38305179  0.08866661  0.67127806  1  0.365353  0  0.089296  0.293949  0  4.136801  0
C  C289  1  0.11695007  0.91133490  0.17127892  1  0.365465  0  0.089265  0.293887  0  4.13676  0
C  C290  1  0.88304474  0.41133685  0.32871995  1  0.365926  0  0.089327  0.294103  0  4.136575  0
C  C291  1  0.61694616  0.58866487  0.82872704  1  0.365433  0  0.089155  0.293955  0  4.136533  0
C  C292  1  0.41332742  0.04096101  0.63369083  1  -0.050724  0  -0.102256  -0.226634  0  3.943284  0
C  C293  1  0.08667249  0.95903577  0.13368740  1  -0.050288  0  -0.102361  -0.226733  0  3.943238  0
C  C294  1  0.91332053  0.45904070  0.36630915  1  -0.050736  0  -0.102278  -0.226721  0  3.943231  0
C  C295  1  0.58666970  0.54096004  0.86631501  1  -0.050887  0  -0.102404  -0.226896  0  3.943392  0
C  C296  1  0.99952331  0.13074276  0.69972346  1  1.553092  0  0.214307  0.591076  0  4.161411  0
C  C297  1  0.50046696  0.86925616  0.19972547  1  1.553483  0  0.214314  0.591093  0  4.161244  0
C  C298  1  0.49952892  0.36925996  0.30027770  1  1.553337  0  0.214333  0.591044  0  4.161356  0
C  C299  1  0.00047422  0.63074279  0.80027773  1  1.55336  0  0.214282  0.591135  0  4.161198  0
C  C300  1  0.99076412  0.19885739  0.67155989  1  -0.023164  0  -0.022811  -0.017855  0  4.011551  0
C  C301  1  0.50923136  0.80113941  0.17156105  1  -0.023078  0  -0.022808  -0.017776  0  4.011232  0
C  C302  1  0.49076846  0.30114745  0.32844404  1  -0.022891  0  -0.02276  -0.017755  0  4.011591  0
C  C303  1  0.00923599  0.69885897  0.82844058  1  -0.022949  0  -0.022637  -0.017614  0  4.01122  0
C  C304  1  0.99382996  0.26118873  0.69975465  1  -0.037769  0  -0.096481  -0.147044  0  3.966382  0
C  C305  1  0.50616748  0.73880450  0.19975379  1  -0.038058  0  -0.096526  -0.147107  0  3.966454  0
C  C306  1  0.49383297  0.23881351  0.30024966  1  -0.038077  0  -0.096497  -0.147006  0  3.966391  0
C  C307  1  0.00618257  0.76119442  0.80024508  1  -0.037675  0  -0.096686  -0.147389  0  3.966634  0
C  C308  1  0.98221663  0.32394118  0.67303746  1  0.053575  0  -0.020885  -0.01479  0  4.008609  0
C  C309  1  0.51777820  0.67605459  0.17303576  1  0.053804  0  -0.020806  -0.014569  0  4.00856  0
C  C310  1  0.48222091  0.17606164  0.32696567  1  0.053281  0  -0.020735  -0.01451  0  4.008428  0
C  C311  1  0.01779006  0.82394374  0.82696666  1  0.053353  0  -0.020707  -0.014575  0  4.008809  0
C  C312  1  0.98432300  0.39163368  0.70227939  1  1.5556  0  0.216197  0.592988  0  4.160026  0
C  C313  1  0.51567900  0.60836266  0.20227644  1  1.555994  0  0.216206  0.592994  0  4.159973  0
C  C314  1  0.48432144  0.10836966  0.29772296  1  1.556062  0  0.216068  0.592828  0  4.160386  0
C  C315  1  0.01569084  0.89163723  0.79772755  1  1.55665  0  0.216119  0.592975  0  4.159847  0
C  C316  1  0.96837754  0.32421934  0.61853262  1  -0.035203  0  -0.0989  -0.214641  0  3.931516  0
C  C317  1  0.53162187  0.67577738  0.11853131  1  -0.035424  0  -0.099007  -0.214857  0  3.931647  0
C  C318  1  0.46837790  0.17578046  0.38147051  1  -0.034773  0  -0.099043  -0.214832  0  3.93159  0
C  C319  1  0.03163697  0.82422241  0.88147032  1  -0.035139  0  -0.099002  -0.214584  0  3.931638  0
C  C320  1  0.96741711  0.26216720  0.58968008  1  0.353646  0  0.085198  0.293075  0  4.132774  0
C  C321  1  0.53258361  0.73782948  0.08968079  1  0.35357  0  0.085114  0.292977  0  4.132828  0
C  C322  1  0.46741945  0.23783417  0.41032345  1  0.353813  0  0.085228  0.293173  0  4.132803  0
C  C323  1  0.03259607  0.76216876  0.91031926  1  0.353772  0  0.085184  0.293061  0  4.132882  0
C  C324  1  0.97817928  0.19950384  0.61697937  1  -0.061083  0  -0.099689  -0.212564  0  3.929033  0
C  C325  1  0.52181622  0.80049340  0.11698014  1  -0.060941  0  -0.099589  -0.212388  0  3.928956  0
C  C326  1  0.47818361  0.30049694  0.38302416  1  -0.061221  0  -0.09966  -0.212379  0  3.929086  0
C  C327  1  0.02182148  0.69950490  0.88302267  1  -0.061144  0  -0.099664  -0.212396  0  3.928721  0
C  C328  1  0.81365134  0.60323315  0.20887977  1  0.240606  0  -0.153666  -0.217823  0  3.997806  0
C  C329  1  0.68635784  0.39676734  0.70888432  1  0.241127  0  -0.153711  -0.217973  0  3.998038  0
C  C330  1  0.31364356  0.89677056  0.79111514  1  0.241296  0  -0.153685  -0.218057  0  3.9981  0
C  C331  1  0.18635894  0.10323062  0.29111647  1  0.240799  0  -0.15372  -0.217973  0  3.997974  0
C  C332  1  0.78202746  0.53928057  0.12929522  1  0.270824  0  -0.154459  -0.217406  0  4.006503  0
C  C333  1  0.71797455  0.46071928  0.62929942  1  0.270681  0  -0.154513  -0.217529  0  4.006657  0
C  C334  1  0.28202946  0.96072334  0.87070127  1  0.270875  0  -0.154557  -0.21751  0  4.006701  0
C  C335  1  0.21797693  0.03927848  0.37070018  1  0.270441  0  -0.154565  -0.217552  0  4.006603  0
N  N336  1  0.56612934  0.72054090  0.52879715  1  -0.769169  0  -0.261566  -0.254396  0  3.493158  0
N  N337  1  0.93387269  0.27945878  0.02879389  1  -0.769289  0  -0.261594  -0.254398  0  3.493253  0
N  N338  1  0.06612931  0.77945919  0.47120448  1  -0.769199  0  -0.26152  -0.25427  0  3.49302  0
N  N339  1  0.43386729  0.22053865  0.97120492  1  -0.769191  0  -0.261519  -0.254295  0  3.4932  0
N  N340  1  0.56275303  0.79179351  0.53084695  1  -0.82434  0  -0.252266  -0.253886  0  3.454548  0
N  N341  1  0.93724966  0.20820670  0.03084560  1  -0.824344  0  -0.252198  -0.253843  0  3.454644  0
N  N342  1  0.06275370  0.70820661  0.46915546  1  -0.824426  0  -0.252271  -0.253966  0  3.454542  0
N  N343  1  0.43724355  0.29179123  0.96915557  1  -0.824254  0  -0.252184  -0.253795  0  3.454501  0
N  N344  1  0.69786601  0.75874196  0.54679939  1  -1.278179  0  -0.372379  -0.446171  0  3.494171  0
N  N345  1  0.80213667  0.24125878  0.04679729  1  -1.27802  0  -0.372395  -0.446181  0  3.4943  0
N  N346  1  0.19786701  0.74125730  0.45320262  1  -1.278032  0  -0.372352  -0.446148  0  3.494033  0
N  N347  1  0.30213089  0.25874103  0.95320113  1  -1.278255  0  -0.372331  -0.446134  0  3.493996  0
N  N348  1  0.43248594  0.86477340  0.44206153  1  -0.823851  0  -0.267187  -0.279193  0  3.490671  0
N  N349  1  0.06750805  0.13522595  0.94206310  1  -0.824028  0  -0.267251  -0.279186  0  3.490678  0
N  N350  1  0.93248357  0.63522593  0.55793653  1  -0.823924  0  -0.267227  -0.279235  0  3.490736  0
N  N351  1  0.56751128  0.36477380  0.05793336  1  -0.824334  0  -0.26723  -0.279269  0  3.490812  0
N  N352  1  0.37363509  0.82746874  0.41250275  1  -0.827437  0  -0.280904  -0.285977  0  3.559729  0
N  N353  1  0.12636087  0.17252953  0.91250514  1  -0.827213  0  -0.280757  -0.285762  0  3.55943  0
N  N354  1  0.87363233  0.67253097  0.58749531  1  -0.827507  0  -0.280889  -0.286009  0  3.559745  0
N  N355  1  0.62636643  0.32747088  0.08749132  1  -0.827478  0  -0.280832  -0.285936  0  3.559665  0
N  N356  1  0.43095821  0.90764600  0.36124542  1  -1.217289  0  -0.341544  -0.398112  0  3.355324  0
N  N357  1  0.06903449  0.09235581  0.86124538  1  -1.216738  0  -0.341514  -0.398001  0  3.355165  0
N  N358  1  0.93095950  0.59235542  0.63875342  1  -1.217206  0  -0.341581  -0.398144  0  3.355102  0
N  N359  1  0.56903403  0.40764237  0.13875187  1  -1.216647  0  -0.341581  -0.398257  0  3.355415  0
N  N360  1  0.44404015  0.62619940  0.44340259  1  -0.828256  0  -0.272274  -0.281965  0  3.526907  0
N  N361  1  0.05595971  0.37380046  0.94340042  1  -0.828122  0  -0.272207  -0.281944  0  3.526903  0
N  N362  1  0.94403931  0.87380245  0.55659862  1  -0.828137  0  -0.272218  -0.281876  0  3.526757  0
N  N363  1  0.55596598  0.12620194  0.05659840  1  -0.82812  0  -0.272159  -0.281927  0  3.526775  0
N  N364  1  0.38140534  0.65835718  0.41319947  1  -0.838531  0  -0.279501  -0.284806  0  3.55906  0
N  N365  1  0.11859518  0.34164212  0.91319648  1  -0.838775  0  -0.279465  -0.28464  0  3.559231  0
N  N366  1  0.88140546  0.84164351  0.58680135  1  -0.838493  0  -0.279493  -0.284804  0  3.559163  0
N  N367  1  0.61859982  0.15835833  0.08680352  1  -0.838991  0  -0.279464  -0.284581  0  3.55904  0
N  N368  1  0.44239743  0.57674671  0.36500747  1  -1.199713  0  -0.340557  -0.391131  0  3.351895  0
N  N369  1  0.05760505  0.42325614  0.86500613  1  -1.199728  0  -0.340557  -0.391141  0  3.351743  0
N  N370  1  0.94239608  0.92325204  0.63499571  1  -1.199807  0  -0.340566  -0.391181  0  3.351899  0
N  N371  1  0.55760333  0.07674885  0.13499545  1  -1.199655  0  -0.340571  -0.391133  0  3.351844  0
N  N372  1  0.52416985  0.97622943  0.74942683  1  -1.22595  0  -0.605787  -0.636231  0  3.331646  0
N  N373  1  0.97583279  0.02375507  0.24942335  1  -1.226126  0  -0.605393  -0.635943  0  3.331571  0
N  N374  1  0.02416784  0.52375383  0.25057401  1  -1.226109  0  -0.605454  -0.635962  0  3.331641  0
N  N375  1  0.47583596  0.47624262  0.75057230  1  -1.226049  0  -0.605454  -0.63596  0  3.331589  0
N  N376  1  0.42886895  0.14920815  0.68167081  1  -1.185058  0  -0.601363  -0.629968  0  3.296159  0
N  N377  1  0.07113682  0.85079079  0.18167123  1  -1.185021  0  -0.601242  -0.629797  0  3.296174  0
N  N378  1  0.92886315  0.35079553  0.31832720  1  -1.185426  0  -0.601318  -0.630004  0  3.296191  0
N  N379  1  0.57113818  0.64921083  0.81833592  1  -1.184829  0  -0.601269  -0.629994  0  3.296129  0
N  N380  1  0.95940898  0.26300632  0.53496281  1  -1.181404  0  -0.605271  -0.636942  0  3.299806  0
N  N381  1  0.54058392  0.73699493  0.03496313  1  -1.181224  0  -0.605218  -0.636934  0  3.299872  0
N  N382  1  0.45940807  0.23699562  0.46504072  1  -1.181412  0  -0.60524  -0.637721  0  3.300083  0
N  N383  1  0.04058592  0.76300480  0.96503732  1  -1.181268  0  -0.605256  -0.637906  0  3.300066  0
N  N384  1  0.84674202  0.55345508  0.17026115  1  -1.078229  0  -0.503483  -0.302164  0  3.455559  0
N  N385  1  0.65326195  0.44654379  0.67026535  1  -1.078128  0  -0.503389  -0.301987  0  3.455646  0
N  N386  1  0.34674091  0.94654531  0.82973455  1  -1.078285  0  -0.503375  -0.301913  0  3.455624  0
N  N387  1  0.15326419  0.05345282  0.32973426  1  -1.078207  0  -0.5034  -0.301964  0  3.455653  0
O  O388  1  0.54533790  0.09858832  0.92376171  1  -1.155683  0  -0.35203  -0.569452  0  2.288157  0
O  O389  1  0.95466406  0.90141821  0.42376608  1  -1.155933  0  -0.352014  -0.569358  0  2.288448  0
O  O390  1  0.04533997  0.40140639  0.07623554  1  -1.155689  0  -0.352082  -0.569519  0  2.288148  0
O  O391  1  0.45466256  0.59859083  0.57623631  1  -1.155749  0  -0.352025  -0.5694  0  2.288125  0
O  O392  1  0.68597499  0.12967688  0.93300245  1  -1.193366  0  -0.336371  -0.578111  0  2.116245  0
O  O393  1  0.81402763  0.87033174  0.43300996  1  -1.193573  0  -0.336305  -0.578094  0  2.116099  0
O  O394  1  0.18598063  0.37033662  0.06698218  1  -1.193832  0  -0.336438  -0.578312  0  2.116137  0
O  O395  1  0.31402255  0.62966679  0.56698534  1  -1.193791  0  -0.336355  -0.578116  0  2.11624  0
O  O396  1  0.89995051  0.03688980  0.80579186  1  -1.178792  0  -0.313049  -0.54416  0  2.334433  0
O  O397  1  0.60004495  0.96309789  0.30578646  1  -1.178681  0  -0.31306  -0.544137  0  2.33472  0
O  O398  1  0.39994999  0.46310060  0.19420892  1  -1.178828  0  -0.312955  -0.54411  0  2.334686  0
O  O399  1  0.10005057  0.53690561  0.69421280  1  -1.178604  0  -0.313142  -0.544325  0  2.334486  0
O  O400  1  0.85500462  0.00111829  0.72533239  1  -1.173566  0  -0.318604  -0.55317  0  2.330844  0
O  O401  1  0.64499869  0.99888223  0.22533726  1  -1.173299  0  -0.318595  -0.553262  0  2.330807  0
O  O402  1  0.35500046  0.49888431  0.27466287  1  -1.173321  0  -0.318598  -0.553128  0  2.330799  0
O  O403  1  0.14500203  0.50112151  0.77466633  1  -1.173355  0  -0.318575  -0.553244  0  2.330697  0
O  O404  1  0.35206219  0.87898108  0.56885078  1  -1.166355  0  -0.33812  -0.547736  0  2.192755  0
O  O405  1  0.14792273  0.12101975  0.06885292  1  -1.166954  0  -0.338061  -0.547605  0  2.19294  0
O  O406  1  0.85206062  0.62102343  0.43115240  1  -1.165946  0  -0.338131  -0.547753  0  2.192713  0
O  O407  1  0.64791851  0.37897845  0.93115063  1  -1.167045  0  -0.33804  -0.547599  0  2.193051  0
O  O408  1  0.47371064  0.94049411  0.56107341  1  -1.184207  0  -0.332361  -0.571386  0  2.190853  0
O  O409  1  0.02628276  0.05950049  0.06106880  1  -1.184589  0  -0.332413  -0.571236  0  2.190484  0
O  O410  1  0.97370969  0.55950912  0.43892347  1  -1.184122  0  -0.332442  -0.571471  0  2.190893  0
O  O411  1  0.52627401  0.44049640  0.93892294  1  -1.184592  0  -0.332437  -0.571191  0  2.19032  0
O  O412  1  0.11386013  0.96447395  0.68807234  1  -1.169029  0  -0.315435  -0.543914  0  2.312935  0
O  O413  1  0.38614107  0.03553432  0.18806729  1  -1.169372  0  -0.315506  -0.544058  0  2.312677  0
O  O414  1  0.61385096  0.53553879  0.31193323  1  -1.168387  0  -0.31546  -0.543853  0  2.312727  0
O  O415  1  0.88614385  0.46446911  0.81192639  1  -1.169126  0  -0.315511  -0.544031  0  2.312978  0
O  O416  1  0.15305617  0.03831709  0.75330213  1  -1.170153  0  -0.31195  -0.554442  0  2.348371  0
O  O417  1  0.34694437  0.96169076  0.25329868  1  -1.169878  0  -0.311897  -0.554348  0  2.348282  0
O  O418  1  0.65304732  0.46169092  0.24670300  1  -1.169819  0  -0.311928  -0.554281  0  2.348396  0
O  O419  1  0.84694163  0.53831740  0.74669780  1  -1.170145  0  -0.311953  -0.554462  0  2.348275  0
O  O420  1  0.01138989  0.13254746  0.74939377  1  -1.147255  0  -0.315657  -0.544407  0  2.321974  0
O  O421  1  0.48859239  0.86744743  0.24939575  1  -1.147514  0  -0.315794  -0.544543  0  2.321906  0
O  O422  1  0.51139894  0.36745211  0.25060821  1  -1.147302  0  -0.315697  -0.54445  0  2.322052  0
O  O423  1  0.98860110  0.63255362  0.75060585  1  -1.147261  0  -0.315737  -0.544514  0  2.321704  0
O  O424  1  0.99437942  0.07576580  0.67191256  1  -1.176467  0  -0.318746  -0.558566  0  2.337733  0
O  O425  1  0.50562063  0.92423463  0.17191817  1  -1.176647  0  -0.318639  -0.558509  0  2.337644  0
O  O426  1  0.49438057  0.42424162  0.32808348  1  -1.176852  0  -0.318749  -0.558556  0  2.337732  0
O  O427  1  0.00562453  0.57576273  0.82808110  1  -1.176729  0  -0.318653  -0.558541  0  2.33788  0
O  O428  1  0.01780983  0.39196930  0.74823244  1  -1.169686  0  -0.313897  -0.547359  0  2.32363  0
O  O429  1  0.48219332  0.60801886  0.24822631  1  -1.169731  0  -0.313837  -0.54733  0  2.323822  0
O  O430  1  0.51780256  0.10803231  0.25176954  1  -1.16994  0  -0.313839  -0.547302  0  2.323728  0
O  O431  1  0.98219813  0.89197395  0.75177805  1  -1.170069  0  -0.313808  -0.54731  0  2.323275  0
O  O432  1  0.95296856  0.44436524  0.67859370  1  -1.169756  0  -0.317894  -0.557885  0  2.348881  0
O  O433  1  0.54703997  0.55563468  0.17858440  1  -1.170084  0  -0.317944  -0.557953  0  2.348782  0
O  O434  1  0.45296557  0.05563984  0.32140865  1  -1.169824  0  -0.31786  -0.557874  0  2.348994  0
O  O435  1  0.04705453  0.94436605  0.82141250  1  -1.170361  0  -0.317947  -0.557978  0  2.348969  0
O  O436  1  0.38063721  0.74594247  0.51336139  1  -1.238346  0  -0.563754  -0.783397  0  2.31013  0
O  O437  1  0.11936467  0.25405982  0.01335931  1  -1.238404  0  -0.563752  -0.783392  0  2.310168  0
O  O438  1  0.88063953  0.75405771  0.48663864  1  -1.238399  0  -0.563783  -0.783437  0  2.310153  0
O  O439  1  0.61936047  0.24593856  0.98663794  1  -1.238515  0  -0.563767  -0.783357  0  2.31006  0
