# generated using pymatgen
data_CoH24C25N4O5
_symmetry_space_group_name_H-M   'P 1'
_cell_length_a   9.60381166
_cell_length_b   9.60382267
_cell_length_c   48.32088101
_cell_angle_alpha   90.00003251
_cell_angle_beta   89.99998071
_cell_angle_gamma   120.00009763
_symmetry_Int_Tables_number   1
_chemical_formula_structural   CoH24C25N4O5
_chemical_formula_sum   'Co6 H144 C150 N24 O30'
_cell_volume   3859.69347276
_cell_formula_units_Z   6
loop_
 _symmetry_equiv_pos_site_id
 _symmetry_equiv_pos_as_xyz
  1  'x, y, z'
loop_
 _atom_site_type_symbol
 _atom_site_label
 _atom_site_symmetry_multiplicity
 _atom_site_fract_x
 _atom_site_fract_y
 _atom_site_fract_z
 _atom_site_occupancy
 _atom_site_pbe_bader_charge
 _atom_site_pbe_bader_spin_density
 _atom_site_pbe_cm5_charge
 _atom_site_pbe_ddec_charge
 _atom_site_pbe_ddec_spin_density
 _atom_site_pbe_ddec_sum_bond_order
 _atom_site_pbe_magmom
Co  Co0  1  0.70402812  0.29597727  0.91666768  1  1.184668  2.528875  0.696543  0.794312  2.758012  2.675235  2.465
Co  Co1  1  0.70402813  0.40805904  0.25000227  1  1.185655  2.528931  0.696517  0.794261  2.757967  2.675544  2.465
Co  Co2  1  0.59194955  0.29597264  0.58333642  1  1.185889  2.528957  0.696498  0.794218  2.758005  2.675229  2.465
Co  Co3  1  0.29597232  0.70402322  0.41666793  1  1.184793  2.528852  0.696552  0.794299  2.758002  2.675299  2.465
Co  Co4  1  0.29597073  0.59194056  0.75000228  1  1.185682  2.528938  0.696492  0.79425  2.757976  2.675546  2.465
Co  Co5  1  0.40804996  0.70402592  0.08333646  1  1.185916  2.528965  0.696525  0.794277  2.758013  2.675156  2.465
H  H6  1  0.45754702  0.11388020  0.95542524  1  0.561797  0.00035  0.312143  0.269148  0.000224  1.010349  0.0
H  H7  1  0.88612017  0.34366653  0.28875673  1  0.566659  0.000351  0.312109  0.269032  0.000224  1.010551  0.0
H  H8  1  0.65632893  0.54244911  0.62209545  1  0.561439  0.000356  0.312123  0.269091  0.000224  1.0105  0.0
H  H9  1  0.54245280  0.88612099  0.45542530  1  0.561801  0.00035  0.312113  0.269078  0.000224  1.010463  0.0
H  H10  1  0.11387971  0.65633422  0.78875676  1  0.566684  0.000351  0.312104  0.269013  0.000224  1.01056  0.0
H  H11  1  0.34367161  0.45755059  0.12209547  1  0.561438  0.000356  0.312116  0.26909  0.000224  1.010508  0.0
H  H12  1  0.11387731  0.45755053  0.37790600  1  0.562077  0.00035  0.312134  0.269075  0.000224  1.010453  0.0
H  H13  1  0.34367344  0.88612423  0.04457683  1  0.566815  0.00035  0.312145  0.269094  0.000224  1.010565  0.0
H  H14  1  0.54245133  0.65632865  0.71124554  1  0.561339  0.000356  0.312138  0.269123  0.000224  1.010512  0.0
H  H15  1  0.88612374  0.54244926  0.87790597  1  0.562075  0.00035  0.312158  0.269166  0.000224  1.01035  0.0
H  H16  1  0.65632713  0.11387526  0.54457698  1  0.566814  0.00035  0.312147  0.269094  0.000224  1.01056  0.0
H  H17  1  0.45754814  0.34367025  0.21124574  1  0.561341  0.000356  0.312133  0.269121  0.000224  1.010508  0.0
H  H18  1  0.37429130  0.55510182  0.93342443  1  0.053649  0.000338  0.098357  0.102635  9e-05  0.992057  0.0
H  H19  1  0.44489647  0.81920473  0.26675800  1  0.049453  0.000339  0.098411  0.102707  9e-05  0.992062  0.0
H  H20  1  0.18080045  0.62569483  0.60009277  1  0.053559  0.000338  0.098377  0.10269  9e-05  0.992034  0.0
H  H21  1  0.62570808  0.44489768  0.43342422  1  0.053651  0.000338  0.098354  0.102638  9e-05  0.992083  0.0
H  H22  1  0.55510342  0.18079596  0.76675795  1  0.04946  0.000339  0.098401  0.102679  9e-05  0.992122  0.0
H  H23  1  0.81919846  0.37430437  0.10009295  1  0.053567  0.000338  0.098368  0.102687  9e-05  0.992048  0.0
H  H24  1  0.55510257  0.37431742  0.39991593  1  0.053759  0.000338  0.098458  0.102763  9e-05  0.992144  0.0
H  H25  1  0.81920631  0.44489759  0.06658426  1  0.049308  0.000339  0.098386  0.102619  9e-05  0.992121  0.0
H  H26  1  0.62568106  0.18078207  0.73324862  1  0.054069  0.000338  0.098451  0.102745  9e-05  0.992135  0.0
H  H27  1  0.44489683  0.62568199  0.89991594  1  0.05376  0.000338  0.098428  0.102691  9e-05  0.992134  0.0
H  H28  1  0.18079320  0.55510092  0.56658427  1  0.049296  0.000339  0.09839  0.102616  9e-05  0.992126  0.0
H  H29  1  0.37431883  0.81921853  0.23324847  1  0.054041  0.000338  0.098415  0.102685  9e-05  0.992097  0.0
H  H30  1  0.78631552  0.06887880  0.89077099  1  0.061594  0.001066  0.093286  0.122308  0.000591  1.043188  0.0
H  H31  1  0.93112452  0.71743334  0.22410188  1  0.048793  0.001089  0.093271  0.122311  0.000591  1.043106  0.0
H  H32  1  0.28256208  0.21368581  0.55744038  1  0.050061  0.001105  0.093282  0.12229  0.000591  1.04319  0.0
H  H33  1  0.21368552  0.93112102  0.39077107  1  0.061589  0.001066  0.093283  0.122315  0.000591  1.043183  0.0
H  H34  1  0.06887494  0.28256560  0.72410188  1  0.048752  0.001089  0.093257  0.122289  0.000591  1.043073  0.0
H  H35  1  0.71743684  0.78631328  0.05743999  1  0.050065  0.001105  0.093281  0.122289  0.000591  1.043183  0.0
H  H36  1  0.06888224  0.78632033  0.44256089  1  0.061413  0.001066  0.09328  0.122312  0.000591  1.043181  0.0
H  H37  1  0.71743941  0.93111782  0.10923127  1  0.048877  0.001089  0.093319  0.12236  0.000591  1.043146  0.0
H  H38  1  0.21368640  0.28255951  0.77589998  1  0.050366  0.001104  0.093276  0.122299  0.000591  1.043066  0.0
H  H39  1  0.93111774  0.21367859  0.94256102  1  0.06141  0.001066  0.093282  0.122319  0.000591  1.043163  0.0
H  H40  1  0.28256173  0.06888125  0.60923144  1  0.048723  0.001089  0.093313  0.122369  0.000591  1.0431  0.0
H  H41  1  0.78631409  0.71744061  0.27589999  1  0.050343  0.001104  0.093302  0.122329  0.000591  1.043079  0.0
H  H42  1  0.63994316  0.88132577  0.87652026  1  0.022148  4.9e-05  0.096734  0.13951  -3e-05  0.996025  0.0
H  H43  1  0.11867743  0.75860788  0.20985135  1  0.044587  4.6e-05  0.09675  0.13953  -3e-05  0.995879  0.0
H  H44  1  0.24138160  0.36005981  0.54319023  1  0.044106  4.6e-05  0.096795  0.139571  -3e-05  0.996129  0.0
H  H45  1  0.36005668  0.11867522  0.37652024  1  0.022148  4.9e-05  0.09673  0.139507  -3e-05  0.996029  0.0
H  H46  1  0.88132203  0.24139102  0.70985149  1  0.044588  4.6e-05  0.096751  0.139534  -3e-05  0.995881  0.0
H  H47  1  0.75861629  0.63993820  0.04318983  1  0.04409  4.6e-05  0.096789  0.139575  -3e-05  0.996072  0.0
H  H48  1  0.88132609  0.63994916  0.45681204  1  0.022139  4.9e-05  0.096772  0.139514  -3e-05  0.996088  0.0
H  H49  1  0.75862587  0.11867122  0.12348324  1  0.044609  4.6e-05  0.096769  0.139488  -3e-05  0.996021  0.0
H  H50  1  0.36005887  0.24138101  0.79015116  1  0.043632  4.6e-05  0.096758  0.139424  -3e-05  0.995962  0.0
H  H51  1  0.11867329  0.36005040  0.95681204  1  0.02215  4.9e-05  0.096779  0.139538  -3e-05  0.996076  0.0
H  H52  1  0.24137363  0.88132745  0.62348329  1  0.044611  4.6e-05  0.096789  0.139529  -3e-05  0.995993  0.0
H  H53  1  0.63994161  0.75861914  0.29015119  1  0.043634  4.6e-05  0.096735  0.139395  -3e-05  0.996008  0.0
H  H54  1  0.76465804  0.88499562  0.90384489  1  0.057853  0.000123  0.096202  0.140756  -1.9e-05  0.982595  0.0
H  H55  1  0.11501020  0.87966600  0.23717412  1  0.066322  0.000123  0.09622  0.14078  -1.9e-05  0.982495  0.0
H  H56  1  0.12033910  0.23534552  0.57051486  1  0.024378  0.000128  0.096244  0.140804  -1.9e-05  0.98265  0.0
H  H57  1  0.23534076  0.11500440  0.40384487  1  0.057846  0.000123  0.096197  0.14075  -1.9e-05  0.982588  0.0
H  H58  1  0.88499030  0.12033401  0.73717404  1  0.066316  0.000123  0.096228  0.140797  -1.9e-05  0.982479  0.0
H  H59  1  0.87965981  0.76465360  0.07051446  1  0.024391  0.000128  0.096185  0.140713  -1.9e-05  0.982703  0.0
H  H60  1  0.88499674  0.76465872  0.42948660  1  0.058083  0.000123  0.096175  0.140698  -1.9e-05  0.982658  0.0
H  H61  1  0.87966368  0.11500161  0.09615716  1  0.066305  0.000123  0.096203  0.140741  -1.9e-05  0.982523  0.0
H  H62  1  0.23534061  0.12032993  0.76282715  1  0.024339  0.000128  0.096231  0.140801  -1.9e-05  0.982448  0.0
H  H63  1  0.11500369  0.23534180  0.92948658  1  0.05808  0.000123  0.096182  0.140725  -1.9e-05  0.982638  0.0
H  H64  1  0.12033687  0.88499802  0.59615702  1  0.066296  0.000123  0.096215  0.140778  -1.9e-05  0.982528  0.0
H  H65  1  0.76465884  0.87966911  0.26282719  1  0.024356  0.000128  0.096237  0.140802  -1.9e-05  0.982453  0.0
H  H66  1  0.21548098  0.85865641  0.97715710  1  0.062537  0.000126  0.10167  0.148306  7e-06  0.976821  0.0
H  H67  1  0.14134147  0.35682172  0.31048835  1  0.060182  0.000125  0.10162  0.148243  7e-06  0.977007  0.0
H  H68  1  0.64317937  0.78452022  0.64382603  1  0.05199  0.000127  0.101643  0.148255  7e-06  0.976862  0.0
H  H69  1  0.78451944  0.14134425  0.47715705  1  0.062542  0.000126  0.101672  0.148306  7e-06  0.976831  0.0
H  H70  1  0.85865900  0.64317849  0.81048833  1  0.06018  0.000125  0.101619  0.148241  7e-06  0.977013  0.0
H  H71  1  0.35682116  0.21547954  0.14382602  1  0.051997  0.000127  0.101642  0.148245  7e-06  0.976873  0.0
H  H72  1  0.85866139  0.21548716  0.35617519  1  0.062506  0.000126  0.101644  0.148256  7e-06  0.976844  0.0
H  H73  1  0.35683399  0.14134185  0.02284581  1  0.060247  0.000125  0.101665  0.148277  7e-06  0.977026  0.0
H  H74  1  0.78451101  0.64317230  0.68951351  1  0.051294  0.000127  0.101619  0.148234  7e-06  0.97708  0.0
H  H75  1  0.14134027  0.78451196  0.85617565  1  0.062547  0.000126  0.101648  0.14825  7e-06  0.976832  0.0
H  H76  1  0.64316658  0.85865759  0.52284563  1  0.06025  0.000125  0.101641  0.148246  7e-06  0.977021  0.0
H  H77  1  0.21548890  0.35682819  0.18951353  1  0.05128  0.000127  0.101583  0.148169  7e-06  0.977071  0.0
H  H78  1  0.21244522  0.67438323  0.97234571  1  0.074813  0.000305  0.098093  0.142964  9.7e-05  1.004253  0.0
H  H79  1  0.32561538  0.53805718  0.30567843  1  0.073111  0.000304  0.098091  0.142937  9.7e-05  1.00421  0.0
H  H80  1  0.46194303  0.78755611  0.63901507  1  0.073861  0.000305  0.098088  0.143002  9.7e-05  1.004178  0.0
H  H81  1  0.78755519  0.32561741  0.47234568  1  0.074803  0.000305  0.098087  0.142945  9.7e-05  1.004277  0.0
H  H82  1  0.67438406  0.46194197  0.80567840  1  0.07311  0.000304  0.09809  0.142941  9.7e-05  1.004199  0.0
H  H83  1  0.53805691  0.21244424  0.13901505  1  0.073852  0.000305  0.098086  0.142993  9.7e-05  1.0042  0.0
H  H84  1  0.67438898  0.21245232  0.36098596  1  0.074707  0.000304  0.098077  0.142987  9.7e-05  1.004245  0.0
H  H85  1  0.53806856  0.32561458  0.02765657  1  0.072975  0.000304  0.098063  0.142933  9.7e-05  1.004212  0.0
H  H86  1  0.78754930  0.46193607  0.69432302  1  0.073492  0.000305  0.098089  0.142953  9.7e-05  1.004165  0.0
H  H87  1  0.32561372  0.78754786  0.86098640  1  0.074718  0.000304  0.098069  0.14293  9.7e-05  1.004281  0.0
H  H88  1  0.46193038  0.67438443  0.52765638  1  0.07296  0.000304  0.098059  0.142927  9.7e-05  1.004207  0.0
H  H89  1  0.21245002  0.53806502  0.19432326  1  0.073514  0.000305  0.098066  0.142912  9.7e-05  1.004163  0.0
H  H90  1  0.11279914  0.73256636  0.94826669  1  0.080804  0.000923  0.097851  0.140176  0.000322  1.00029  0.001
H  H91  1  0.26743496  0.38023575  0.28159773  1  0.028172  0.000945  0.097865  0.140188  0.000322  1.000346  0.001
H  H92  1  0.61977322  0.88720521  0.61493542  1  0.078865  0.000923  0.097833  0.14013  0.000322  1.000223  0.001
H  H93  1  0.88720024  0.26743317  0.44826644  1  0.080827  0.000923  0.097868  0.140177  0.000322  1.000298  0.001
H  H94  1  0.73256552  0.61976438  0.78159772  1  0.028174  0.000945  0.097865  0.140183  0.000322  1.00036  0.001
H  H95  1  0.38022612  0.11279568  0.11493540  1  0.078861  0.000923  0.097878  0.140207  0.000322  1.000321  0.001
H  H96  1  0.73256518  0.11279693  0.38506477  1  0.080666  0.000923  0.097862  0.140164  0.000322  1.00038  0.001
H  H97  1  0.38023618  0.26743660  0.05173478  1  0.028186  0.000945  0.097873  0.140194  0.000322  1.000331  0.001
H  H98  1  0.88719833  0.61976000  0.71840309  1  0.078919  0.000922  0.097837  0.140104  0.000322  1.000437  0.001
H  H99  1  0.26743691  0.88720392  0.88506524  1  0.080992  0.000923  0.097889  0.140217  0.000322  1.000271  0.001
H  H100  1  0.61976274  0.73256247  0.55173479  1  0.02818  0.000945  0.097867  0.140193  0.000322  1.000345  0.001
H  H101  1  0.11280217  0.38023996  0.21840311  1  0.07892  0.000922  0.097849  0.140125  0.000322  1.000437  0.001
H  H102  1  0.84829817  0.72858257  0.95275934  1  0.086936  0.000378  0.104005  0.106642  7.2e-05  1.010564  0.0
H  H103  1  0.27140348  0.11970043  0.28608770  1  0.085572  0.000374  0.10399  0.106552  7.2e-05  1.010571  0.0
H  H104  1  0.88029063  0.15170419  0.61942681  1  0.074387  0.00038  0.104034  0.106692  7.2e-05  1.010595  0.0
H  H105  1  0.15170286  0.27141741  0.45275935  1  0.086961  0.000378  0.104011  0.106653  7.2e-05  1.010581  0.0
H  H106  1  0.72859536  0.88029928  0.78608793  1  0.085415  0.000374  0.104007  0.106577  7.2e-05  1.010566  0.0
H  H107  1  0.11970871  0.84829671  0.11942667  1  0.074407  0.00038  0.104037  0.106709  7.2e-05  1.010583  0.0
H  H108  1  0.72858186  0.84829586  0.38057483  1  0.086914  0.000379  0.104025  0.106685  7.2e-05  1.01056  0.0
H  H109  1  0.11971831  0.27142037  0.04724211  1  0.085485  0.000374  0.103992  0.106622  7.2e-05  1.010578  0.0
H  H110  1  0.15170367  0.88029375  0.71391335  1  0.074428  0.00038  0.104013  0.106643  7.2e-05  1.010582  0.0
H  H111  1  0.27141695  0.15170409  0.88057438  1  0.086924  0.000379  0.104012  0.106667  7.2e-05  1.010575  0.0
H  H112  1  0.88028165  0.72857973  0.54724210  1  0.085479  0.000374  0.103986  0.106613  7.2e-05  1.010585  0.0
H  H113  1  0.84829728  0.11970784  0.21391330  1  0.07441  0.00038  0.104032  0.106674  7.2e-05  1.010566  0.0
H  H114  1  0.87583875  0.98564150  0.97072757  1  0.058475  -9e-06  0.106662  0.12293  -5.2e-05  1.007974  0.0
H  H115  1  0.01434604  0.89018665  0.30405742  1  0.058472  -9e-06  0.106672  0.122914  -5.2e-05  1.007862  0.0
H  H116  1  0.10980733  0.12416529  0.63739546  1  0.056529  -9e-06  0.106654  0.122868  -5.2e-05  1.00789  0.0
H  H117  1  0.12416226  0.01435853  0.47072734  1  0.058478  -9e-06  0.106659  0.122927  -5.2e-05  1.007956  0.0
H  H118  1  0.98565279  0.10981310  0.80405733  1  0.058493  -9e-06  0.106688  0.122933  -5.2e-05  1.0079  0.0
H  H119  1  0.89019156  0.87583402  0.13739549  1  0.056539  -9e-06  0.106667  0.122889  -5.2e-05  1.007879  0.0
H  H120  1  0.98563725  0.87583630  0.36260537  1  0.058589  -9e-06  0.106682  0.122948  -5.2e-05  1.007916  0.0
H  H121  1  0.89020200  0.01436361  0.02927324  1  0.058635  -9e-06  0.10665  0.12291  -5.2e-05  1.007937  0.0
H  H122  1  0.12416069  0.10980578  0.69594323  1  0.056393  -9e-06  0.106679  0.122877  -5.2e-05  1.007835  0.0
H  H123  1  0.01436321  0.12416404  0.86260473  1  0.058795  -9e-06  0.106688  0.122951  -5.2e-05  1.007912  0.0
H  H124  1  0.10979737  0.98563704  0.52927331  1  0.05863  -9e-06  0.106667  0.122932  -5.2e-05  1.0079  0.0
H  H125  1  0.87584086  0.89019516  0.19594347  1  0.056378  -9e-06  0.106659  0.122825  -5.2e-05  1.007864  0.0
H  H126  1  0.41939185  0.71804889  0.01169145  1  0.111426  0.000195  0.106176  0.118703  3.2e-05  1.047788  0.0
H  H127  1  0.28194841  0.70134323  0.34502189  1  0.111354  0.000197  0.10617  0.118655  3.3e-05  1.047755  0.0
H  H128  1  0.29865603  0.58060654  0.67836058  1  0.105315  0.000194  0.106197  0.118726  3.3e-05  1.047736  0.0
H  H129  1  0.58060813  0.28195111  0.51169162  1  0.111418  0.000195  0.106226  0.118752  3.2e-05  1.047708  0.0
H  H130  1  0.71805309  0.29865811  0.84502204  1  0.111327  0.000197  0.106152  0.118617  3.3e-05  1.047814  0.0
H  H131  1  0.70134449  0.41939331  0.17836099  1  0.105288  0.000194  0.10619  0.118697  3.3e-05  1.047763  0.0
H  H132  1  0.71804106  0.41939448  0.32164004  1  0.111425  0.000195  0.106188  0.118726  3.2e-05  1.047675  0.0
H  H133  1  0.70135014  0.28195779  0.98830875  1  0.111259  0.000197  0.10617  0.118671  3.2e-05  1.047667  0.0
H  H134  1  0.58060682  0.29864804  0.65497895  1  0.105516  0.000194  0.106111  0.11852  3.2e-05  1.047907  0.0
H  H135  1  0.28196045  0.58060680  0.82163984  1  0.111394  0.000195  0.106227  0.118797  3.2e-05  1.047585  0.0
H  H136  1  0.29864923  0.71804185  0.48830880  1  0.111259  0.000197  0.106169  0.118661  3.2e-05  1.047688  0.0
H  H137  1  0.41939371  0.70135175  0.15497940  1  0.105506  0.000194  0.106124  0.118539  3.2e-05  1.047875  0.0
H  H138  1  0.39334073  0.45930799  0.99401128  1  0.114798  3e-05  0.105926  0.108517  -4.4e-05  1.004902  0.0
H  H139  1  0.54068661  0.93403745  0.32734071  1  0.104501  3e-05  0.105868  0.108378  -4.4e-05  1.00498  0.0
H  H140  1  0.06596325  0.60665377  0.66068128  1  0.10346  3e-05  0.105919  0.10848  -4.4e-05  1.00489  0.0
H  H141  1  0.60666028  0.54069211  0.49401128  1  0.1148  3e-05  0.105922  0.108528  -4.4e-05  1.004872  0.0
H  H142  1  0.45931222  0.06596236  0.82734066  1  0.104492  3e-05  0.105863  0.108354  -4.4e-05  1.004983  0.0
H  H143  1  0.93403727  0.39334603  0.16068104  1  0.103451  3e-05  0.105928  0.108467  -4.4e-05  1.004903  0.0
H  H144  1  0.45930039  0.39334773  0.33931998  1  0.11473  3e-05  0.105911  0.108481  -4.4e-05  1.004953  0.0
H  H145  1  0.93404007  0.54069702  0.00598996  1  0.104336  3e-05  0.10595  0.108535  -4.4e-05  1.004908  0.0
H  H146  1  0.60665013  0.06595149  0.67266073  1  0.103739  3e-05  0.105879  0.108409  -4.4e-05  1.004856  0.0
H  H147  1  0.54070007  0.60665256  0.83932039  1  0.114733  3e-05  0.105901  0.108497  -4.4e-05  1.004943  0.0
H  H148  1  0.06595991  0.45930298  0.50599018  1  0.104336  3e-05  0.10595  0.108533  -4.4e-05  1.004909  0.0
H  H149  1  0.39335039  0.93404834  0.17266080  1  0.103747  3e-05  0.105889  0.108404  -4.4e-05  1.004851  0.0
C  C150  1  0.57995436  0.93592912  0.91632583  1  0.403596  0.004128  0.094898  0.204324  0.002479  4.021421  0.004
C  C151  1  0.06407336  0.64402908  0.24965815  1  0.430995  0.004107  0.094808  0.204233  0.002477  4.021596  0.004
C  C152  1  0.35597813  0.42004631  0.58299476  1  0.409383  0.004114  0.094955  0.20417  0.002478  4.02157  0.004
C  C153  1  0.42004503  0.06407033  0.41632580  1  0.403512  0.004129  0.094891  0.204281  0.002479  4.021442  0.004
C  C154  1  0.93592445  0.35596948  0.74965809  1  0.430975  0.004107  0.09481  0.204233  0.002478  4.02148  0.004
C  C155  1  0.64402198  0.57995165  0.08299457  1  0.409368  0.004114  0.094974  0.204252  0.002478  4.021513  0.004
C  C156  1  0.93592956  0.57995207  0.41700751  1  0.403659  0.004127  0.094908  0.20439  0.002478  4.021482  0.004
C  C157  1  0.64402639  0.06407303  0.08367789  1  0.430621  0.004108  0.094791  0.204245  0.002478  4.021663  0.004
C  C158  1  0.42004328  0.35596692  0.75034477  1  0.409076  0.004114  0.09485  0.204321  0.002477  4.021687  0.004
C  C159  1  0.06407147  0.42004782  0.91700731  1  0.403651  0.004126  0.094884  0.204343  0.002477  4.021546  0.004
C  C160  1  0.35597357  0.93592717  0.58367793  1  0.430625  0.004108  0.094799  0.204265  0.002478  4.021657  0.004
C  C161  1  0.57995781  0.64403253  0.25034479  1  0.40909  0.004114  0.094833  0.204312  0.002477  4.021608  0.004
C  C162  1  0.43895189  0.80126788  0.92608435  1  0.068508  0.008101  -0.032635  -0.117095  0.004187  3.962871  0.005
C  C163  1  0.19873563  0.63769116  0.25941707  1  -0.003356  0.008184  -0.032593  -0.11702  0.004187  3.96295  0.005
C  C164  1  0.36231817  0.56104776  0.59275246  1  0.087444  0.008083  -0.032652  -0.117009  0.004187  3.962904  0.005
C  C165  1  0.56104854  0.19873264  0.42608432  1  0.068533  0.008101  -0.032628  -0.11702  0.004187  3.962773  0.005
C  C166  1  0.80126322  0.36230847  0.75941702  1  -0.003334  0.008184  -0.032636  -0.117047  0.004187  3.962881  0.005
C  C167  1  0.63768238  0.43895187  0.09275224  1  0.087606  0.008083  -0.032664  -0.117036  0.004187  3.96291  0.005
C  C168  1  0.80126553  0.43894822  0.40724961  1  0.068399  0.008102  -0.032678  -0.117149  0.004187  3.96283  0.005
C  C169  1  0.63768713  0.19873628  0.07392041  1  -0.003355  0.008184  -0.032744  -0.117126  0.004187  3.962705  0.005
C  C170  1  0.56104285  0.36230496  0.74058625  1  0.087323  0.008083  -0.032796  -0.117161  0.004187  3.962822  0.005
C  C171  1  0.19873491  0.56105225  0.90724983  1  0.068378  0.008103  -0.032627  -0.117046  0.004187  3.962867  0.005
C  C172  1  0.36231178  0.80126285  0.57392045  1  -0.00336  0.008185  -0.032718  -0.117073  0.004188  3.962675  0.005
C  C173  1  0.43895765  0.63769506  0.24058607  1  0.087351  0.008084  -0.032812  -0.117184  0.004187  3.962684  0.005
C  C174  1  0.37008340  0.86161670  0.94476530  1  0.409769  0.010478  0.105802  0.209019  0.005681  3.966706  0.007
C  C175  1  0.13838259  0.50846731  0.27809822  1  0.43692  0.010448  0.105819  0.208951  0.00568  3.966938  0.007
C  C176  1  0.49153492  0.62991929  0.61143403  1  0.372327  0.010519  0.105821  0.208967  0.005681  3.966827  0.007
C  C177  1  0.62991702  0.13838387  0.44476526  1  0.409564  0.010479  0.105775  0.208985  0.005681  3.966706  0.007
C  C178  1  0.86161625  0.49153237  0.77809819  1  0.43693  0.010449  0.105814  0.208913  0.00568  3.966932  0.007
C  C179  1  0.50846623  0.37007978  0.11143402  1  0.372527  0.01052  0.105848  0.209008  0.005681  3.966777  0.007
C  C180  1  0.86161492  0.37008150  0.38856845  1  0.410086  0.010475  0.105899  0.209142  0.00568  3.96662  0.007
C  C181  1  0.50846848  0.13838618  0.05523822  1  0.436947  0.010449  0.105904  0.209073  0.005681  3.966745  0.007
C  C182  1  0.62991285  0.49152723  0.72190510  1  0.372912  0.010515  0.105911  0.209005  0.005679  3.966862  0.007
C  C183  1  0.13838701  0.62992160  0.88856785  1  0.410083  0.010475  0.10591  0.209135  0.00568  3.966719  0.007
C  C184  1  0.49153148  0.86161394  0.55523805  1  0.436966  0.01045  0.1059  0.209056  0.005681  3.966778  0.007
C  C185  1  0.37008766  0.50847274  0.22190491  1  0.372913  0.010516  0.10594  0.209046  0.005679  3.96693  0.007
C  C186  1  0.36959835  0.63039170  0.91666833  1  -0.019917  0.001583  -0.147426  -0.154058  0.000859  3.991567  0.001
C  C187  1  0.36960945  0.73921782  0.25000251  1  0.008511  0.001559  -0.147451  -0.154072  0.000859  3.99162  0.001
C  C188  1  0.26078984  0.63039279  0.58333790  1  0.009302  0.001559  -0.147417  -0.154057  0.000859  3.991471  0.001
C  C189  1  0.63040045  0.36960835  0.41666831  1  -0.019925  0.001583  -0.14744  -0.154127  0.000859  3.991576  0.001
C  C190  1  0.63038940  0.26078178  0.75000246  1  0.008463  0.001559  -0.14743  -0.154071  0.000859  3.991735  0.001
C  C191  1  0.73920803  0.36960533  0.08333788  1  0.009085  0.001559  -0.147379  -0.15404  0.000859  3.991418  0.001
C  C192  1  0.69921492  0.94335806  0.89581896  1  -0.035621  0.001612  -0.231955  -0.423024  0.000862  3.969447  0.001
C  C193  1  0.05664610  0.75585649  0.22914984  1  -0.056095  0.001601  -0.231932  -0.423017  0.000862  3.969194  0.001
C  C194  1  0.24414248  0.30078390  0.56248830  1  -0.007214  0.001593  -0.232065  -0.423034  0.000862  3.969638  0.001
C  C195  1  0.30078448  0.05664133  0.39581894  1  -0.035614  0.001612  -0.231945  -0.423021  0.000862  3.96945  0.001
C  C196  1  0.94335336  0.24414245  0.72914977  1  -0.05606  0.001601  -0.231949  -0.423034  0.000862  3.969148  0.001
C  C197  1  0.75585747  0.69921624  0.06248832  1  -0.007211  0.001592  -0.232007  -0.422973  0.000862  3.969564  0.001
C  C198  1  0.94335978  0.69921740  0.43751335  1  -0.035652  0.001613  -0.231958  -0.422962  0.000862  3.969649  0.001
C  C199  1  0.75585941  0.05664048  0.10418413  1  -0.056112  0.001601  -0.23199  -0.42301  0.000862  3.969368  0.001
C  C200  1  0.30078481  0.24413778  0.77085267  1  -0.007043  0.001594  -0.231941  -0.422901  0.000862  3.969087  0.001
C  C201  1  0.05663961  0.30078211  0.93751314  1  -0.03565  0.001613  -0.231982  -0.423033  0.000862  3.969563  0.001
C  C202  1  0.24413890  0.94335933  0.60418398  1  -0.05596  0.001601  -0.232029  -0.423128  0.000862  3.969372  0.001
C  C203  1  0.69921568  0.75586232  0.27085270  1  -0.007043  0.001594  -0.231944  -0.422903  0.000862  3.96916  0.001
C  C204  1  0.22011893  0.77840474  0.96148789  1  -0.088747  0.000726  -0.22964  -0.424215  0.000383  3.954485  0.0
C  C205  1  0.22159486  0.44171122  0.29482039  1  -0.03348  0.000705  -0.229589  -0.424101  0.000383  3.954675  0.0
C  C206  1  0.55828881  0.77987948  0.62815662  1  -0.072959  0.00072  -0.229612  -0.424159  0.000383  3.954507  0.0
C  C207  1  0.77987985  0.22159543  0.46148805  1  -0.088574  0.000726  -0.229663  -0.424206  0.000383  3.954534  0.0
C  C208  1  0.77840562  0.55828895  0.79482036  1  -0.033483  0.000705  -0.229606  -0.424116  0.000383  3.954711  0.0
C  C209  1  0.44171129  0.22011860  0.12815681  1  -0.073166  0.00072  -0.229672  -0.424234  0.000383  3.954612  0.0
C  C210  1  0.77840605  0.22012029  0.37184441  1  -0.088323  0.000726  -0.229602  -0.424163  0.000383  3.954559  0.0
C  C211  1  0.44171849  0.22159612  0.03851378  1  -0.033297  0.000705  -0.229659  -0.424203  0.000383  3.954774  0.0
C  C212  1  0.77987856  0.55828408  0.70518148  1  -0.071657  0.00072  -0.22957  -0.424013  0.000383  3.954701  0.0
C  C213  1  0.22159456  0.77987783  0.87184465  1  -0.088713  0.000726  -0.22965  -0.424194  0.000383  3.954587  0.0
C  C214  1  0.55828104  0.77840232  0.53851380  1  -0.033289  0.000704  -0.229623  -0.424172  0.000383  3.954763  0.0
C  C215  1  0.22012135  0.44171645  0.20518150  1  -0.071666  0.00072  -0.229565  -0.423982  0.000383  3.954754  0.0
C  C216  1  0.61874121  0.57863355  0.97209177  1  -0.051493  0.005308  -0.030318  -0.072424  0.002756  4.008886  0.004
C  C217  1  0.42135335  0.04010422  0.30542136  1  -0.039691  0.005301  -0.030347  -0.072341  0.002756  4.008585  0.004
C  C218  1  0.95989526  0.38126027  0.63876049  1  -0.040191  0.005303  -0.03025  -0.072372  0.002756  4.009004  0.004
C  C219  1  0.38125981  0.42136649  0.47209178  1  -0.051338  0.005307  -0.030301  -0.072376  0.002756  4.008869  0.004
C  C220  1  0.57864652  0.95989657  0.80542161  1  -0.039697  0.005301  -0.030322  -0.07237  0.002756  4.008684  0.004
C  C221  1  0.04010363  0.61873904  0.13876054  1  -0.03981  0.005303  -0.030315  -0.072528  0.002756  4.009226  0.004
C  C222  1  0.57862931  0.61874048  0.36124136  1  -0.051502  0.005309  -0.030307  -0.072416  0.002757  4.008863  0.004
C  C223  1  0.04011287  0.42137057  0.02790970  1  -0.039844  0.005302  -0.030339  -0.072425  0.002757  4.00887  0.004
C  C224  1  0.38125421  0.95989381  0.69457968  1  -0.039544  0.005303  -0.03032  -0.072445  0.002757  4.008727  0.004
C  C225  1  0.42136994  0.38126106  0.86124155  1  -0.05139  0.005308  -0.030321  -0.072444  0.002757  4.008972  0.004
C  C226  1  0.95988710  0.57862948  0.52790966  1  -0.039813  0.005302  -0.030339  -0.072449  0.002757  4.008772  0.004
C  C227  1  0.61874674  0.04010773  0.19457984  1  -0.039536  0.005304  -0.03033  -0.072454  0.002757  4.008661  0.004
C  C228  1  0.75546538  0.72719218  0.96590397  1  0.036625  0.00095  -0.08229  -0.064396  0.00044  3.98225  0.001
C  C229  1  0.27279220  0.02826417  0.29923378  1  0.017852  0.000948  -0.0823  -0.064297  0.00044  3.982356  0.001
C  C230  1  0.97172945  0.24453405  0.63257164  1  0.037493  0.000945  -0.08233  -0.064536  0.00044  3.982306  0.001
C  C231  1  0.24453460  0.27280680  0.46590397  1  0.036599  0.00095  -0.082326  -0.064456  0.00044  3.982302  0.001
C  C232  1  0.72720932  0.97173705  0.79923401  1  0.018031  0.000948  -0.082316  -0.064317  0.00044  3.982379  0.001
C  C233  1  0.02826944  0.75546524  0.13257171  1  0.03753  0.000945  -0.082371  -0.064593  0.00044  3.982383  0.001
C  C234  1  0.72718807  0.75546456  0.36742958  1  0.0366  0.000949  -0.082287  -0.064461  0.00044  3.982251  0.001
C  C235  1  0.02827457  0.27281008  0.03409707  1  0.017843  0.000947  -0.082289  -0.06444  0.00044  3.982342  0.001
C  C236  1  0.24452538  0.97173028  0.70076707  1  0.037567  0.000945  -0.082437  -0.06458  0.00044  3.982425  0.001
C  C237  1  0.27281134  0.24453476  0.86742955  1  0.036528  0.000949  -0.082256  -0.064408  0.00044  3.982207  0.001
C  C238  1  0.97172480  0.72719058  0.53409706  1  0.017842  0.000947  -0.08228  -0.064428  0.00044  3.982326  0.001
C  C239  1  0.75547557  0.02827127  0.20076722  1  0.037608  0.000945  -0.082497  -0.06473  0.00044  3.98253  0.001
C  C240  1  0.77106193  0.87018684  0.97583778  1  0.005733  -8.4e-05  -0.10435  -0.217069  -0.000193  4.012116  0.0
C  C241  1  0.12980509  0.90086942  0.30916763  1  0.021489  -8.4e-05  -0.104321  -0.217022  -0.000193  4.012143  0.0
C  C242  1  0.09912643  0.22894212  0.64250568  1  -0.039867  -8.2e-05  -0.104224  -0.21672  -0.000193  4.011841  0.0
C  C243  1  0.22893849  0.12981381  0.47583756  1  0.005726  -8.4e-05  -0.104336  -0.217043  -0.000193  4.012025  0.0
C  C244  1  0.87019374  0.09913034  0.80916734  1  0.021429  -8.4e-05  -0.1043  -0.216975  -0.000193  4.012084  0.0
C  C245  1  0.90087306  0.77105659  0.14250611  1  -0.056746  -8.2e-05  -0.104234  -0.216717  -0.000193  4.011902  0.0
C  C246  1  0.87017920  0.77105866  0.35749515  1  0.005725  -8.4e-05  -0.104342  -0.216968  -0.000193  4.011986  0.0
C  C247  1  0.90088098  0.12981996  0.02416344  1  0.021814  -8.4e-05  -0.104357  -0.217019  -0.000193  4.012055  0.0
C  C248  1  0.22893889  0.09912377  0.69083322  1  -0.04059  -8.2e-05  -0.104254  -0.216815  -0.000193  4.011972  0.0
C  C249  1  0.12982022  0.22894063  0.85749472  1  0.00551  -8.4e-05  -0.104342  -0.216944  -0.000193  4.011979  0.0
C  C250  1  0.09911900  0.87018008  0.52416330  1  0.021817  -8.4e-05  -0.104349  -0.217011  -0.000193  4.012095  0.0
C  C251  1  0.77106207  0.90087776  0.19083347  1  -0.04063  -8.2e-05  -0.104236  -0.216711  -0.000193  4.011944  0.0
C  C252  1  0.64691733  0.86384343  0.99193558  1  0.331725  0.000546  0.090437  0.268618  0.00026  4.041105  0.0
C  C253  1  0.13615101  0.78307198  0.32526687  1  0.391853  0.000539  0.090387  0.268516  0.000259  4.041202  0.0
C  C254  1  0.21692570  0.35308244  0.65860431  1  0.399413  0.000543  0.090413  0.268563  0.000259  4.040988  0.0
C  C255  1  0.35308368  0.13615666  0.49193556  1  0.331716  0.000546  0.090448  0.268613  0.000259  4.041045  0.0
C  C256  1  0.86384946  0.21692826  0.82526619  1  0.391875  0.000539  0.090317  0.268444  0.00026  4.041181  0.0
C  C257  1  0.78307378  0.64691632  0.15860473  1  0.416259  0.000542  0.090365  0.268429  0.000259  4.041192  0.0
C  C258  1  0.86383586  0.64691423  0.34139672  1  0.331603  0.000545  0.090375  0.268522  0.000259  4.041254  0.0
C  C259  1  0.78307588  0.13616072  0.00806523  1  0.391975  0.000538  0.090423  0.268595  0.000259  4.041172  0.0
C  C260  1  0.35307868  0.21692354  0.67473501  1  0.400199  0.000542  0.090292  0.268401  0.000259  4.041332  0.0
C  C261  1  0.13616521  0.35308546  0.84139631  1  0.331586  0.000545  0.090346  0.268456  0.000259  4.041261  0.0
C  C262  1  0.21692350  0.86383988  0.50806507  1  0.39197  0.000538  0.090393  0.268566  0.000259  4.041226  0.0
C  C263  1  0.64692140  0.78307466  0.17473525  1  0.400254  0.000542  0.090302  0.268395  0.000259  4.041309  0.0
C  C264  1  0.51191307  0.71722594  0.99885681  1  -0.021007  0.000938  -0.099884  -0.197205  0.000524  3.983474  0.001
C  C265  1  0.28276422  0.79468583  0.33218769  1  -0.068684  0.000944  -0.099807  -0.197061  0.000524  3.983413  0.001
C  C266  1  0.20531434  0.48808850  0.66552576  1  -0.023372  0.000941  -0.099913  -0.197347  0.000524  3.983412  0.001
C  C267  1  0.48808794  0.28277417  0.49885680  1  -0.021018  0.000938  -0.099931  -0.197234  0.000524  3.983411  0.001
C  C268  1  0.71723608  0.20531667  0.83218804  1  -0.06869  0.000944  -0.099826  -0.197068  0.000524  3.983419  0.001
C  C269  1  0.79468679  0.51191071  0.16552596  1  -0.023421  0.000941  -0.09984  -0.197243  0.000524  3.983592  0.001
C  C270  1  0.71722032  0.51191214  0.33447569  1  -0.021062  0.000939  -0.099863  -0.19725  0.000524  3.983555  0.001
C  C271  1  0.79469171  0.28277579  0.00114442  1  -0.068736  0.000944  -0.099793  -0.19707  0.000524  3.983392  0.001
C  C272  1  0.48808512  0.20531004  0.66781398  1  -0.023449  0.000942  -0.099785  -0.197018  0.000524  3.983447  0.001
C  C273  1  0.28278119  0.48808917  0.83447549  1  -0.021038  0.000939  -0.099889  -0.19726  0.000524  3.983407  0.001
C  C274  1  0.20530827  0.71722419  0.50114425  1  -0.068732  0.000944  -0.099791  -0.197061  0.000524  3.983379  0.001
C  C275  1  0.51191600  0.79468918  0.16781402  1  -0.023464  0.000942  -0.099772  -0.197027  0.000524  3.983345  0.001
C  C276  1  0.49822636  0.57500371  0.98898219  1  -0.045619  0.001323  -0.080739  -0.073334  0.000615  3.990245  0.001
C  C277  1  0.42498920  0.92321610  0.32231308  1  -0.043866  0.001326  -0.080657  -0.073202  0.000615  3.98985  0.001
C  C278  1  0.07677749  0.50176860  0.65565136  1  -0.045057  0.001332  -0.080778  -0.073281  0.000615  3.990256  0.001
C  C279  1  0.50177361  0.42499533  0.48898199  1  -0.045782  0.001324  -0.080732  -0.073344  0.000615  3.990339  0.001
C  C280  1  0.57501127  0.07678413  0.82231322  1  -0.043859  0.001326  -0.080625  -0.073109  0.000615  3.989831  0.001
C  C281  1  0.92322200  0.49823015  0.15565155  1  -0.045032  0.001332  -0.080706  -0.073093  0.000615  3.990307  0.001
C  C282  1  0.57499982  0.49822968  0.34434990  1  -0.045632  0.001323  -0.080728  -0.073291  0.000615  3.990301  0.001
C  C283  1  0.92322328  0.42499946  0.01101842  1  -0.043755  0.001325  -0.080763  -0.073366  0.000615  3.990173  0.001
C  C284  1  0.50176775  0.07677100  0.67768858  1  -0.045773  0.001332  -0.080628  -0.073136  0.000615  3.990036  0.001
C  C285  1  0.42500228  0.50177106  0.84435031  1  -0.045647  0.001322  -0.08073  -0.07335  0.000614  3.990247  0.001
C  C286  1  0.07677669  0.57500055  0.51101824  1  -0.043756  0.001325  -0.080761  -0.073359  0.000615  3.990167  0.001
C  C287  1  0.49823277  0.92322885  0.17768843  1  -0.045779  0.001332  -0.080636  -0.073079  0.000615  3.989792  0.001
C  C288  1  0.59880435  0.42684274  0.96001209  1  1.54995  0.003394  0.206836  0.568204  0.003044  4.217724  0.002
C  C289  1  0.57315245  0.17195526  0.29334315  1  1.529121  0.003388  0.206904  0.568138  0.003046  4.217664  0.002
C  C290  1  0.82804248  0.40119261  0.62667979  1  1.537068  0.003341  0.206716  0.568139  0.003043  4.217591  0.002
C  C291  1  0.40119503  0.57315683  0.46001171  1  1.549977  0.003394  0.206825  0.568154  0.003045  4.217721  0.002
C  C292  1  0.42684743  0.82804550  0.79334360  1  1.529074  0.003388  0.206812  0.56806  0.003045  4.2179  0.002
C  C293  1  0.17195625  0.59880891  0.12667963  1  1.536671  0.003341  0.206788  0.568245  0.003042  4.217435  0.002
C  C294  1  0.42684070  0.59880115  0.37332206  1  1.549543  0.003394  0.206805  0.568317  0.003042  4.217522  0.002
C  C295  1  0.17195749  0.57315942  0.03998978  1  1.529485  0.003384  0.206794  0.568226  0.003043  4.217673  0.002
C  C296  1  0.40119984  0.82804478  0.70666016  1  1.53726  0.003348  0.207036  0.568716  0.003043  4.217427  0.002
C  C297  1  0.57315586  0.40119895  0.87332204  1  1.549499  0.003392  0.206867  0.568492  0.003041  4.217467  0.002
C  C298  1  0.82804083  0.42684022  0.53999015  1  1.529511  0.003384  0.206886  0.56837  0.003043  4.217474  0.002
C  C299  1  0.59880111  0.17195679  0.20666054  1  1.53731  0.003348  0.206957  0.568643  0.003044  4.217554  0.002
N  N300  1  0.59661242  0.07047084  0.92842325  1  -0.760947  0.067129  -0.287279  -0.286172  0.035592  3.596281  0.043
N  N301  1  0.92953201  0.52614626  0.26175537  1  -0.766553  0.067119  -0.287304  -0.286253  0.035593  3.596571  0.043
N  N302  1  0.47385883  0.40338817  0.59509263  1  -0.76295  0.067177  -0.287262  -0.286016  0.035591  3.596323  0.043
N  N303  1  0.40338757  0.92952804  0.42842311  1  -0.760886  0.06713  -0.287291  -0.286171  0.035593  3.596294  0.043
N  N304  1  0.07046743  0.47385277  0.76175559  1  -0.766514  0.067119  -0.287298  -0.286266  0.035593  3.596445  0.043
N  N305  1  0.52614068  0.59661041  0.09509265  1  -0.762908  0.067176  -0.287253  -0.286049  0.035591  3.596374  0.043
N  N306  1  0.07046873  0.59661062  0.40490987  1  -0.760903  0.067125  -0.287279  -0.286216  0.035593  3.596401  0.043
N  N307  1  0.52614375  0.92953130  0.07158027  1  -0.766442  0.067121  -0.287332  -0.286306  0.035592  3.59659  0.043
N  N308  1  0.40338530  0.47385130  0.73824773  1  -0.762668  0.067176  -0.287286  -0.286227  0.03559  3.596822  0.043
N  N309  1  0.92953231  0.40338923  0.90490961  1  -0.760869  0.067125  -0.287268  -0.286218  0.035592  3.596403  0.043
N  N310  1  0.47385561  0.07046947  0.57158042  1  -0.766461  0.067123  -0.287344  -0.28633  0.035593  3.596597  0.043
N  N311  1  0.59661476  0.52614707  0.23824794  1  -0.762696  0.067178  -0.287279  -0.286236  0.035591  3.596715  0.043
N  N312  1  0.46826325  0.02258558  0.94549765  1  -0.846859  0.006516  -0.281645  -0.143336  0.00254  3.688516  0.004
N  N313  1  0.97741982  0.44568611  0.27882914  1  -0.845775  0.006495  -0.281603  -0.143166  0.002541  3.688974  0.004
N  N314  1  0.55432600  0.53173825  0.61216704  1  -0.844911  0.006502  -0.28163  -0.14334  0.002541  3.688522  0.004
N  N315  1  0.53173614  0.97741394  0.44549750  1  -0.846849  0.006516  -0.281582  -0.143264  0.00254  3.688566  0.004
N  N316  1  0.02258006  0.55431461  0.77882937  1  -0.845839  0.006495  -0.281561  -0.143081  0.002541  3.688871  0.004
N  N317  1  0.44567395  0.46826202  0.11216725  1  -0.844899  0.006502  -0.281648  -0.143364  0.002541  3.68854  0.004
N  N318  1  0.02258348  0.46826159  0.38783567  1  -0.847569  0.006518  -0.281689  -0.14337  0.002541  3.688651  0.004
N  N319  1  0.44568342  0.97741895  0.05450608  1  -0.845817  0.006494  -0.281467  -0.143081  0.00254  3.688759  0.004
N  N320  1  0.53173329  0.55431020  0.72117395  1  -0.845274  0.006503  -0.281585  -0.143281  0.002541  3.689036  0.004
N  N321  1  0.97741592  0.53173778  0.88783522  1  -0.847563  0.006518  -0.2817  -0.143411  0.002541  3.68856  0.004
N  N322  1  0.55431655  0.02258117  0.55450601  1  -0.845807  0.006494  -0.281456  -0.14305  0.00254  3.688723  0.004
N  N323  1  0.46826617  0.44568872  0.22117416  1  -0.845282  0.006504  -0.28157  -0.143259  0.002542  3.689018  0.004
O  O324  1  0.71635010  0.44549521  0.94422327  1  -1.144372  0.109083  -0.334337  -0.555144  0.055192  2.400795  0.084
O  O325  1  0.55449745  0.27085124  0.27755309  1  -1.146635  0.109139  -0.33444  -0.555289  0.055211  2.400603  0.084
O  O326  1  0.72915959  0.28365916  0.61088827  1  -1.14663  0.108993  -0.334317  -0.55512  0.055192  2.400874  0.084
O  O327  1  0.28365076  0.55450700  0.44422309  1  -1.144531  0.109099  -0.334346  -0.555156  0.055192  2.400841  0.084
O  O328  1  0.44550468  0.72914932  0.77755352  1  -1.146602  0.109137  -0.334415  -0.555241  0.055209  2.400662  0.084
O  O329  1  0.27083811  0.71634127  0.11088832  1  -1.146638  0.108989  -0.334327  -0.555132  0.055191  2.4009  0.084
O  O330  1  0.44549939  0.71632175  0.38911834  1  -1.144268  0.109099  -0.334425  -0.555317  0.055202  2.400818  0.084
O  O331  1  0.27083707  0.55450239  0.05578295  1  -1.147231  0.109125  -0.334326  -0.555236  0.055199  2.400631  0.084
O  O332  1  0.28365865  0.72916754  0.72245375  1  -1.146221  0.109006  -0.334367  -0.555458  0.055211  2.400584  0.084
O  O333  1  0.55449821  0.28367943  0.88911831  1  -1.144239  0.109095  -0.33441  -0.555363  0.0552  2.400775  0.084
O  O334  1  0.72916142  0.44549506  0.55578333  1  -1.147255  0.109122  -0.334394  -0.555321  0.055199  2.400673  0.084
O  O335  1  0.71634065  0.27083364  0.22245392  1  -1.146251  0.109005  -0.33428  -0.555331  0.055211  2.400624  0.084
O  O336  1  0.47572444  0.29370541  0.96545798  1  -1.193726  0.010413  -0.320713  -0.554415  0.004812  2.147274  0.008
O  O337  1  0.70627945  0.18201127  0.29878759  1  -1.177463  0.010399  -0.320727  -0.554288  0.004811  2.14747  0.008
O  O338  1  0.81796834  0.52426976  0.63212983  1  -1.177985  0.010417  -0.320667  -0.554402  0.004813  2.146819  0.008
O  O339  1  0.52427597  0.70629521  0.46545780  1  -1.19371  0.010414  -0.32071  -0.554379  0.004813  2.147265  0.008
O  O340  1  0.29372146  0.81799055  0.79878783  1  -1.177424  0.010398  -0.32066  -0.554236  0.00481  2.147563  0.008
O  O341  1  0.18203219  0.47572997  0.13212986  1  -1.177955  0.010417  -0.320755  -0.554532  0.004813  2.146669  0.008
O  O342  1  0.29369748  0.47573959  0.36787038  1  -1.193613  0.010406  -0.320657  -0.554385  0.00481  2.147082  0.008
O  O343  1  0.18202979  0.70629900  0.03454183  1  -1.177528  0.010398  -0.320724  -0.554381  0.00481  2.147225  0.008
O  O344  1  0.52425654  0.81797055  0.70121282  1  -1.178967  0.010408  -0.320884  -0.554552  0.004808  2.147423  0.008
O  O345  1  0.70630445  0.52426345  0.86787056  1  -1.193622  0.010408  -0.320725  -0.554533  0.00481  2.147014  0.008
O  O346  1  0.81797139  0.29369987  0.53454177  1  -1.177533  0.010399  -0.320741  -0.554414  0.004811  2.147136  0.008
O  O347  1  0.47574293  0.18202832  0.20121301  1  -1.178953  0.010409  -0.320866  -0.554562  0.004809  2.147416  0.008
O  O348  1  0.64408406  0.99999966  0.00000066  1  -1.097784  0.000667  -0.147758  -0.210161  0.000204  2.59806  0.001
O  O349  1  0.99999379  0.64407864  0.33333209  1  -1.097531  0.000667  -0.147773  -0.210179  0.000203  2.598035  0.001
O  O350  1  0.35591976  0.35591569  0.66666956  1  -1.095231  0.000667  -0.147739  -0.210145  0.000203  2.598135  0.001
O  O351  1  0.35591593  0.00000032  0.50000060  1  -1.097763  0.000667  -0.147756  -0.210163  0.000204  2.59808  0.001
O  O352  1  0.00000444  0.35592179  0.83333147  1  -1.097521  0.000667  -0.147738  -0.21018  0.000203  2.597989  0.001
O  O353  1  0.64408136  0.64408353  0.16667020  1  -1.095255  0.000667  -0.147724  -0.210079  0.000204  2.598157  0.001
