# generated using pymatgen
data_CoH15C19N2O5
_symmetry_space_group_name_H-M   'P 1'
_cell_length_a   15.81530245
_cell_length_b   19.15681760
_cell_length_c   19.15652751
_cell_angle_alpha   80.18099183
_cell_angle_beta   65.61928226
_cell_angle_gamma   65.61984961
_symmetry_Int_Tables_number   1
_chemical_formula_structural   CoH15C19N2O5
_chemical_formula_sum   'Co8 H120 C152 N16 O40'
_cell_volume   4814.89949266
_cell_formula_units_Z   8
loop_
 _symmetry_equiv_pos_site_id
 _symmetry_equiv_pos_as_xyz
  1  'x, y, z'
loop_
 _atom_site_type_symbol
 _atom_site_label
 _atom_site_symmetry_multiplicity
 _atom_site_fract_x
 _atom_site_fract_y
 _atom_site_fract_z
 _atom_site_occupancy
 _atom_site_pbe_bader_charge
 _atom_site_pbe_bader_spin_density
 _atom_site_pbe_cm5_charge
 _atom_site_pbe_ddec_charge
 _atom_site_pbe_ddec_spin_density
 _atom_site_pbe_ddec_sum_bond_order
 _atom_site_pbe_magmom
Co  Co0  1  0.39969197  0.18667134  0.77804565  1  1.192892  2.600507  0.610193  0.753211  2.819884  2.778926  2.585
Co  Co1  1  0.41365258  0.22203091  0.18662074  1  1.18961  2.600295  0.610157  0.754547  2.818855  2.772371  2.585
Co  Co2  1  0.36435934  0.81330085  0.22202467  1  1.193833  2.599767  0.610631  0.754136  2.817382  2.774446  2.585
Co  Co3  1  0.82232154  0.77801525  0.81332249  1  1.194182  2.600631  0.609811  0.753005  2.817054  2.778158  2.585
Co  Co4  1  0.38565840  0.27798626  0.68668800  1  1.193735  2.599761  0.610281  0.753113  2.817366  2.773437  2.585
Co  Co5  1  0.35029087  0.72196709  0.31336764  1  1.192129  2.600529  0.609971  0.752537  2.819742  2.777334  2.585
Co  Co6  1  0.33635038  0.31333755  0.27800719  1  1.189866  2.600326  0.61032  0.754645  2.818915  2.772618  2.585
Co  Co7  1  0.92768657  0.68674751  0.72194249  1  1.18734  2.599909  0.609024  0.751726  2.816914  2.775562  2.585
H  H8  1  0.40160693  0.03320844  0.78272659  1  0.502462  -4.7e-05  0.331329  0.276292  -9.7e-05  0.96529  0.0
H  H9  1  0.56526928  0.21733700  0.03305521  1  0.49916  -4.6e-05  0.331294  0.274886  -9.6e-05  0.966012  0.0
H  H10  1  0.21756388  0.96677613  0.21732989  1  0.519103  -5e-05  0.331527  0.275436  -9.7e-05  0.966118  0.0
H  H11  1  0.81558049  0.78263316  0.96689774  1  0.509404  -4.9e-05  0.331589  0.275786  -9.6e-05  0.964709  0.0
H  H12  1  0.53244961  0.28268969  0.53323899  1  0.513389  -5e-05  0.331593  0.275514  -9.6e-05  0.966157  0.0
H  H13  1  0.34844974  0.71725472  0.46677840  1  0.501904  -4.7e-05  0.331298  0.276345  -9.6e-05  0.96525  0.0
H  H14  1  0.18476615  0.46681722  0.28266896  1  0.49899  -4.7e-05  0.33113  0.274862  -9.7e-05  0.966363  0.0
H  H15  1  0.93439510  0.53316903  0.71733463  1  0.509817  -5e-05  0.331527  0.275889  -9.7e-05  0.964586  0.0
H  H16  1  0.32403005  0.01882712  0.71195526  1  0.082551  0.000285  0.100516  0.095174  0.000137  1.016911  0.0
H  H17  1  0.65737383  0.28802289  0.01877822  1  0.075135  0.000283  0.10004  0.094709  0.000137  1.017427  0.0
H  H18  1  0.05466316  0.98110187  0.28795205  1  0.090209  0.000287  0.100485  0.095726  0.000137  1.016758  0.0
H  H19  1  0.96416996  0.71196618  0.98118787  1  0.056075  0.000285  0.100438  0.094925  0.000137  1.017189  0.0
H  H20  1  0.69532416  0.21206864  0.51897594  1  0.090841  0.000287  0.100514  0.095794  0.000138  1.016827  0.0
H  H21  1  0.42604879  0.78803738  0.48117588  1  0.08306  0.000285  0.100551  0.095316  0.000137  1.016663  0.0
H  H22  1  0.09267739  0.48117182  0.21193178  1  0.076342  0.000283  0.100043  0.094587  0.000136  1.017794  0.0
H  H23  1  0.78581020  0.51885054  0.78801913  1  0.055846  0.000286  0.100383  0.094928  0.000137  1.016892  0.0
H  H24  1  0.26638203  0.94601475  0.65826557  1  0.055351  0.000134  0.105431  0.118633  6.5e-05  1.002138  0.0
H  H25  1  0.78783559  0.34178604  0.94604531  1  0.097151  0.000131  0.105483  0.119961  6.5e-05  1.001236  0.0
H  H26  1  0.87047777  0.05400471  0.34172881  1  0.087636  0.000132  0.105597  0.119643  6.5e-05  1.000748  0.0
H  H27  1  0.07558882  0.65826731  0.05399478  1  0.055392  0.000134  0.105647  0.119957  6.5e-05  1.000938  0.0
H  H28  1  0.87951638  0.15828362  0.44608095  1  0.088922  0.000132  0.105575  0.119908  6.5e-05  1.000636  0.0
H  H29  1  0.48369515  0.84178171  0.55395395  1  0.055153  0.000135  0.105407  0.118713  6.5e-05  1.00206  0.0
H  H30  1  0.96216685  0.55390059  0.15824440  1  0.096195  0.000131  0.10547  0.120006  6.5e-05  1.001329  0.0
H  H31  1  0.67441636  0.44603802  0.84172058  1  0.055621  0.000134  0.105531  0.119782  6.5e-05  1.001078  0.0
H  H32  1  0.24106623  0.11589991  0.48127659  1  0.112201  0.0001  0.104634  0.122515  2.5e-05  1.026924  0.0
H  H33  1  0.64319543  0.51863149  0.11601661  1  0.097538  0.000101  0.104947  0.123007  2.5e-05  1.027026  0.0
H  H34  1  0.83809575  0.88411223  0.51874333  1  0.099774  0.000102  0.104478  0.121536  2.5e-05  1.027844  0.0
H  H35  1  0.27777261  0.48128760  0.88410656  1  0.128281  9.7e-05  0.104517  0.122236  2.4e-05  1.02675  0.0
H  H36  1  0.91188329  0.98125920  0.61595604  1  0.100299  0.000101  0.104421  0.121616  2.4e-05  1.027699  0.0
H  H37  1  0.50891879  0.01877104  0.38405828  1  0.111795  0.0001  0.104555  0.122429  2.5e-05  1.027039  0.0
H  H38  1  0.10673090  0.38397557  0.98137683  1  0.098564  0.000101  0.104942  0.123114  2.5e-05  1.027027  0.0
H  H39  1  0.47223830  0.61588702  0.01872131  1  0.12782  9.7e-05  0.104461  0.122141  2.4e-05  1.02691  0.0
H  H40  1  0.30032740  0.18879120  0.53556732  1  0.107265  0.000408  0.106586  0.107884  0.000221  1.020026  0.0
H  H41  1  0.51107205  0.46430490  0.18880575  1  0.112561  0.000402  0.106606  0.108228  0.000221  1.01998  0.0
H  H42  1  0.02450241  0.81122503  0.46439605  1  0.109375  0.00041  0.106459  0.107316  0.000221  1.02066  0.0
H  H43  1  0.16416272  0.53559243  0.81127404  1  0.110134  0.000407  0.106457  0.108071  0.00022  1.020359  0.0
H  H44  1  0.72547558  0.03557791  0.68883421  1  0.107988  0.00041  0.106448  0.107723  0.00022  1.020799  0.0
H  H45  1  0.44965760  0.96445635  0.31120556  1  0.107502  0.000407  0.106538  0.107944  0.00022  1.020189  0.0
H  H46  1  0.23892299  0.31114472  0.03564158  1  0.11176  0.000402  0.10673  0.108364  0.000221  1.019795  0.0
H  H47  1  0.58580405  0.68876314  0.96441954  1  0.110195  0.000407  0.106476  0.108055  0.00022  1.020305  0.0
H  H48  1  0.23230868  0.86866396  0.48130155  1  0.11751  0.000219  0.105516  0.126116  0.000105  1.025451  0.0
H  H49  1  0.89926948  0.51855181  0.86858050  1  0.117978  0.000221  0.105664  0.126729  0.000106  1.024471  0.0
H  H50  1  0.58211830  0.13152648  0.51868094  1  0.098449  0.000225  0.105582  0.126111  0.000106  1.025781  0.0
H  H51  1  0.28644550  0.48133399  0.13146343  1  0.102253  0.000223  0.105634  0.126269  0.000106  1.025536  0.0
H  H52  1  0.16785698  0.98130404  0.36852934  1  0.097909  0.000225  0.105525  0.126046  0.000106  1.02556  0.0
H  H53  1  0.51771680  0.01870446  0.63133753  1  0.117354  0.000219  0.105437  0.125868  0.000105  1.025765  0.0
H  H54  1  0.85076585  0.63137469  0.98146034  1  0.118292  0.000222  0.105681  0.126562  0.000107  1.024504  0.0
H  H55  1  0.46354644  0.36860478  0.01867289  1  0.102078  0.000224  0.105738  0.126321  0.000107  1.025509  0.0
H  H56  1  0.13139539  0.78895726  0.55073126  1  0.083911  0.000476  0.10646  0.108692  0.000243  1.018144  0.0
H  H57  1  0.07986293  0.44900055  0.78884911  1  0.101503  0.00047  0.106736  0.108886  0.000243  1.017589  0.0
H  H58  1  0.47100235  0.21121706  0.44919148  1  0.110979  0.000463  0.106917  0.110013  0.000243  1.016981  0.0
H  H59  1  0.31772452  0.55085846  0.21124131  1  0.096222  0.000463  0.106551  0.108929  0.000243  1.017509  0.0
H  H60  1  0.27896919  0.05077246  0.28881627  1  0.111376  0.000462  0.106811  0.110036  0.000242  1.017076  0.0
H  H61  1  0.61863091  0.94927280  0.71101793  1  0.083494  0.000476  0.106345  0.108461  0.000242  1.018108  0.0
H  H62  1  0.67019817  0.71114844  0.05097860  1  0.101648  0.00047  0.106727  0.108844  0.000243  1.017598  0.0
H  H63  1  0.43227639  0.28879314  0.94919551  1  0.096336  0.000464  0.106492  0.108814  0.000242  1.017631  0.0
H  H64  1  0.97989223  0.93641514  0.74704511  1  0.09763  0.000425  0.107089  0.113458  0.000236  0.991336  0.0
H  H65  1  0.08379444  0.25277717  0.93647447  1  0.105704  0.00043  0.106722  0.113292  0.000236  0.991313  0.0
H  H66  1  0.66326598  0.06368851  0.25292166  1  0.097194  0.000427  0.106428  0.112221  0.000235  0.993456  0.0
H  H67  1  0.27319648  0.74709684  0.06360411  1  0.095407  0.000424  0.106768  0.113711  0.000235  0.991034  0.0
H  H68  1  0.08678700  0.24708161  0.43629928  1  0.096646  0.000427  0.106377  0.112236  0.000236  0.993225  0.0
H  H69  1  0.77019200  0.75296603  0.56355305  1  0.097934  0.000425  0.106936  0.113339  0.000237  0.991132  0.0
H  H70  1  0.66618373  0.56356225  0.24725756  1  0.103814  0.00043  0.106704  0.113169  0.000236  0.991228  0.0
H  H71  1  0.47687533  0.43635458  0.75288875  1  0.095307  0.000424  0.106778  0.113718  0.000236  0.991045  0.0
H  H72  1  0.08064469  0.01677593  0.67802393  1  0.067147  0.000145  0.106459  0.122335  7.5e-05  0.997906  0.0
H  H73  1  0.90273927  0.32198743  0.01696699  1  0.084215  0.000143  0.106659  0.121896  7.5e-05  0.998707  0.0
H  H74  1  0.77524320  0.98332385  0.32202301  1  0.087234  0.000143  0.106602  0.122299  7.5e-05  0.998197  0.0
H  H75  1  0.24172360  0.67799245  0.98316623  1  0.076869  0.000144  0.106186  0.121889  7.5e-05  0.99799  0.0
H  H76  1  0.97479533  0.17796793  0.51672290  1  0.086968  0.000143  0.106568  0.122425  7.5e-05  0.998102  0.0
H  H77  1  0.66940515  0.82201995  0.48318032  1  0.066839  0.000145  0.10644  0.122278  7.4e-05  0.997876  0.0
H  H78  1  0.84724712  0.48302746  0.17807079  1  0.082408  0.000143  0.10664  0.121822  7.5e-05  0.998652  0.0
H  H79  1  0.50834598  0.51683616  0.82196558  1  0.076474  0.000144  0.106296  0.122089  7.5e-05  0.997816  0.0
H  H80  1  0.42442367  0.16796047  0.95373192  1  0.097639  0.000292  0.098139  0.145185  0.000106  1.013293  0.0
H  H81  1  0.40784430  0.04636359  0.16775680  1  0.090478  0.000291  0.098426  0.146619  0.000104  1.012985  0.0
H  H82  1  0.54605268  0.83207657  0.04626114  1  0.056455  0.000297  0.098876  0.146797  0.000105  1.013466  0.0
H  H83  1  0.62197520  0.95361831  0.83211843  1  0.072872  0.000295  0.098724  0.147409  0.000105  1.011745  0.0
H  H84  1  0.20398236  0.45369501  0.66792568  1  0.057232  0.000297  0.099027  0.146952  0.000105  1.013335  0.0
H  H85  1  0.32555760  0.54630870  0.33202956  1  0.097545  0.000292  0.098106  0.145243  0.000106  1.013253  0.0
H  H86  1  0.34206934  0.33211406  0.45373019  1  0.091276  0.000292  0.098302  0.146312  0.000104  1.012809  0.0
H  H87  1  0.12795167  0.66797404  0.54621128  1  0.075355  0.000294  0.098851  0.147405  0.000104  1.012059  0.0
H  H88  1  0.36964885  0.12141101  0.03903559  1  0.042281  -5e-06  0.095546  0.139731  -4.1e-05  1.010125  0.0
H  H89  1  0.50907983  0.96099790  0.12131199  1  0.057182  -5e-06  0.095902  0.141092  -4.1e-05  1.009763  0.0
H  H90  1  0.53008776  0.87867549  0.96095721  1  0.048025  -5e-06  0.095609  0.139745  -4.1e-05  1.010083  0.0
H  H91  1  0.59132515  0.03896662  0.87863939  1  0.040436  -5e-06  0.095552  0.140423  -4.1e-05  1.009626  0.0
H  H92  1  0.21988681  0.53902453  0.62132138  1  0.048275  -5e-06  0.095542  0.139689  -4.1e-05  1.00998  0.0
H  H93  1  0.38027678  0.46099621  0.37859765  1  0.04244  -5e-06  0.09573  0.139962  -4.1e-05  1.010016  0.0
H  H94  1  0.24085173  0.37859121  0.53906470  1  0.058171  -5e-06  0.095725  0.140834  -4.1e-05  1.009484  0.0
H  H95  1  0.15856648  0.62141395  0.46091478  1  0.041036  -5e-06  0.095576  0.14037  -4.1e-05  1.009456  0.0
H  H96  1  0.29307853  0.19490562  0.99578026  1  0.047407  9.1e-05  0.095246  0.133841  2.3e-05  1.004854  0.0
H  H97  1  0.51207444  0.00414956  0.19489734  1  0.021288  9e-05  0.095458  0.13495  2.2e-05  1.003444  0.0
H  H98  1  0.48381340  0.80512387  0.00412076  1  0.028894  9.2e-05  0.094803  0.133284  2.3e-05  1.004716  0.0
H  H99  1  0.71107930  0.99588459  0.80502710  1  0.051124  9e-05  0.095711  0.134499  2.3e-05  1.004124  0.0
H  H100  1  0.26614947  0.49590525  0.69488305  1  0.029685  9.2e-05  0.094752  0.133298  2.2e-05  1.004689  0.0
H  H101  1  0.45689728  0.50419600  0.30509566  1  0.047371  9.1e-05  0.095354  0.133899  2.3e-05  1.00457  0.0
H  H102  1  0.23776257  0.30507130  0.49587182  1  0.019984  9.1e-05  0.095603  0.134972  2.2e-05  1.003431  0.0
H  H103  1  0.03874052  0.69491066  0.50408149  1  0.022708  9.3e-05  0.095588  0.134298  2.3e-05  1.0042  0.0
H  H104  1  0.30239095  0.92020625  0.87696874  1  0.056158  0.000508  0.09676  0.133074  0.00019  0.986293  0.0
H  H105  1  0.77746786  0.12315705  0.91999217  1  0.056713  0.000503  0.096779  0.13222  0.000188  0.985931  0.0
H  H106  1  0.09951526  0.07986079  0.12314899  1  0.049902  0.000507  0.096804  0.132609  0.000189  0.98688  0.0
H  H107  1  0.82064124  0.87687393  0.07986995  1  0.048199  0.00051  0.096765  0.132383  0.00019  0.986011  0.0
H  H108  1  0.65047994  0.37686710  0.42013501  1  0.049926  0.000507  0.096827  0.132563  0.000189  0.986931  0.0
H  H109  1  0.44765385  0.62300057  0.57978570  1  0.055436  0.000508  0.09678  0.133082  0.00019  0.986422  0.0
H  H110  1  0.97257833  0.57993140  0.37672952  1  0.055273  0.000505  0.096934  0.132403  0.000189  0.985756  0.0
H  H111  1  0.92924447  0.42011660  0.62328546  1  0.048554  0.000509  0.096751  0.132518  0.00019  0.985528  0.0
H  H112  1  0.37631215  0.87099740  0.93221899  1  0.065266  9.8e-05  0.103079  0.148659  2.7e-05  1.000164  0.0
H  H113  1  0.75271503  0.06792515  0.87082435  1  0.058313  9.9e-05  0.103289  0.148494  2.7e-05  1.000188  0.0
H  H114  1  0.17951089  0.12903146  0.06784541  1  0.069508  9.8e-05  0.103011  0.148282  2.7e-05  0.999487  0.0
H  H115  1  0.69148985  0.93208613  0.12904316  1  0.068043  9.8e-05  0.102923  0.148633  2.7e-05  0.999725  0.0
H  H116  1  0.57047766  0.43216766  0.37096716  1  0.069691  9.8e-05  0.102959  0.148214  2.7e-05  0.999414  0.0
H  H117  1  0.37372906  0.56774852  0.62899029  1  0.064547  9.9e-05  0.103016  0.148621  2.7e-05  1.000106  0.0
H  H118  1  0.99729411  0.62908205  0.43202478  1  0.060358  9.9e-05  0.10328  0.148609  2.7e-05  1.000106  0.0
H  H119  1  0.05839938  0.37095364  0.56800499  1  0.069077  9.8e-05  0.102996  0.148836  2.7e-05  0.999848  0.0
H  H120  1  0.43565666  0.87944421  0.83145749  1  0.089284  0.000321  0.101292  0.14353  0.000109  0.982093  0.0
H  H121  1  0.68492794  0.16867159  0.87924968  1  0.04604  0.000326  0.101416  0.142602  0.000108  0.981677  0.0
H  H122  1  0.14656871  0.12062928  0.16860043  1  0.060135  0.000326  0.101223  0.142905  0.000109  0.982117  0.0
H  H123  1  0.73289361  0.83134262  0.12060258  1  0.067829  0.000325  0.101544  0.143501  0.000109  0.981816  0.0
H  H124  1  0.60342470  0.33140556  0.37936826  1  0.060165  0.000326  0.101196  0.142867  0.000109  0.982118  0.0
H  H125  1  0.31438119  0.66851985  0.62054573  1  0.088727  0.000322  0.101273  0.143354  0.000109  0.981913  0.0
H  H126  1  0.06517883  0.62063700  0.33126364  1  0.05042  0.000326  0.101331  0.142363  0.000108  0.98201  0.0
H  H127  1  0.01708603  0.37944858  0.66875294  1  0.066137  0.000325  0.101642  0.143664  0.000109  0.981928  0.0
C  C128  1  0.34783132  0.15295526  0.66125619  1  1.528998  -0.008687  0.21284  0.567963  -0.012269  4.168326  -0.008
C  C129  1  0.49935346  0.33870102  0.15292247  1  1.532342  -0.00859  0.214221  0.57162  -0.012225  4.16518  -0.008
C  C130  1  0.16190621  0.84699004  0.33868939  1  1.543358  -0.008583  0.213362  0.568743  -0.012241  4.166358  -0.008
C  C131  1  0.99102345  0.66129753  0.84705012  1  1.531833  -0.008634  0.213919  0.572396  -0.01223  4.163041  -0.008
C  C132  1  0.58808069  0.16132340  0.65303653  1  1.543739  -0.008592  0.213294  0.56915  -0.01224  4.166654  -0.008
C  C133  1  0.40217968  0.83873078  0.34707884  1  1.529096  -0.008687  0.213036  0.568154  -0.012264  4.168252  -0.008
C  C134  1  0.25067730  0.34705175  0.16125616  1  1.532123  -0.008587  0.214011  0.571095  -0.012217  4.166244  -0.008
C  C135  1  0.75895401  0.65297604  0.83870702  1  1.532566  -0.008632  0.213578  0.571916  -0.012225  4.163448  -0.008
C  C136  1  0.31477024  0.10920324  0.62785956  1  0.004388  0.009486  -0.027327  -0.060087  0.005148  4.000817  0.007
C  C137  1  0.57626790  0.37203905  0.10922526  1  0.012091  0.009467  -0.029161  -0.064071  0.005146  4.003861  0.007
C  C138  1  0.05165795  0.89072922  0.37205386  1  -0.006947  0.009511  -0.028263  -0.061851  0.005148  4.003911  0.007
C  C139  1  0.05750904  0.62789506  0.89081573  1  -0.031099  0.009473  -0.029311  -0.064696  0.005137  4.00278  0.007
C  C140  1  0.69833677  0.12794582  0.60934526  1  -0.007273  0.009512  -0.028467  -0.062041  0.005149  4.004678  0.007
C  C141  1  0.43527927  0.87214928  0.39078302  1  0.004573  0.009487  -0.027318  -0.060011  0.005148  4.000767  0.007
C  C142  1  0.17376472  0.39074142  0.12791137  1  0.012407  0.009468  -0.028925  -0.062996  0.005147  4.003764  0.007
C  C143  1  0.69247471  0.60920818  0.87212340  1  -0.029896  0.009483  -0.029293  -0.064546  0.005143  4.002931  0.007
C  C144  1  0.30531615  0.04047557  0.66168843  1  -0.079268  -0.001713  -0.086039  -0.068022  -0.002081  4.008747  -0.001
C  C145  1  0.65442844  0.33827679  0.04047013  1  -0.03596  -0.001679  -0.085591  -0.065853  -0.002054  4.00959  -0.001
C  C146  1  0.00731535  0.95948281  0.33824583  1  -0.091593  -0.001692  -0.086787  -0.06939  -0.00206  4.010786  -0.001
C  C147  1  0.03313941  0.66169100  0.95955647  1  0.028881  -0.0017  -0.085794  -0.066159  -0.002054  4.010559  -0.001
C  C148  1  0.74266553  0.16176973  0.54059358  1  -0.089177  -0.001687  -0.086528  -0.069269  -0.002055  4.010896  -0.001
C  C149  1  0.44473803  0.83831779  0.45951385  1  -0.07597  -0.001708  -0.086032  -0.068049  -0.002075  4.008346  -0.001
C  C150  1  0.09560532  0.45948197  0.16169105  1  -0.035408  -0.001683  -0.08574  -0.066293  -0.002059  4.010362  -0.001
C  C151  1  0.71685025  0.54047234  0.83831177  1  0.029981  -0.001703  -0.085529  -0.065906  -0.002057  4.01002  -0.001
C  C152  1  0.27268273  0.99964713  0.63205486  1  0.037331  0.001273  -0.107368  -0.218635  0.000486  4.031466  0.001
C  C153  1  0.72786528  0.36796092  0.99967549  1  -0.072871  0.001266  -0.108126  -0.221594  0.000484  4.032268  0.001
C  C154  1  0.90422309  0.00036134  0.36793057  1  -0.036617  0.001266  -0.107131  -0.219245  0.000485  4.031382  0.001
C  C155  1  0.09541949  0.63204552  0.00039005  1  -0.017811  0.001261  -0.107785  -0.220623  0.000482  4.033142  0.001
C  C156  1  0.84575713  0.13208679  0.49972283  1  -0.038569  0.001268  -0.10699  -0.219126  0.000486  4.031164  0.001
C  C157  1  0.47735433  0.86798723  0.50032799  1  0.036815  0.001275  -0.107347  -0.218644  0.000487  4.030961  0.001
C  C158  1  0.02215092  0.50029315  0.13203204  1  -0.075375  0.001267  -0.108165  -0.221643  0.000484  4.032493  0.001
C  C159  1  0.65456724  0.49964200  0.86794838  1  -0.018581  0.001266  -0.107721  -0.220344  0.000485  4.033157  0.001
C  C160  1  0.24817914  0.02819775  0.56766918  1  0.320132  -0.002982  0.091568  0.269968  -0.003369  4.031699  -0.002
C  C161  1  0.72379816  0.43233411  0.02824669  1  0.408234  -0.002936  0.091226  0.268148  -0.003334  4.031579  -0.002
C  C162  1  0.84384781  0.97184359  0.43232953  1  0.424892  -0.002947  0.091245  0.268769  -0.003343  4.029703  -0.002
C  C163  1  0.18430335  0.56766181  0.97184119  1  0.378819  -0.002941  0.091225  0.267824  -0.003331  4.032385  -0.002
C  C164  1  0.90613236  0.06767380  0.52823110  1  0.424583  -0.002946  0.090999  0.268291  -0.003342  4.030197  -0.002
C  C165  1  0.50184477  0.93238169  0.47176907  1  0.319352  -0.002979  0.091476  0.269453  -0.003366  4.031835  -0.002
C  C166  1  0.02619424  0.47173171  0.06766649  1  0.397674  -0.002943  0.091196  0.268056  -0.003339  4.032104  -0.002
C  C167  1  0.56568520  0.52819333  0.93233493  1  0.379207  -0.002948  0.091084  0.267331  -0.003339  4.032408  -0.002
C  C168  1  0.25886058  0.09582346  0.53213790  1  0.025302  0.00129  -0.099545  -0.194794  0.000507  3.970936  0.001
C  C169  1  0.64545933  0.46783242  0.09585892  1  0.004323  0.001277  -0.099725  -0.193489  0.000504  3.971837  0.001
C  C170  1  0.88661507  0.90420170  0.46784693  1  -0.020834  0.001279  -0.099178  -0.191966  0.000504  3.969304  0.001
C  C171  1  0.20911087  0.53212522  0.90423519  1  -0.012317  0.001279  -0.099604  -0.192901  0.000504  3.968141  0.001
C  C172  1  0.86336912  0.03214554  0.59586444  1  -0.021495  0.001278  -0.099098  -0.191876  0.000503  3.969254  0.001
C  C173  1  0.49114293  0.96790835  0.40415424  1  0.026405  0.001288  -0.099391  -0.194188  0.000506  3.970644  0.001
C  C174  1  0.10452094  0.40412319  0.03216010  1  0.013101  0.00128  -0.09993  -0.193875  0.000505  3.972211  0.001
C  C175  1  0.54087865  0.59579541  0.96786845  1  -0.012019  0.001279  -0.09952  -0.192693  0.000504  3.968284  0.001
C  C176  1  0.29193484  0.13590037  0.56239294  1  -0.01849  -0.001762  -0.077569  -0.059519  -0.002164  3.962741  -0.001
C  C177  1  0.57236753  0.43751041  0.13591969  1  -0.047804  -0.001737  -0.07718  -0.059715  -0.002139  3.965799  -0.001
C  C178  1  0.99003215  0.86409868  0.43756022  1  -0.00489  -0.001753  -0.077265  -0.059257  -0.002147  3.962915  -0.001
C  C179  1  0.14575130  0.56239483  0.86416817  1  -0.050559  -0.001739  -0.076969  -0.059176  -0.002136  3.963045  -0.001
C  C180  1  0.75995364  0.06242057  0.63596502  1  -0.00476  -0.001755  -0.077295  -0.059977  -0.002149  3.96384  -0.001
C  C181  1  0.45806868  0.93763938  0.36408896  1  -0.020732  -0.001763  -0.077507  -0.059903  -0.002166  3.962779  -0.001
C  C182  1  0.17763440  0.36403294  0.06245455  1  -0.044266  -0.00174  -0.077165  -0.059962  -0.002141  3.96565  -0.001
C  C183  1  0.60422336  0.63587101  0.93761231  1  -0.052676  -0.001743  -0.077028  -0.059331  -0.00214  3.962908  -0.001
C  C184  1  0.16406389  0.94587513  0.57636331  1  0.418546  -0.003574  0.089084  0.266948  -0.004048  4.029179  -0.002
C  C185  1  0.89029083  0.42353007  0.94592546  1  0.433541  -0.003571  0.089702  0.267444  -0.004045  4.03184  -0.002
C  C186  1  0.68610408  0.05424243  0.42365257  1  0.440928  -0.003575  0.089617  0.266247  -0.004052  4.032384  -0.002
C  C187  1  0.25975917  0.57639363  0.05416101  1  0.432211  -0.003594  0.089412  0.267593  -0.004068  4.034064  -0.002
C  C188  1  0.06387732  0.07635391  0.44582031  1  0.440409  -0.003567  0.08982  0.266509  -0.004044  4.032082  -0.002
C  C189  1  0.58597364  0.92366499  0.55409028  1  0.419456  -0.003569  0.089471  0.267412  -0.004041  4.029005  -0.002
C  C190  1  0.85971480  0.55405611  0.07649733  1  0.432291  -0.003569  0.089695  0.267295  -0.004043  4.031984  -0.002
C  C191  1  0.49025431  0.44587399  0.92360676  1  0.431879  -0.00359  0.089454  0.267598  -0.004064  4.034011  -0.002
C  C192  1  0.17809992  0.88236403  0.53993058  1  -0.043066  0.001745  -0.101217  -0.197919  0.000688  3.980995  0.001
C  C193  1  0.93972830  0.45992223  0.88232618  1  -0.083321  0.001744  -0.102132  -0.199503  0.000688  3.981391  0.001
C  C194  1  0.60023044  0.11776918  0.46007761  1  0.000262  0.001739  -0.10211  -0.197823  0.000689  3.983364  0.001
C  C195  1  0.28208447  0.53994743  0.11771269  1  -0.028545  0.001746  -0.102631  -0.200053  0.000691  3.982809  0.001
C  C196  1  0.14973941  0.03991018  0.38228191  1  0.000863  0.001735  -0.102201  -0.197873  0.000687  3.982736  0.001
C  C197  1  0.57192481  0.96008907  0.61760843  1  -0.043077  0.00174  -0.101189  -0.197897  0.000686  3.981443  0.001
C  C198  1  0.81028577  0.61764102  0.04009416  1  -0.083209  0.001743  -0.101976  -0.199204  0.000688  3.981682  0.001
C  C199  1  0.46791723  0.38233166  0.96005693  1  -0.02803  0.001745  -0.102617  -0.200003  0.00069  3.982909  0.001
C  C200  1  0.12151892  0.83818592  0.57887516  1  0.017172  -0.002155  -0.081144  -0.072195  -0.002577  3.97837  -0.001
C  C201  1  0.04044665  0.42092143  0.83812253  1  0.056481  -0.002169  -0.081192  -0.071962  -0.002572  3.979713  -0.001
C  C202  1  0.53846080  0.16193267  0.42110512  1  -0.033629  -0.002155  -0.081064  -0.073195  -0.002582  3.981103  -0.001
C  C203  1  0.29955825  0.57894289  0.16194286  1  -0.010478  -0.002165  -0.080007  -0.069863  -0.002595  3.97804  -0.001
C  C204  1  0.21151019  0.07887511  0.33809449  1  -0.033441  -0.002149  -0.081014  -0.073358  -0.002576  3.981279  -0.001
C  C205  1  0.62849214  0.92113647  0.66179276  1  0.01654  -0.002155  -0.081261  -0.072003  -0.002577  3.979107  -0.001
C  C206  1  0.70957360  0.66186170  0.07907438  1  0.056452  -0.002169  -0.081214  -0.071875  -0.002572  3.979855  -0.001
C  C207  1  0.45042756  0.33808891  0.92108803  1  -0.010607  -0.002164  -0.080167  -0.07018  -0.002593  3.978159  -0.001
C  C208  1  0.05049593  0.85698364  0.65401569  1  -0.036511  0.010411  -0.028982  -0.0617  0.005604  4.005954  0.008
C  C209  1  0.09259154  0.34578288  0.85692566  1  -0.054956  0.010372  -0.028845  -0.062017  0.005601  4.009599  0.008
C  C210  1  0.56136267  0.14312819  0.34598844  1  -0.063834  0.010377  -0.028946  -0.062573  0.005599  4.011011  0.008
C  C211  1  0.29545491  0.65406986  0.14314291  1  -0.019284  0.010374  -0.028456  -0.06191  0.005598  4.00791  0.008
C  C212  1  0.18862242  0.15400012  0.35686483  1  -0.054694  0.010355  -0.028883  -0.062457  0.0056  4.011295  0.008
C  C213  1  0.69950717  0.84600904  0.64302434  1  -0.036699  0.010407  -0.028873  -0.061839  0.005605  4.00625  0.008
C  C214  1  0.65741180  0.64307862  0.15422037  1  -0.05484  0.01037  -0.028893  -0.062287  0.005601  4.00973  0.008
C  C215  1  0.45455272  0.35686064  0.84595045  1  -0.017451  0.010371  -0.028493  -0.061694  0.005601  4.007006  0.008
C  C216  1  0.03646954  0.92151842  0.68923375  1  -0.052312  -0.002217  -0.084386  -0.075444  -0.002611  4.008628  -0.001
C  C217  1  0.04214498  0.31057984  0.92152841  1  -0.023676  -0.002209  -0.083552  -0.07469  -0.002612  4.005635  -0.001
C  C218  1  0.64709923  0.07859324  0.31073973  1  0.02671  -0.002241  -0.083346  -0.072567  -0.002614  4.009477  -0.001
C  C219  1  0.27440894  0.68928510  0.07854281  1  -0.015809  -0.002228  -0.084181  -0.076357  -0.002627  4.009015  -0.001
C  C220  1  0.10292573  0.18925800  0.42141299  1  0.027641  -0.002231  -0.083406  -0.072583  -0.002604  4.009263  -0.001
C  C221  1  0.71358999  0.81078458  0.57845665  1  -0.053946  -0.002205  -0.084206  -0.074934  -0.0026  4.007135  -0.001
C  C222  1  0.70785019  0.57848284  0.18943943  1  -0.040051  -0.002207  -0.083599  -0.074556  -0.002608  4.005119  -0.001
C  C223  1  0.47563123  0.42145109  0.81071521  1  -0.016604  -0.002222  -0.084192  -0.076396  -0.002622  4.008804  -0.001
C  C224  1  0.09254037  0.96618478  0.65089064  1  -0.027691  0.00156  -0.105964  -0.217736  0.000609  4.021814  0.001
C  C225  1  0.94148217  0.34901895  0.96629918  1  -0.079774  0.001563  -0.105968  -0.216473  0.000609  4.020612  0.001
C  C226  1  0.70942435  0.03392717  0.34912813  1  -0.104817  0.001562  -0.106514  -0.218383  0.000609  4.023073  0.001
C  C227  1  0.25684295  0.65089890  0.03381334  1  -0.081348  0.001573  -0.104966  -0.216239  0.000612  4.023048  0.001
C  C228  1  0.04059704  0.15087818  0.46611628  1  -0.105544  0.00156  -0.106556  -0.218726  0.000608  4.022829  0.001
C  C229  1  0.65752382  0.84913316  0.53377672  1  -0.026707  0.00156  -0.105997  -0.21787  0.00061  4.021141  0.001
C  C230  1  0.80852201  0.53369875  0.15102360  1  -0.059046  0.001566  -0.105989  -0.216436  0.00061  4.019909  0.001
C  C231  1  0.49321458  0.46619651  0.84907956  1  -0.080813  0.001574  -0.105056  -0.216432  0.000613  4.022649  0.001
C  C232  1  0.98877657  0.81054661  0.69532551  1  1.536482  -0.010779  0.211011  0.564408  -0.014732  4.173012  -0.01
C  C233  1  0.20070482  0.30449658  0.81044509  1  1.526016  -0.010671  0.209773  0.562739  -0.014736  4.178194  -0.01
C  C234  1  0.49456345  0.18958664  0.30465360  1  1.520188  -0.010762  0.210313  0.563249  -0.014762  4.178455  -0.01
C  C235  1  0.31586039  0.69535758  0.18958057  1  1.531829  -0.010796  0.20883  0.562771  -0.0148  4.179441  -0.01
C  C236  1  0.25539154  0.19535511  0.31039760  1  1.511108  -0.010712  0.210415  0.563212  -0.014745  4.178053  -0.01
C  C237  1  0.76119651  0.80467954  0.68948017  1  1.537383  -0.010761  0.210523  0.563477  -0.014727  4.174006  -0.01
C  C238  1  0.54931407  0.68955948  0.19553345  1  1.525796  -0.010655  0.209621  0.56266  -0.014724  4.17813  -0.01
C  C239  1  0.43417592  0.31041906  0.80463499  1  1.530478  -0.010784  0.208977  0.562673  -0.014789  4.178734  -0.01
C  C240  1  0.37794151  0.98215119  0.89527948  1  0.416922  0.007058  0.101556  0.198783  0.003685  3.995815  0.005
C  C241  1  0.64006645  0.10478620  0.98200176  1  0.416088  0.007  0.100787  0.197194  0.003654  3.997997  0.005
C  C242  1  0.25532738  0.01787977  0.10478719  1  0.414037  0.00703  0.102125  0.198613  0.003668  3.998265  0.005
C  C243  1  0.72685069  0.89521552  0.01787218  1  0.394024  0.007099  0.101577  0.198314  0.003681  3.998481  0.005
C  C244  1  0.49467854  0.39521967  0.48211317  1  0.413301  0.007034  0.102132  0.198768  0.003669  3.998145  0.005
C  C245  1  0.37207750  0.60470816  0.51785396  1  0.415921  0.007068  0.101509  0.198423  0.00369  3.996146  0.005
C  C246  1  0.10994185  0.51791419  0.39518552  1  0.464836  0.006987  0.100758  0.197689  0.003664  3.997153  0.005
C  C247  1  0.02309356  0.48212255  0.60479411  1  0.393274  0.007086  0.101755  0.198883  0.003674  3.997553  0.005
C  C248  1  0.36241278  0.01574744  0.96134166  1  0.013854  0.00368  -0.033604  -0.141947  0.001859  4.072092  0.002
C  C249  1  0.62209815  0.03868922  0.01561909  1  0.025832  0.003648  -0.033599  -0.143134  0.00185  4.073778  0.002
C  C250  1  0.33946541  0.98431431  0.03870998  1  0.009517  0.00365  -0.033175  -0.141924  0.001852  4.073403  0.002
C  C251  1  0.67645298  0.96132011  0.98422207  1  0.049437  0.003627  -0.032524  -0.140975  0.001855  4.07101  0.002
C  C252  1  0.41053838  0.46129242  0.51567907  1  0.009497  0.003654  -0.033228  -0.14194  0.001853  4.073244  0.002
C  C253  1  0.38757897  0.53865965  0.48425449  1  0.013779  0.003686  -0.033623  -0.141937  0.001862  4.072191  0.002
C  C254  1  0.12787393  0.48431559  0.46130166  1  -0.021977  0.003692  -0.033628  -0.143047  0.001856  4.073281  0.002
C  C255  1  0.07351392  0.51573246  0.53866651  1  0.049152  0.00362  -0.033007  -0.141914  0.001852  4.070599  0.002
C  C256  1  0.37306189  0.08710891  0.93703292  1  0.49907  0.003429  0.105512  0.210991  0.001945  3.993986  0.004
C  C257  1  0.54016179  0.06294848  0.08701777  1  0.51241  0.003408  0.105357  0.211432  0.001922  3.99196  0.003
C  C258  1  0.39716544  0.91291600  0.06296633  1  0.495421  0.003471  0.104545  0.209229  0.001941  3.995457  0.003
C  C259  1  0.69012952  0.93703466  0.91285215  1  0.46407  0.003475  0.105475  0.211044  0.001934  3.993087  0.003
C  C260  1  0.35285170  0.43703415  0.58708765  1  0.494381  0.003472  0.104511  0.209154  0.00194  3.995427  0.003
C  C261  1  0.37692602  0.56297711  0.41289764  1  0.499539  0.003426  0.105615  0.211183  0.001944  3.993788  0.003
C  C262  1  0.20983900  0.41292071  0.43707138  1  0.513781  0.003417  0.105553  0.211615  0.001929  3.992286  0.003
C  C263  1  0.05991328  0.58710368  0.56291620  1  0.463424  0.003481  0.105533  0.211248  0.001938  3.992067  0.003
C  C264  1  0.36497050  0.14566856  0.98406101  1  -0.055377  0.000317  -0.234571  -0.427046  3.1e-05  3.959641  0.0
C  C265  1  0.48958354  0.01594784  0.14556222  1  -0.052158  0.000315  -0.235136  -0.431215  3e-05  3.95993  0.0
C  C266  1  0.49467346  0.85437563  0.01589733  1  -0.025993  0.00031  -0.234339  -0.427559  3e-05  3.960731  0.0
C  C267  1  0.65106398  0.98404467  0.85433121  1  -0.030376  0.000313  -0.235589  -0.431105  3.1e-05  3.959704  0.0
C  C268  1  0.25532571  0.48409295  0.64562476  1  -0.026959  0.00031  -0.234339  -0.427616  3e-05  3.960641  0.0
C  C269  1  0.38499480  0.51596150  0.35433585  1  -0.055374  0.000317  -0.234992  -0.427705  3.1e-05  3.959523  0.0
C  C270  1  0.26032816  0.35436168  0.48410888  1  -0.053542  0.000316  -0.234901  -0.430606  3e-05  3.959724  0.0
C  C271  1  0.09886161  0.64566937  0.51586298  1  -0.004507  0.000308  -0.23551  -0.430631  3e-05  3.960092  0.0
C  C272  1  0.37294158  0.90939035  0.88319964  1  -0.080357  0.000304  -0.226732  -0.422864  0.000178  3.980378  0.0
C  C273  1  0.71770928  0.11693523  0.90920717  1  -0.040771  0.000302  -0.226994  -0.420166  0.000178  3.977866  0.0
C  C274  1  0.16551563  0.09065116  0.11688025  1  -0.050273  0.000298  -0.226808  -0.421146  0.000178  3.980147  0.0
C  C275  1  0.74388188  0.88308231  0.09064954  1  -0.078175  0.000309  -0.226974  -0.422059  0.000178  3.979797  0.0
C  C276  1  0.58448453  0.38312885  0.40934023  1  -0.050191  0.000299  -0.226755  -0.420977  0.000178  3.980048  0.0
C  C277  1  0.37709869  0.61677468  0.59060703  1  -0.077145  0.000304  -0.226613  -0.422527  0.000178  3.980141  0.0
C  C278  1  0.03232319  0.59070420  0.38300196  1  -0.04551  0.000301  -0.226941  -0.420249  0.000177  3.977724  0.0
C  C279  1  0.00603013  0.40935225  0.61700751  1  -0.077819  0.000307  -0.227118  -0.422744  0.000177  3.979553  0.0
N  N280  1  0.39338834  0.09609301  0.86150390  1  -0.738289  0.041101  -0.243758  -0.203468  0.02432  3.369568  0.031
N  N281  1  0.51080454  0.13847894  0.09601651  1  -0.732642  0.040982  -0.243755  -0.204247  0.024267  3.369127  0.031
N  N282  1  0.35094197  0.90388955  0.13849940  1  -0.732124  0.040957  -0.243977  -0.203525  0.024272  3.369391  0.031
N  N283  1  0.74523134  0.86148636  0.90390012  1  -0.732106  0.040993  -0.244381  -0.204611  0.024282  3.371201  0.031
N  N284  1  0.39908673  0.36150901  0.59611925  1  -0.731971  0.04099  -0.244082  -0.203461  0.02429  3.369707  0.031
N  N285  1  0.35662468  0.63849760  0.40391384  1  -0.738091  0.041115  -0.243631  -0.20329  0.024337  3.36942  0.031
N  N286  1  0.23923300  0.40390846  0.36153649  1  -0.732688  0.041037  -0.244023  -0.203941  0.024304  3.369496  0.031
N  N287  1  0.00482059  0.59608905  0.63847309  1  -0.732171  0.040935  -0.244263  -0.204673  0.024251  3.370675  0.031
N  N288  1  0.39682167  0.03215735  0.83768695  1  -0.833836  0.000992  -0.287933  -0.153919  -0.000608  3.716164  0.0
N  N289  1  0.57121072  0.16234400  0.03204310  1  -0.83651  0.001019  -0.287631  -0.151126  -0.000595  3.715906  0.0
N  N290  1  0.26664739  0.96784030  0.16235529  1  -0.859546  0.001005  -0.28775  -0.152208  -0.000606  3.716355  0.0
N  N291  1  0.76553708  0.83763543  0.96787396  1  -0.842455  0.001  -0.287645  -0.151647  -0.0006  3.7157  0.0
N  N292  1  0.48338216  0.33766119  0.53216786  1  -0.853209  0.001009  -0.287755  -0.152344  -0.000603  3.716328  0.0
N  N293  1  0.35321290  0.66230166  0.46784827  1  -0.83383  0.000998  -0.287965  -0.153625  -0.000605  3.715912  0.0
N  N294  1  0.17883698  0.46786487  0.33765092  1  -0.836849  0.001016  -0.287528  -0.151853  -0.000599  3.716718  0.0
N  N295  1  0.98447904  0.53213618  0.66234653  1  -0.842656  0.000991  -0.287613  -0.15178  -0.000604  3.715414  0.0
O  O296  1  0.37514059  0.12270959  0.71759678  1  -1.164836  0.073968  -0.307823  -0.556292  0.038313  2.425154  0.068
O  O297  1  0.50213392  0.28254707  0.12251764  1  -1.162646  0.074073  -0.309005  -0.558231  0.038354  2.422507  0.068
O  O298  1  0.21528199  0.87733065  0.28244421  1  -1.170834  0.073987  -0.307518  -0.555748  0.038297  2.421808  0.068
O  O299  1  0.90722206  0.71747346  0.87740146  1  -1.169446  0.073925  -0.307894  -0.557345  0.038316  2.423405  0.068
O  O300  1  0.53477605  0.21754446  0.62262948  1  -1.170786  0.073995  -0.307398  -0.555804  0.038304  2.421656  0.068
O  O301  1  0.37484743  0.78241536  0.37737703  1  -1.165161  0.073965  -0.30793  -0.55647  0.038307  2.425  0.068
O  O302  1  0.24786784  0.37738307  0.21747710  1  -1.162476  0.073942  -0.308816  -0.558269  0.038288  2.422872  0.068
O  O303  1  0.84268475  0.62263306  0.78247000  1  -1.169699  0.073842  -0.307549  -0.557063  0.038258  2.422617  0.068
O  O304  1  0.34741274  0.21847700  0.63375877  1  -1.131589  0.087832  -0.301718  -0.503437  0.04596  2.321606  0.077
O  O305  1  0.43430102  0.36609393  0.21848829  1  -1.132169  0.087785  -0.30104  -0.504214  0.045858  2.321304  0.077
O  O306  1  0.19958173  0.78144529  0.36612513  1  -1.128927  0.087763  -0.30152  -0.503264  0.045834  2.321971  0.077
O  O307  1  0.01902485  0.63395467  0.78143952  1  -1.128379  0.0877  -0.301695  -0.504943  0.045829  2.321317  0.077
O  O308  1  0.55033043  0.13391861  0.71858504  1  -1.129218  0.087816  -0.301459  -0.503385  0.045865  2.322956  0.077
O  O309  1  0.40256554  0.86619641  0.28155428  1  -1.131215  0.087851  -0.30192  -0.503751  0.045974  2.322065  0.077
O  O310  1  0.31575101  0.28152070  0.13379058  1  -1.1323  0.087809  -0.301047  -0.503949  0.045874  2.32139  0.077
O  O311  1  0.73103496  0.71855171  0.86608787  1  -1.129103  0.087821  -0.301713  -0.504863  0.045904  2.322376  0.077
O  O312  1  0.21889638  0.98952806  0.53319263  1  -1.098517  -0.001613  -0.140635  -0.204393  -0.001511  2.593093  -0.001
O  O313  1  0.79183823  0.46674396  0.98962803  1  -1.104008  -0.001608  -0.139496  -0.202543  -0.0015  2.594766  -0.001
O  O314  1  0.74142162  0.01053709  0.46680322  1  -1.110013  -0.001611  -0.140167  -0.203238  -0.001504  2.591672  -0.001
O  O315  1  0.24815854  0.53324477  0.01044528  1  -1.096894  -0.001609  -0.1399  -0.20306  -0.001505  2.597043  -0.001
O  O316  1  0.00855513  0.03320241  0.48953479  1  -1.109853  -0.001609  -0.14017  -0.203152  -0.001502  2.592142  -0.001
O  O317  1  0.53114941  0.96684024  0.51043269  1  -1.098747  -0.001611  -0.140797  -0.204456  -0.001509  2.593114  -0.001
O  O318  1  0.95814141  0.51033383  0.03326822  1  -1.103904  -0.001608  -0.139485  -0.202208  -0.0015  2.595031  -0.001
O  O319  1  0.50183563  0.48958341  0.96677386  1  -1.09671  -0.001609  -0.139956  -0.202838  -0.001505  2.596743  -0.001
O  O320  1  0.01111982  0.74791486  0.66423951  1  -1.124627  0.098616  -0.303099  -0.505502  0.051389  2.369537  0.087
O  O321  1  0.24096746  0.33549741  0.74771945  1  -1.127577  0.098361  -0.302747  -0.505293  0.051278  2.369908  0.086
O  O322  1  0.42328658  0.25229597  0.33563900  1  -1.129677  0.098578  -0.303472  -0.506115  0.051429  2.370991  0.087
O  O323  1  0.32447521  0.66434688  0.25227723  1  -1.125262  0.098507  -0.303104  -0.506265  0.051401  2.373508  0.086
O  O324  1  0.32664410  0.16442298  0.24764939  1  -1.129262  0.098442  -0.303536  -0.50628  0.05137  2.370054  0.086
O  O325  1  0.73890844  0.83561213  0.75219203  1  -1.124305  0.098533  -0.303102  -0.505302  0.051364  2.370773  0.086
O  O326  1  0.50901768  0.75229342  0.16455252  1  -1.127147  0.098429  -0.302988  -0.505418  0.051311  2.369795  0.086
O  O327  1  0.42552151  0.24773223  0.83563805  1  -1.125526  0.098559  -0.303127  -0.506179  0.051423  2.373583  0.087
O  O328  1  0.91619427  0.83519618  0.75930596  1  -1.130143  0.088805  -0.306194  -0.521618  0.045628  2.340479  0.081
O  O329  1  0.24863342  0.24059743  0.83520827  1  -1.131152  0.088861  -0.306127  -0.521503  0.045645  2.342742  0.081
O  O330  1  0.51058041  0.16486556  0.24072634  1  -1.125537  0.088768  -0.306072  -0.521443  0.045642  2.34287  0.081
O  O331  1  0.32455832  0.75929613  0.16485304  1  -1.136793  0.089081  -0.305687  -0.52114  0.045663  2.343709  0.081
O  O332  1  0.23935130  0.25925863  0.33518742  1  -1.125511  0.088814  -0.305957  -0.521202  0.045667  2.342221  0.081
O  O333  1  0.83379273  0.74074666  0.66468248  1  -1.130453  0.088974  -0.305782  -0.520953  0.045703  2.339706  0.081
O  O334  1  0.50141801  0.66478487  0.25944056  1  -1.1316  0.08883  -0.305846  -0.521269  0.045622  2.342071  0.081
O  O335  1  0.42553422  0.33515942  0.74068291  1  -1.136526  0.089048  -0.305848  -0.521139  0.045642  2.343338  0.081
