# generated using pymatgen
data_CoH11C17NO4
_symmetry_space_group_name_H-M   'P 1'
_cell_length_a   18.32832733
_cell_length_b   18.40199048
_cell_length_c   18.40197319
_cell_angle_alpha   109.55264510
_cell_angle_beta   109.39037929
_cell_angle_gamma   109.38987462
_symmetry_Int_Tables_number   1
_chemical_formula_structural   CoH11C17NO4
_chemical_formula_sum   'Co12 H132 C204 N12 O48'
_cell_volume   4782.57049050
_cell_formula_units_Z   12
loop_
 _symmetry_equiv_pos_site_id
 _symmetry_equiv_pos_as_xyz
  1  'x, y, z'
loop_
 _atom_site_type_symbol
 _atom_site_label
 _atom_site_symmetry_multiplicity
 _atom_site_fract_x
 _atom_site_fract_y
 _atom_site_fract_z
 _atom_site_occupancy
 _atom_site_pbe_bader_charge
 _atom_site_pbe_bader_spin_density
 _atom_site_pbe_cm5_charge
 _atom_site_pbe_ddec_charge
 _atom_site_pbe_ddec_spin_density
 _atom_site_pbe_ddec_sum_bond_order
 _atom_site_pbe_magmom
Co  Co0  1  0.55179757  0.50370393  0.55979782  1  1.187881  2.599905  0.611475  0.768008  2.81795  2.715729  2.584
Co  Co1  1  0.04809462  0.05608808  0.49630130  1  1.189617  2.59988  0.611504  0.768079  2.817967  2.716148  2.584
Co  Co2  1  0.99199320  0.44017273  0.94388204  1  1.18825  2.600001  0.611564  0.768187  2.818213  2.716232  2.585
Co  Co3  1  0.50800168  0.05610290  0.55981660  1  1.188333  2.600095  0.61173  0.768381  2.818326  2.71709  2.585
Co  Co4  1  0.94819515  0.44019418  0.49628157  1  1.188132  2.600165  0.611699  0.768488  2.818331  2.716628  2.585
Co  Co5  1  0.45190535  0.50371444  0.94391730  1  1.189708  2.600044  0.611675  0.768355  2.818222  2.716771  2.585
Co  Co6  1  0.44808579  0.49624651  0.44002911  1  1.189862  2.60026  0.611764  0.768258  2.818861  2.716326  2.585
Co  Co7  1  0.95184452  0.94378984  0.50377175  1  1.192075  2.600328  0.611687  0.768071  2.818821  2.716377  2.585
Co  Co8  1  0.00805515  0.55994734  0.05619678  1  1.190191  2.600217  0.611621  0.767912  2.818582  2.716184  2.584
Co  Co9  1  0.49193899  0.94378966  0.44003363  1  1.190353  2.600105  0.611538  0.767808  2.818481  2.715518  2.584
Co  Co10  1  0.05191203  0.55996647  0.50374542  1  1.18958  2.599979  0.611458  0.767683  2.818474  2.715856  2.584
Co  Co11  1  0.54816144  0.49624531  0.05621808  1  1.192168  2.600154  0.611566  0.767834  2.818571  2.715949  2.584
H  H12  1  0.57991003  0.57001540  0.74163803  1  0.109678  -1.9e-05  0.107933  0.123806  -2.5e-05  1.039131  0.0
H  H13  1  0.62605264  0.63360837  0.34632678  1  0.051555  0.000417  0.102745  0.10142  0.000195  1.024573  0.0
H  H14  1  0.91489251  0.60202949  0.84524847  1  0.061731  -8e-06  0.104474  0.103611  -0.00014  1.030928  0.0
H  H15  1  0.85510849  0.51082895  0.68120022  1  0.081054  0.000465  0.105157  0.113324  0.000211  1.022381  0.0
H  H16  1  0.70148016  0.47092696  0.57548704  1  0.072708  0.00102  0.116003  0.08356  0.000315  1.02179  0.001
H  H17  1  0.89044928  0.67530470  0.96693241  1  0.078707  0.000358  0.106075  0.11703  0.000106  0.993087  0.0
H  H18  1  0.63465849  0.65826504  0.90304805  1  0.059947  8.9e-05  0.096814  0.091213  1.2e-05  1.047556  0.0
H  H19  1  0.35730642  0.22661554  0.21989019  1  0.081446  0.000289  0.108896  0.11133  0.000101  1.002154  0.0
H  H20  1  0.78993195  0.71310558  0.01577801  1  0.031917  -2e-05  0.09456  0.092081  -3.9e-05  1.029465  0.0
H  H21  1  0.00990685  0.17163193  0.42998936  1  0.104015  -1.9e-05  0.107971  0.123825  -2.5e-05  1.03916  0.0
H  H22  1  0.99245324  0.71270723  0.36640753  1  0.052427  0.000412  0.102715  0.101324  0.000195  1.024694  0.0
H  H23  1  0.31285336  0.24317746  0.39795362  1  0.083204  -2e-06  0.104445  0.103586  -0.00014  1.030866  0.0
H  H24  1  0.34428077  0.17036756  0.48918587  1  0.078999  0.000464  0.105133  0.113226  0.00021  1.022445  0.0
H  H25  1  0.23055881  0.10457248  0.52909673  1  0.087782  0.001003  0.116003  0.083526  0.000314  1.021767  0.001
H  H26  1  0.21514181  0.29158809  0.32466611  1  0.091694  0.000354  0.106096  0.117128  0.000106  0.993092  0.0
H  H27  1  0.97641652  0.24479877  0.34174359  1  0.064593  8.7e-05  0.09686  0.091307  1.2e-05  1.047443  0.0
H  H28  1  0.13068424  0.99327878  0.77340342  1  0.120678  0.0003  0.10889  0.111432  0.000101  1.00225  0.0
H  H29  1  0.07684245  0.30266142  0.28688727  1  0.062114  -2e-05  0.094588  0.092123  -3.9e-05  1.02927  0.0
H  H30  1  0.83826920  0.25836224  0.82835270  1  0.123021  -1.7e-05  0.107907  0.123703  -2.5e-05  1.039197  0.0
H  H31  1  0.27974026  0.65371456  0.28728852  1  0.065317  0.000419  0.102744  0.101412  0.000195  1.024496  0.0
H  H32  1  0.06964233  0.15474415  0.75677766  1  0.098822  1e-06  0.104446  0.103607  -0.00014  1.030999  0.0
H  H33  1  0.17389892  0.31879142  0.82960776  1  0.101691  0.00046  0.105155  0.113272  0.000211  1.022444  0.0
H  H34  1  0.12598585  0.42450489  0.89541994  1  0.074841  0.001007  0.116078  0.083665  0.000314  1.021727  0.001
H  H35  1  0.92350537  0.03306018  0.70835694  1  0.073564  0.000358  0.106096  0.117052  0.000106  0.993144  0.0
H  H36  1  0.73160094  0.09695525  0.75519323  1  0.065659  8.8e-05  0.096834  0.091256  1.2e-05  1.047599  0.0
H  H37  1  0.13738212  0.78009843  0.00671347  1  0.104189  0.000288  0.108856  0.111341  0.000101  1.002126  0.0
H  H38  1  0.77414473  0.98422203  0.69731393  1  0.080239  -2.1e-05  0.094573  0.09208  -3.9e-05  1.029514  0.0
H  H39  1  0.66171022  0.17159885  0.74159431  1  0.125884  -1.6e-05  0.108032  0.123929  -2.5e-05  1.03904  0.0
H  H40  1  0.22027808  0.71271885  0.34631413  1  0.065482  0.000419  0.102744  0.101464  0.000195  1.024464  0.0
H  H41  1  0.43036222  0.24321080  0.84523452  1  0.095421  -0.0  0.104553  0.1037  -0.00014  1.030801  0.0
H  H42  1  0.32609986  0.17038328  0.68118885  1  0.101602  0.00046  0.105119  0.113168  0.000211  1.02254  0.0
H  H43  1  0.37399602  0.10455912  0.57546566  1  0.074378  0.001008  0.115961  0.083458  0.000315  1.021994  0.001
H  H44  1  0.57650838  0.29162704  0.96691340  1  0.074004  0.000358  0.106173  0.117243  0.000106  0.992857  0.0
H  H45  1  0.76838744  0.24476362  0.90299781  1  0.065599  8.8e-05  0.096763  0.09116  1.2e-05  1.04778  0.0
H  H46  1  0.36258315  0.99326125  0.21986042  1  0.103957  0.000287  0.108896  0.11145  0.000101  1.002024  0.0
H  H47  1  0.72585880  0.30265998  0.01573681  1  0.079362  -2.1e-05  0.094632  0.092196  -3.9e-05  1.029189  0.0
H  H48  1  0.92008578  0.25838174  0.42997319  1  0.110293  -1.8e-05  0.107952  0.123772  -2.5e-05  1.03933  0.0
H  H49  1  0.87396034  0.65367543  0.36640768  1  0.050946  0.000417  0.102661  0.101312  0.000195  1.024686  0.0
H  H50  1  0.58511298  0.15477258  0.39796287  1  0.061932  -8e-06  0.104491  0.103708  -0.00014  1.030685  0.0
H  H51  1  0.64490892  0.31881814  0.48919559  1  0.080565  0.000466  0.105099  0.113177  0.000211  1.022498  0.0
H  H52  1  0.79853707  0.42453641  0.52910366  1  0.07264  0.001023  0.11599  0.083523  0.000315  1.021873  0.001
H  H53  1  0.60955904  0.03308925  0.32468392  1  0.079687  0.000358  0.106093  0.117057  0.000106  0.992839  0.0
H  H54  1  0.86534930  0.09697975  0.34173494  1  0.060265  8.9e-05  0.096794  0.09124  1.2e-05  1.047666  0.0
H  H55  1  0.14269522  0.78011497  0.77338745  1  0.081261  0.000288  0.108867  0.111201  0.000101  1.002102  0.0
H  H56  1  0.71007791  0.98424565  0.28689062  1  0.032542  -2e-05  0.094519  0.092004  -3.9e-05  1.029254  0.0
H  H57  1  0.49010821  0.57003467  0.82841299  1  0.103292  -1.9e-05  0.107933  0.123715  -2.5e-05  1.039418  0.0
H  H58  1  0.50756064  0.63360961  0.28729022  1  0.052331  0.000412  0.102744  0.101371  0.000195  1.024494  0.0
H  H59  1  0.18714161  0.60203543  0.75683887  1  0.086156  -1e-06  0.104539  0.103675  -0.00014  1.030751  0.0
H  H60  1  0.15571345  0.51079255  0.82963971  1  0.080032  0.000465  0.105111  0.113097  0.000211  1.022487  0.0
H  H61  1  0.26944387  0.47089600  0.89544791  1  0.087643  0.001006  0.115964  0.083435  0.000315  1.022032  0.001
H  H62  1  0.28486707  0.67533495  0.70844357  1  0.091806  0.000355  0.106075  0.117076  0.000106  0.992921  0.0
H  H63  1  0.52360376  0.65828072  0.75525224  1  0.06685  8.6e-05  0.09674  0.091156  1.2e-05  1.047644  0.0
H  H64  1  0.36932736  0.22661246  0.00673931  1  0.120635  0.0003  0.108868  0.11136  0.000101  1.002179  0.0
H  H65  1  0.42316864  0.71312475  0.69737792  1  0.062057  -2.1e-05  0.094607  0.092212  -3.9e-05  1.029306  0.0
H  H66  1  0.42007673  0.42996098  0.25831091  1  0.109298  -1.8e-05  0.107907  0.123664  -2.4e-05  1.039465  0.0
H  H67  1  0.37394211  0.36641524  0.65363412  1  0.051856  0.000417  0.10275  0.101418  0.000195  1.024527  0.0
H  H68  1  0.08509965  0.39795288  0.15473576  1  0.061966  -8e-06  0.10443  0.103519  -0.00014  1.03102  0.0
H  H69  1  0.14490669  0.48917870  0.31879137  1  0.080669  0.000466  0.105151  0.113228  0.000211  1.022437  0.0
H  H70  1  0.29853293  0.52908933  0.42448721  1  0.072987  0.001025  0.116028  0.083533  0.000316  1.021848  0.001
H  H71  1  0.10953406  0.32469363  0.03304941  1  0.078076  0.000359  0.106158  0.117222  0.000106  0.99309  0.0
H  H72  1  0.36532106  0.34171999  0.09691284  1  0.060101  8.9e-05  0.0968  0.091344  1.2e-05  1.047557  0.0
H  H73  1  0.64268342  0.77337747  0.78005448  1  0.082182  0.000289  0.108862  0.111407  0.000101  1.001699  0.0
H  H74  1  0.21004093  0.28688809  0.98418414  1  0.03169  -2e-05  0.094562  0.092118  -3.9e-05  1.029304  0.0
H  H75  1  0.99008293  0.82834312  0.57004381  1  0.105275  -1.9e-05  0.107852  0.123541  -2.4e-05  1.039387  0.0
H  H76  1  0.00752703  0.28722924  0.63358728  1  0.053505  0.000413  0.102721  0.101366  0.000196  1.024504  0.0
H  H77  1  0.68714054  0.75683484  0.60207548  1  0.085495  -1e-06  0.104454  0.103448  -0.00014  1.03127  0.0
H  H78  1  0.65570788  0.82962279  0.51081076  1  0.079033  0.000466  0.105142  0.113159  0.000211  1.022386  0.0
H  H79  1  0.76942838  0.89539525  0.47089727  1  0.087804  0.001009  0.116084  0.083598  0.000316  1.021833  0.001
H  H80  1  0.78484576  0.70842887  0.67537117  1  0.091097  0.000356  0.106125  0.117204  0.000106  0.993306  0.0
H  H81  1  0.02357847  0.75520289  0.65830023  1  0.064906  8.6e-05  0.096797  0.091324  1.2e-05  1.047413  0.0
H  H82  1  0.86932050  0.00667166  0.22665900  1  0.12285  0.000301  0.108821  0.111209  0.000101  1.001605  0.0
H  H83  1  0.92314480  0.69734556  0.71316123  1  0.061585  -2e-05  0.094608  0.092066  -3.9e-05  1.029294  0.0
H  H84  1  0.16176386  0.74169397  0.17164640  1  0.123084  -1.7e-05  0.107905  0.123674  -2.4e-05  1.039419  0.0
H  H85  1  0.72029343  0.34637158  0.71276921  1  0.066157  0.00042  0.102704  0.101484  0.000195  1.024414  0.0
H  H86  1  0.93035772  0.84526682  0.24320356  1  0.098495  1e-06  0.104419  0.103515  -0.00014  1.031082  0.0
H  H87  1  0.82611833  0.68121224  0.17038752  1  0.10205  0.00046  0.105141  0.113175  0.000211  1.022456  0.0
H  H88  1  0.87404752  0.57551939  0.10459898  1  0.075101  0.00101  0.116003  0.083553  0.000316  1.021935  0.001
H  H89  1  0.07648073  0.96695412  0.29162463  1  0.072774  0.000359  0.106102  0.11712  0.000106  0.993245  0.0
H  H90  1  0.26840888  0.90309032  0.24480010  1  0.065334  8.7e-05  0.096794  0.091264  1.2e-05  1.047548  0.0
H  H91  1  0.86263238  0.21993782  0.99330870  1  0.103604  0.000287  0.108833  0.111368  0.000101  1.00207  0.0
H  H92  1  0.22585106  0.01581622  0.30268700  1  0.080695  -2.1e-05  0.094563  0.092123  -3.9e-05  1.029445  0.0
H  H93  1  0.33822892  0.82831367  0.25828657  1  0.122635  -1.7e-05  0.107902  0.123554  -2.4e-05  1.039385  0.0
H  H94  1  0.77968905  0.28723092  0.65363193  1  0.066731  0.00042  0.102688  0.101334  0.000196  1.024422  0.0
H  H95  1  0.56964473  0.75678753  0.15470995  1  0.098261  1e-06  0.104513  0.103591  -0.00014  1.031425  0.0
H  H96  1  0.67388993  0.82960840  0.31876514  1  0.101848  0.00046  0.105189  0.113331  0.000211  1.022402  0.0
H  H97  1  0.62595462  0.89538666  0.42445896  1  0.07651  0.001007  0.115993  0.083478  0.000315  1.021647  0.001
H  H98  1  0.42352071  0.70835200  0.03302099  1  0.07365  0.000358  0.106155  0.11728  0.000106  0.993372  0.0
H  H99  1  0.23158343  0.75516153  0.09688252  1  0.065554  8.8e-05  0.096859  0.0915  1.2e-05  1.047349  0.0
H  H100  1  0.63734648  0.00667388  0.78002438  1  0.103541  0.000288  0.108815  0.111204  0.000101  1.001772  0.0
H  H101  1  0.27414667  0.69728580  0.98416072  1  0.082168  -2.1e-05  0.094477  0.091889  -3.9e-05  1.029555  0.0
H  H102  1  0.07992930  0.74170440  0.57004038  1  0.109077  -1.8e-05  0.107909  0.123594  -2.4e-05  1.039359  0.0
H  H103  1  0.12606264  0.34637213  0.63359553  1  0.051973  0.000417  0.102712  0.101438  0.000196  1.024423  0.0
H  H104  1  0.41491483  0.84529959  0.60206758  1  0.061707  -8e-06  0.10454  0.103624  -0.00014  1.031245  0.0
H  H105  1  0.35512455  0.68124672  0.51086035  1  0.080876  0.000466  0.105149  0.11322  0.000211  1.022279  0.0
H  H106  1  0.20150172  0.57554840  0.47094768  1  0.073166  0.001022  0.116003  0.083427  0.000315  1.021753  0.001
H  H107  1  0.39046949  0.96698226  0.67530851  1  0.078811  0.000359  0.106179  0.117209  0.000106  0.993278  0.0
H  H108  1  0.13467719  0.90310839  0.65828088  1  0.060269  8.9e-05  0.09683  0.091382  1.2e-05  1.047439  0.0
H  H109  1  0.85731031  0.21994855  0.22662355  1  0.081997  0.00029  0.108844  0.111341  0.000101  1.001735  0.0
H  H110  1  0.28995786  0.01583916  0.71311028  1  0.030339  -2e-05  0.094505  0.091871  -3.9e-05  1.029662  0.0
H  H111  1  0.50992786  0.42997031  0.17168185  1  0.105338  -1.9e-05  0.107869  0.123482  -2.4e-05  1.039403  0.0
H  H112  1  0.49247378  0.36644660  0.71278867  1  0.053353  0.000412  0.1027  0.101335  0.000196  1.02453  0.0
H  H113  1  0.81286712  0.39792897  0.24319098  1  0.083282  -2e-06  0.104395  0.10352  -0.00014  1.03142  0.0
H  H114  1  0.84429367  0.48918250  0.17039481  1  0.079135  0.000465  0.105153  0.113193  0.000211  1.022567  0.0
H  H115  1  0.73058190  0.52910234  0.10462555  1  0.071711  0.001015  0.116059  0.083667  0.000315  1.02168  0.001
H  H116  1  0.71517282  0.32465008  0.29160886  1  0.0903  0.000356  0.106103  0.117262  0.000106  0.993255  0.0
H  H117  1  0.47644404  0.34172693  0.24484027  1  0.065102  8.6e-05  0.096905  0.091513  1.2e-05  1.047452  0.0
H  H118  1  0.63067659  0.77336059  0.99334839  1  0.122861  0.000301  0.108847  0.111334  0.000101  1.001571  0.0
H  H119  1  0.57688092  0.28687026  0.30270115  1  0.062163  -2e-05  0.094607  0.092122  -3.9e-05  1.029559  0.0
H  H120  1  0.48342185  0.23340384  0.46681903  1  0.085046  0.000799  0.112232  0.119759  0.000457  1.01233  0.0
H  H121  1  0.31834739  0.06834800  0.13667780  1  0.065674  0.00036  0.103852  0.099988  0.000186  0.992809  0.0
H  H122  1  0.25001285  0.23339966  0.76658847  1  0.086972  0.000812  0.112277  0.119792  0.000457  1.01234  0.0
H  H123  1  0.25000354  0.06834173  0.93167240  1  0.059653  0.000361  0.103818  0.0999  0.000186  0.992871  0.0
H  H124  1  0.01659110  0.53316132  0.76657451  1  0.084687  0.0008  0.112179  0.119633  0.000457  1.012183  0.0
H  H125  1  0.18162957  0.86330236  0.93165109  1  0.065888  0.00036  0.103878  0.100009  0.000186  0.992661  0.0
H  H126  1  0.51654958  0.76652930  0.53307884  1  0.08389  0.0008  0.112255  0.119716  0.000458  1.012586  0.0
H  H127  1  0.68161168  0.93162638  0.86322660  1  0.06695  0.00036  0.103692  0.099655  0.000186  0.991933  0.0
H  H128  1  0.75000828  0.76653148  0.23347503  1  0.086732  0.000814  0.11229  0.119525  0.000458  1.012692  0.0
H  H129  1  0.75000001  0.93161203  0.06840488  1  0.06219  0.000361  0.103697  0.09979  0.000186  0.991718  0.0
H  H130  1  0.98347003  0.46690354  0.23344759  1  0.083944  0.0008  0.112251  0.119744  0.000458  1.012378  0.0
H  H131  1  0.81837269  0.13675917  0.06837284  1  0.066882  0.00036  0.103695  0.09963  0.000186  0.992063  0.0
H  H132  1  0.75000102  0.52004719  0.47997950  1  0.066344  0.000423  0.104946  0.108106  0.000235  1.020536  0.0
H  H133  1  0.75001154  0.68509115  0.31492769  1  0.070846  0.000336  0.103996  0.108561  0.000122  0.990369  0.0
H  H134  1  0.22995204  0.95992616  0.47994346  1  0.061972  0.000423  0.104998  0.108166  0.000235  1.020587  0.0
H  H135  1  0.06491947  0.62982104  0.31491402  1  0.078242  0.000334  0.104185  0.109004  0.000121  0.990347  0.0
H  H136  1  0.27002507  0.52000525  0.04007784  1  0.061877  0.000422  0.104972  0.108147  0.000235  1.020635  0.0
H  H137  1  0.43509518  0.68511630  0.37017804  1  0.078215  0.000334  0.104188  0.108952  0.000122  0.990312  0.0
H  H138  1  0.24999980  0.48000237  0.52001113  1  0.065866  0.000421  0.105086  0.108193  0.000234  1.020442  0.0
H  H139  1  0.25000504  0.31495175  0.68506044  1  0.071997  0.000336  0.103938  0.108536  0.000121  0.990405  0.0
H  H140  1  0.76999008  0.04001297  0.51998375  1  0.061579  0.000421  0.105097  0.108203  0.000234  1.020402  0.0
H  H141  1  0.93504691  0.37011210  0.68504413  1  0.07939  0.000334  0.103931  0.108542  0.000122  0.990402  0.0
H  H142  1  0.72999027  0.47998377  0.95999450  1  0.061006  0.000421  0.105082  0.108219  0.000234  1.020399  0.0
H  H143  1  0.56494039  0.31498049  0.62989257  1  0.079676  0.000334  0.103977  0.108474  0.000121  0.990542  0.0
C  C144  1  0.64830074  0.59600066  0.79114776  1  0.024204  0.001067  -0.086342  -0.158088  0.000524  3.94171  0.001
C  C145  1  0.45573872  0.33620463  0.40193560  1  1.547411  -0.012457  0.212777  0.553762  -0.01677  4.19095  -0.011
C  C146  1  0.68201336  0.57651417  0.41816470  1  -0.026724  0.010915  -0.01757  -0.038996  0.005854  3.986921  0.009
C  C147  1  0.70505082  0.57621526  0.76164455  1  0.431214  0.001304  0.115526  0.202294  0.000428  3.95295  0.001
C  C148  1  0.68073229  0.62063960  0.36910168  1  0.007005  -0.003122  -0.075345  -0.077645  -0.003656  3.944676  -0.002
C  C149  1  0.61372888  0.55196791  0.44561128  1  1.515118  -0.009535  0.215784  0.568307  -0.013058  4.154516  -0.009
C  C150  1  0.42624458  0.24064424  0.34853225  1  0.00565  0.010941  -0.0177  -0.03861  0.005764  4.005008  0.009
C  C151  1  0.79359073  0.60526778  0.82679465  1  0.02031  0.002379  -0.004431  0.032541  0.00115  3.999793  0.002
C  C152  1  0.84781829  0.58093028  0.79651576  1  -0.091185  -0.000371  -0.064382  -0.061798  -0.000578  3.93701  0.0
C  C153  1  0.81504482  0.53093222  0.70669000  1  0.036422  0.002228  -0.092118  -0.149564  0.001046  4.000086  0.002
C  C154  1  0.72824281  0.50739772  0.64706327  1  0.540353  -0.000562  0.05616  0.109982  -0.001236  3.95236  0.0
C  C155  1  0.82343629  0.65526119  0.91862918  1  -0.057358  0.000928  -0.085224  -0.1147  0.000506  3.9645  0.001
C  C156  1  0.67931310  0.64464500  0.88095890  1  -0.081893  0.000252  -0.091232  -0.072361  2.1e-05  3.999571  0.0
C  C157  1  0.37695837  0.19330517  0.25531006  1  -0.091066  -0.005712  -0.072569  -0.078839  -0.006352  3.938899  -0.003
C  C158  1  0.76732229  0.67521622  0.94521979  1  -0.013643  0.000152  -0.09463  -0.084879  -1.5e-05  4.020284  0.0
C  C159  1  0.05230669  0.19514924  0.40399957  1  -0.030562  0.001072  -0.086397  -0.158182  0.000523  3.941901  0.001
C  C160  1  0.11951699  0.06571838  0.66380755  1  1.511692  -0.012391  0.212431  0.553421  -0.016777  4.191371  -0.011
C  C161  1  0.10550212  0.84164431  0.42349514  1  -0.044737  0.01097  -0.0176  -0.038871  0.005853  3.986823  0.009
C  C162  1  0.12883849  0.18542529  0.42378145  1  0.430418  0.00128  0.115625  0.20255  0.000428  3.952561  0.001
C  C163  1  0.06009783  0.74845221  0.37937205  1  0.023029  -0.00312  -0.075185  -0.077439  -0.003652  3.944545  -0.002
C  C164  1  0.06176585  0.89363768  0.44804196  1  1.532532  -0.009581  0.215706  0.56809  -0.013055  4.154505  -0.009
C  C165  1  0.18559894  0.10788659  0.75936755  1  0.013823  0.010856  -0.017609  -0.038373  0.005763  4.004678  0.009
C  C166  1  0.18832792  0.22150589  0.39472234  1  -0.001089  0.002377  -0.00443  0.032399  0.001149  4.000064  0.002
C  C167  1  0.26688468  0.21556173  0.41906051  1  -0.049674  -0.000382  -0.064455  -0.061948  -0.000573  3.937081  0.0
C  C168  1  0.28411411  0.17575217  0.46907717  1  -0.033922  0.00224  -0.091994  -0.149221  0.001044  3.999954  0.002
C  C169  1  0.22085269  0.13967092  0.49261720  1  0.532201  -0.000543  0.056069  0.109873  -0.001232  3.952492  0.0
C  C170  1  0.16817513  0.26333707  0.34471891  1  -0.025561  0.000922  -0.085208  -0.114697  0.000507  3.964777  0.001
C  C171  1  0.03468434  0.23631586  0.35535618  1  -0.028508  0.000246  -0.091289  -0.072518  2.2e-05  3.9995  0.0
C  C172  1  0.18364778  0.06200299  0.80671068  1  -0.077035  -0.005712  -0.072553  -0.078944  -0.006347  3.939003  -0.003
C  C173  1  0.09211580  0.26999168  0.32477290  1  -0.055101  0.000154  -0.09462  -0.08479  -1.5e-05  4.020077  0.0
C  C174  1  0.85714816  0.20885162  0.80483166  1  -0.042837  0.001073  -0.086367  -0.157944  0.000524  3.941858  0.001
C  C175  1  0.05379407  0.59804914  0.93425887  1  1.528925  -0.012451  0.212951  0.554125  -0.016774  4.190319  -0.011
C  C176  1  0.26385159  0.58184252  0.15835200  1  0.001082  0.010862  -0.017679  -0.039096  0.005854  3.986997  0.009
C  C177  1  0.94339963  0.23834909  0.81455485  1  0.438385  0.001316  0.115595  0.202269  0.000429  3.953161  0.001
C  C178  1  0.31164111  0.63092714  0.25154431  1  0.059611  -0.003122  -0.075167  -0.077373  -0.003656  3.944272  -0.002
C  C179  1  0.16811799  0.55437995  0.10634545  1  1.510172  -0.009496  0.215951  0.568405  -0.013055  4.154477  -0.009
C  C180  1  0.07769054  0.65144697  0.89209602  1  -0.023097  0.010923  -0.017769  -0.038737  0.005763  4.004889  0.009
C  C181  1  0.96679451  0.17319838  0.77846397  1  0.007795  0.002381  -0.004366  0.032667  0.001151  3.999922  0.002
C  C182  1  0.05129814  0.20347646  0.78440550  1  -0.117224  -0.000386  -0.064367  -0.061873  -0.000576  3.937031  0.0
C  C183  1  0.10834822  0.29330313  0.82422633  1  -0.066862  0.002258  -0.092197  -0.149421  0.001046  3.99999  0.002
C  C184  1  0.08117446  0.35292919  0.86031629  1  0.562491  -0.000566  0.056045  0.109728  -0.001236  3.952327  0.0
C  C185  1  0.90480376  0.08136809  0.73662531  1  0.01768  0.000911  -0.085142  -0.114618  0.000507  3.964575  0.001
C  C186  1  0.79834772  0.11904026  0.76366616  1  -0.042637  0.00025  -0.091301  -0.072541  2.2e-05  3.999805  0.0
C  C187  1  0.12161657  0.74467433  0.93797889  1  -0.00705  -0.005732  -0.072421  -0.07878  -0.006352  3.938498  -0.003
C  C188  1  0.82209461  0.05477896  0.72998390  1  -0.067589  0.000153  -0.094695  -0.084873  -1.5e-05  4.020406  0.0
C  C189  1  0.64283841  0.19512794  0.79110659  1  -0.046503  0.001073  -0.086565  -0.158548  0.000524  3.941677  0.001
C  C190  1  0.44620077  0.06573274  0.40193395  1  1.527896  -0.012449  0.212774  0.553721  -0.016769  4.19126  -0.011
C  C191  1  0.23614210  0.84165554  0.41814539  1  0.001255  0.010863  -0.017689  -0.039174  0.005854  3.987092  0.009
C  C192  1  0.55658800  0.18541480  0.76161249  1  0.437696  0.001315  0.115485  0.202489  0.000429  3.952863  0.001
C  C193  1  0.18837679  0.74846611  0.36908731  1  0.058772  -0.003119  -0.075289  -0.077568  -0.003653  3.944312  -0.002
C  C194  1  0.33188629  0.89366543  0.44562169  1  1.511268  -0.009504  0.216035  0.568627  -0.013065  4.153906  -0.009
C  C195  1  0.42230641  0.10789389  0.34853823  1  -0.022628  0.010919  -0.017581  -0.038299  0.005762  4.00461  0.009
C  C196  1  0.53319860  0.22150932  0.82676663  1  0.006652  0.002384  -0.00429  0.03254  0.001152  3.999782  0.002
C  C197  1  0.44870018  0.21558062  0.79649944  1  -0.113045  -0.00039  -0.064622  -0.062114  -0.000581  3.936786  0.0
C  C198  1  0.39164662  0.17575994  0.70667430  1  -0.055544  0.002258  -0.091949  -0.149096  0.001048  3.999832  0.002
C  C199  1  0.41881239  0.13966208  0.64704151  1  0.551348  -0.000566  0.056117  0.110055  -0.00124  3.9523  0.0
C  C200  1  0.59519837  0.26335292  0.91859723  1  0.018397  0.000911  -0.085465  -0.115123  0.000507  3.964782  0.001
C  C201  1  0.70164581  0.23629835  0.88091598  1  -0.042079  0.000249  -0.091051  -0.071968  2.1e-05  3.99977  0.0
C  C202  1  0.37836096  0.06199898  0.25529934  1  -0.007909  -0.005729  -0.072636  -0.079182  -0.00635  3.938467  -0.003
C  C203  1  0.67790470  0.26998876  0.94518264  1  -0.065297  0.000154  -0.094722  -0.084978  -1.5e-05  4.020359  0.0
C  C204  1  0.85170279  0.20887360  0.40399060  1  0.023995  0.001068  -0.086554  -0.158209  0.000524  3.942049  0.001
C  C205  1  0.04424826  0.59803876  0.66379156  1  1.526668  -0.012405  0.212962  0.554147  -0.016768  4.190612  -0.011
C  C206  1  0.81799033  0.58184517  0.42351047  1  -0.026401  0.010918  -0.017656  -0.039173  0.005855  3.987035  0.009
C  C207  1  0.79495373  0.23837920  0.42377956  1  0.431582  0.001303  0.115623  0.202427  0.000428  3.952458  0.001
C  C208  1  0.81928612  0.63090720  0.37938380  1  0.0077  -0.003123  -0.075176  -0.077476  -0.003657  3.944245  -0.002
C  C209  1  0.88625568  0.55436251  0.44803990  1  1.51592  -0.009539  0.215988  0.568707  -0.013071  4.153979  -0.009
C  C210  1  0.07375127  0.65144477  0.75934727  1  0.026165  0.01089  -0.017725  -0.038652  0.005762  4.004757  0.009
C  C211  1  0.70640856  0.17323047  0.39472261  1  0.020298  0.002384  -0.004378  0.03253  0.001153  3.999994  0.002
C  C212  1  0.65218588  0.20350374  0.41906830  1  -0.090867  -0.000378  -0.064627  -0.06227  -0.000585  3.937176  0.0
C  C213  1  0.68496641  0.29332857  0.46908241  1  0.004531  0.002247  -0.091888  -0.149087  0.001049  3.999942  0.002
C  C214  1  0.77176774  0.35295662  0.49261859  1  0.571659  -0.00058  0.056133  0.110006  -0.001242  3.952171  0.0
C  C215  1  0.67656966  0.08139732  0.34472692  1  -0.059408  0.000927  -0.085342  -0.114749  0.000506  3.964638  0.001
C  C216  1  0.82069532  0.11906606  0.35535151  1  -0.082799  0.000251  -0.091169  -0.072388  2e-05  3.999982  0.0
C  C217  1  0.12303425  0.74467544  0.80668418  1  -0.090658  -0.005714  -0.072418  -0.078495  -0.006354  3.93839  -0.003
C  C218  1  0.73268474  0.05480340  0.32477549  1  -0.012754  0.000152  -0.094484  -0.084723  -1.5e-05  4.020053  0.0
C  C219  1  0.44770738  0.59601711  0.80489337  1  -0.008804  0.001071  -0.086457  -0.158095  0.000524  3.941979  0.001
C  C220  1  0.38047156  0.33619796  0.93426055  1  1.511595  -0.012383  0.212743  0.553752  -0.016765  4.191224  -0.011
C  C221  1  0.39449207  0.57649140  0.15835213  1  -0.04471  0.010973  -0.017644  -0.039229  0.005854  3.987247  0.009
C  C222  1  0.37117071  0.57622388  0.81461051  1  0.421708  0.001303  0.115524  0.202279  0.000428  3.952725  0.001
C  C223  1  0.43991303  0.62063344  0.25154301  1  0.02222  -0.003127  -0.075214  -0.077375  -0.003658  3.944373  -0.002
C  C224  1  0.43822457  0.55195502  0.10634670  1  1.533227  -0.009587  0.215934  0.568594  -0.013066  4.154469  -0.009
C  C225  1  0.31441151  0.24063779  0.89210443  1  0.013711  0.010854  -0.01759  -0.038328  0.005762  4.004615  0.009
C  C226  1  0.31167824  0.60527839  0.77852442  1  -0.0013  0.002381  -0.004456  0.032537  0.001152  3.999693  0.002
C  C227  1  0.23311388  0.58092773  0.78445466  1  -0.051693  -0.000389  -0.064642  -0.062192  -0.00058  3.937025  0.0
C  C228  1  0.21588353  0.53090519  0.82425938  1  -0.035518  0.002246  -0.091922  -0.149118  0.001047  4.000022  0.002
C  C229  1  0.27915074  0.50737400  0.86034839  1  0.532092  -0.000548  0.056188  0.110209  -0.001238  3.952316  0.0
C  C230  1  0.33183536  0.65528827  0.73669821  1  -0.025782  0.000921  -0.085113  -0.114564  0.000506  3.964328  0.001
C  C231  1  0.46533528  0.64466397  0.76373021  1  -0.050459  0.000249  -0.09101  -0.072152  2.1e-05  3.999436  0.0
C  C232  1  0.31636719  0.19330731  0.93800868  1  -0.07707  -0.005713  -0.072564  -0.078912  -0.006348  3.938484  -0.003
C  C233  1  0.40789628  0.67524183  0.73005006  1  -0.054788  0.000154  -0.094727  -0.085119  -1.5e-05  4.02019  0.0
C  C234  1  0.35168906  0.40399102  0.20881275  1  0.025317  0.001069  -0.08624  -0.157758  0.000525  3.941996  0.001
C  C235  1  0.54417004  0.66374780  0.59794272  1  1.526221  -0.012389  0.212703  0.553522  -0.01677  4.191101  -0.011
C  C236  1  0.31797463  0.42351676  0.58179535  1  -0.027766  0.010911  -0.017398  -0.038977  0.005854  3.987225  0.009
C  C237  1  0.29494769  0.42378573  0.23832249  1  0.43127  0.001311  0.115515  0.202163  0.000431  3.953294  0.001
C  C238  1  0.31927566  0.37939998  0.63087217  1  0.009395  -0.003116  -0.075246  -0.077408  -0.00365  3.944102  -0.002
C  C239  1  0.38620872  0.44800980  0.55428555  1  1.51541  -0.009497  0.21566  0.568136  -0.013032  4.155305  -0.009
C  C240  1  0.57370084  0.75931551  0.65137688  1  0.025927  0.010892  -0.017301  -0.037512  0.005764  4.004234  0.009
C  C241  1  0.20640151  0.39472989  0.17317737  1  0.021428  0.002385  -0.004577  0.032409  0.001153  3.999995  0.002
C  C242  1  0.15218066  0.41906806  0.20346575  1  -0.09235  -0.000361  -0.064377  -0.061775  -0.000569  3.937057  0.0
C  C243  1  0.18496440  0.46907742  0.29329379  1  0.037854  0.002231  -0.092172  -0.149385  0.001047  4.000057  0.002
C  C244  1  0.27176425  0.49261458  0.35290983  1  0.539823  -0.000552  0.0562  0.110037  -0.001231  3.951998  0.0
C  C245  1  0.17655009  0.34473514  0.08134427  1  -0.056603  0.000934  -0.085137  -0.114752  0.000509  3.964285  0.001
C  C246  1  0.32066952  0.35534735  0.11900164  1  -0.083181  0.000257  -0.09133  -0.072787  2.3e-05  3.999973  0.0
C  C247  1  0.62300117  0.80664926  0.74460246  1  0.006189  -0.005714  -0.072577  -0.079423  -0.006362  3.93853  -0.003
C  C248  1  0.23266225  0.32477879  0.05474609  1  -0.013315  0.00015  -0.094463  -0.08455  -1.6e-05  4.019952  0.0
C  C249  1  0.94768329  0.80484244  0.59603055  1  -0.010491  0.001071  -0.086282  -0.157673  0.000525  3.942023  0.001
C  C250  1  0.88041575  0.93417219  0.33627035  1  1.53486  -0.012456  0.212584  0.553667  -0.016774  4.190882  -0.011
C  C251  1  0.89446150  0.15828551  0.57648327  1  -0.046664  0.010977  -0.017342  -0.038965  0.005856  3.987389  0.009
C  C252  1  0.87115261  0.81456173  0.57624042  1  0.430664  0.001288  0.115468  0.201812  0.000432  3.953528  0.001
C  C253  1  0.93987427  0.25147494  0.62059792  1  0.023976  -0.003123  -0.07533  -0.077435  -0.003652  3.944262  -0.002
C  C254  1  0.93819182  0.10626951  0.55198668  1  1.533527  -0.009568  0.215684  0.568227  -0.013031  4.15516  -0.009
C  C255  1  0.81438307  0.89204256  0.24070417  1  -0.016244  0.01093  -0.017343  -0.037808  0.005763  4.004736  0.009
C  C256  1  0.81166105  0.77848846  0.60530074  1  -0.001452  0.002385  -0.004334  0.032684  0.001153  4.000382  0.002
C  C257  1  0.73310611  0.78443860  0.58095648  1  -0.052578  -0.000377  -0.064416  -0.061731  -0.000568  3.93735  0.0
C  C258  1  0.71587356  0.82423619  0.53092500  1  -0.033595  0.002248  -0.092075  -0.149151  0.001047  3.99995  0.002
C  C259  1  0.77913139  0.86030213  0.50738082  1  0.532338  -0.00054  0.05611  0.109781  -0.001231  3.952435  0.0
C  C260  1  0.83181331  0.73666658  0.65531256  1  -0.025341  0.000927  -0.085111  -0.114808  0.000509  3.964899  0.001
C  C261  1  0.96530717  0.76368580  0.64468432  1  -0.049409  0.000253  -0.0913  -0.072611  2.3e-05  3.999784  0.0
C  C262  1  0.81635882  0.93793946  0.19337467  1  -0.075798  -0.005726  -0.07225  -0.078647  -0.006358  3.937716  -0.003
C  C263  1  0.90787580  0.73001131  0.67526808  1  -0.054637  0.000152  -0.094544  -0.084612  -1.6e-05  4.020016  0.0
C  C264  1  0.14287255  0.79118796  0.19516324  1  -0.041949  0.001073  -0.086327  -0.157684  0.000524  3.942074  0.001
C  C265  1  0.94622642  0.40204299  0.06579490  1  1.527186  -0.012451  0.212635  0.553434  -0.016768  4.191376  -0.011
C  C266  1  0.73617798  0.41820171  0.84171639  1  -0.000546  0.010863  -0.017359  -0.038922  0.005855  3.987003  0.009
C  C267  1  0.05662365  0.76168517  0.18545052  1  0.437166  0.001324  0.11544  0.201831  0.000432  3.953588  0.001
C  C268  1  0.68839644  0.36913771  0.74852220  1  0.061188  -0.003119  -0.075323  -0.077682  -0.003652  3.944191  -0.002
C  C269  1  0.83191992  0.44569954  0.89372121  1  1.508438  -0.009489  0.21575  0.568468  -0.013036  4.154779  -0.009
C  C270  1  0.92233023  0.34861456  0.10793235  1  -0.024751  0.010919  -0.017476  -0.037993  0.005764  4.00462  0.009
C  C271  1  0.03321941  0.82682523  0.22153584  1  0.009072  0.002384  -0.004588  0.032483  0.001152  4.000213  0.002
C  C272  1  0.94871270  0.79653983  0.21559084  1  -0.116942  -0.00038  -0.064345  -0.061826  -0.000571  3.937274  0.0
C  C273  1  0.89167098  0.70671250  0.17577795  1  -0.067024  0.002261  -0.092185  -0.149198  0.001047  3.999955  0.002
C  C274  1  0.91885418  0.64709376  0.13969845  1  0.561685  -0.000563  0.056116  0.109757  -0.001233  3.952094  0.0
C  C275  1  0.09520017  0.91865752  0.26337242  1  0.01834  0.000915  -0.085037  -0.114732  0.000509  3.964476  0.001
C  C276  1  0.20166135  0.88099799  0.23632936  1  -0.042805  0.000253  -0.091319  -0.072644  2.2e-05  3.999947  0.0
C  C277  1  0.87840366  0.25538387  0.06203514  1  -0.004626  -0.005738  -0.072502  -0.079295  -0.006359  3.938382  -0.003
C  C278  1  0.17791068  0.94525862  0.27001722  1  -0.069192  0.000152  -0.094457  -0.084555  -1.6e-05  4.020052  0.0
C  C279  1  0.35712152  0.80480188  0.20878693  1  -0.040259  0.001072  -0.086227  -0.157563  0.000524  3.942235  0.001
C  C280  1  0.55376993  0.93419442  0.59794319  1  1.526924  -0.012455  0.212536  0.553271  -0.016775  4.191474  -0.011
C  C281  1  0.76380343  0.15828691  0.58178677  1  4.5e-05  0.010861  -0.017458  -0.039028  0.005854  3.987346  0.009
C  C282  1  0.44337512  0.81452366  0.23829313  1  0.436807  0.001324  0.11531  0.201554  0.000432  3.953757  0.001
C  C283  1  0.81159299  0.25147967  0.63086316  1  0.05922  -0.003118  -0.075229  -0.077333  -0.003651  3.943929  -0.002
C  C284  1  0.66806866  0.10628900  0.55430237  1  1.509007  -0.009482  0.215775  0.568515  -0.013031  4.155018  -0.009
C  C285  1  0.57766522  0.89205588  0.65135822  1  -0.023783  0.010917  -0.017427  -0.037669  0.005763  4.004487  0.009
C  C286  1  0.46677977  0.77844111  0.17315074  1  0.007338  0.002381  -0.004683  0.032627  0.001151  3.999887  0.002
C  C287  1  0.55129020  0.78439842  0.20343854  1  -0.11577  -0.000375  -0.064415  -0.061997  -0.000566  3.937671  0.0
C  C288  1  0.60833732  0.82421777  0.29326818  1  -0.066645  0.002257  -0.092182  -0.149271  0.001045  4.000129  0.002
C  C289  1  0.58114940  0.86028636  0.35288278  1  0.560547  -0.000558  0.056049  0.109729  -0.001229  3.951759  0.0
C  C290  1  0.40479551  0.73660084  0.08131385  1  0.016794  0.000917  -0.08485  -0.114697  0.000509  3.964673  0.001
C  C291  1  0.29833313  0.76363945  0.11897668  1  -0.043186  0.000254  -0.09145  -0.072997  2.3e-05  4.000106  0.0
C  C292  1  0.62158015  0.93793948  0.74458872  1  0.019405  -0.005737  -0.072412  -0.078971  -0.006362  3.937927  -0.003
C  C293  1  0.32208475  0.72995503  0.05471711  1  -0.070824  0.000151  -0.094422  -0.084302  -1.6e-05  4.019941  0.0
C  C294  1  0.14831540  0.79120722  0.59601677  1  0.026279  0.001067  -0.086262  -0.157554  0.000524  3.942185  0.001
C  C295  1  0.95581423  0.40203341  0.33624159  1  1.525979  -0.012398  0.21259  0.553279  -0.016775  4.191345  -0.011
C  C296  1  0.18202063  0.41820838  0.57649950  1  -0.028363  0.010913  -0.017443  -0.039047  0.005854  3.987047  0.009
C  C297  1  0.20506506  0.76170627  0.57623012  1  0.431308  0.001309  0.115416  0.201755  0.000432  3.953754  0.001
C  C298  1  0.18073453  0.36913570  0.62061654  1  0.008828  -0.003116  -0.075265  -0.077522  -0.00365  3.9441  -0.002
C  C299  1  0.11376240  0.44568904  0.55198370  1  1.514691  -0.00949  0.215782  0.568556  -0.013026  4.154735  -0.009
C  C300  1  0.92630128  0.34861675  0.24068285  1  0.026911  0.010889  -0.017301  -0.037574  0.005763  4.004222  0.009
C  C301  1  0.29360898  0.82685367  0.60528458  1  0.022643  0.00238  -0.004753  0.032339  0.00115  4.000051  0.002
C  C302  1  0.34783763  0.79656910  0.58095716  1  -0.093048  -0.000354  -0.064333  -0.061901  -0.000562  3.937071  0.0
C  C303  1  0.31506208  0.70674028  0.53095802  1  0.037474  0.002225  -0.092145  -0.149084  0.001044  3.999651  0.002
C  C304  1  0.22826273  0.64712087  0.50741452  1  0.540159  -0.000547  0.056127  0.109748  -0.001225  3.951997  0.0
C  C305  1  0.32345719  0.91868815  0.65527291  1  -0.057842  0.000935  -0.08496  -0.114489  0.00051  3.964551  0.001
C  C306  1  0.17933346  0.88101742  0.64465806  1  -0.083611  0.000258  -0.09142  -0.07293  2.4e-05  3.999901  0.0
C  C307  1  0.87699094  0.25538809  0.19333273  1  -0.093521  -0.005722  -0.072605  -0.079406  -0.006362  3.938156  -0.003
C  C308  1  0.26734146  0.94528075  0.67522477  1  -0.012191  0.000149  -0.094339  -0.084292  -1.7e-05  4.019926  0.0
C  C309  1  0.55232799  0.40398188  0.19518999  1  -0.031177  0.001074  -0.086259  -0.157567  0.000524  3.942095  0.001
C  C310  1  0.61956596  0.66374516  0.06581182  1  1.534883  -0.012451  0.212572  0.553253  -0.016777  4.191557  -0.011
C  C311  1  0.60553084  0.42352090  0.84172074  1  -0.046576  0.010973  -0.017424  -0.039105  0.005854  3.987244  0.009
C  C312  1  0.62885512  0.42376647  0.18546246  1  0.435563  0.001283  0.115394  0.201784  0.000432  3.953358  0.001
C  C313  1  0.56012186  0.37941678  0.74853022  1  0.023964  -0.003122  -0.075164  -0.077273  -0.003651  3.944084  -0.002
C  C314  1  0.56179256  0.44802601  0.89372246  1  1.533822  -0.009567  0.215864  0.568613  -0.013034  4.154941  -0.009
C  C315  1  0.68561172  0.75930799  0.10795925  1  -0.015365  0.010932  -0.017385  -0.037717  0.005764  4.004492  0.009
C  C316  1  0.68834680  0.39470464  0.22153606  1  -0.003572  0.002383  -0.004381  0.032687  0.001151  4.000085  0.002
C  C317  1  0.76690333  0.41904666  0.21558567  1  -0.046715  -0.000373  -0.064391  -0.061937  -0.000565  3.937677  0.0
C  C318  1  0.78413286  0.46906986  0.17578199  1  -0.035359  0.002244  -0.092112  -0.14911  0.001045  4.000216  0.002
C  C319  1  0.72087499  0.49261502  0.13971595  1  0.548366  -0.000546  0.056087  0.109628  -0.001228  3.952142  0.0
C  C320  1  0.66820135  0.34470075  0.26336974  1  -0.025384  0.000927  -0.084917  -0.114613  0.00051  3.964739  0.001
C  C321  1  0.53470869  0.35533836  0.23635492  1  -0.028272  0.00025  -0.091383  -0.072788  2.3e-05  4.000281  0.0
C  C322  1  0.68364259  0.80665310  0.06207722  1  -0.076291  -0.005725  -0.072522  -0.079148  -0.006357  3.938036  -0.003
C  C323  1  0.59214246  0.32475584  0.27002853  1  -0.055946  0.000152  -0.094634  -0.084822  -1.6e-05  4.020751  0.0
C  C324  1  0.44723733  0.19722582  0.39445397  1  -0.100082  -0.003744  -0.073251  -0.11088  -0.004463  3.948346  -0.002
C  C325  1  0.35461109  0.10460052  0.20920310  1  0.037798  0.002938  -0.086171  -0.084075  0.001256  4.014321  0.002
C  C326  1  0.25001084  0.19722029  0.80276780  1  -0.03968  -0.003765  -0.073336  -0.111003  -0.00446  3.948369  -0.002
C  C327  1  0.25000654  0.10460691  0.89541190  1  -0.017654  0.002935  -0.086236  -0.084213  0.001256  4.014452  0.002
C  C328  1  0.05277281  0.60552868  0.80276635  1  -0.100251  -0.003745  -0.073183  -0.110622  -0.004463  3.948077  -0.002
C  C329  1  0.14536986  0.79077668  0.89538101  1  0.037064  0.002938  -0.086403  -0.08444  0.001256  4.014424  0.002
C  C330  1  0.55273234  0.80272461  0.60544858  1  -0.101318  -0.003745  -0.073608  -0.111541  -0.004465  3.94914  -0.002
C  C331  1  0.64533675  0.89534326  0.79069439  1  -0.083752  0.002929  -0.086267  -0.083789  0.001257  4.01404  0.002
C  C332  1  0.75000666  0.80271285  0.19729138  1  -0.039301  -0.003762  -0.073905  -0.111367  -0.00446  3.949449  -0.002
C  C333  1  0.75000250  0.89535084  0.10467994  1  -0.019443  0.002938  -0.086259  -0.084144  0.001256  4.013894  0.002
C  C334  1  0.94727926  0.39453418  0.19726623  1  -0.100789  -0.003745  -0.073629  -0.111413  -0.004465  3.948821  -0.002
C  C335  1  0.85464781  0.20928685  0.10463072  1  0.039416  0.002939  -0.086192  -0.083529  0.001257  4.01379  0.002
C  C336  1  0.75000562  0.55620261  0.44382939  1  0.056632  -0.002466  -0.073711  -0.094367  -0.003047  3.926194  -0.001
C  C337  1  0.75001325  0.64885524  0.35116370  1  -0.041221  0.002348  -0.086572  -0.073215  0.000929  3.981214  0.002
C  C338  1  0.19380394  0.88762133  0.44379560  1  0.026603  -0.002444  -0.07378  -0.094562  -0.003044  3.926113  -0.001
C  C339  1  0.10115965  0.70229617  0.35114876  1  -0.113549  0.002356  -0.086818  -0.073888  0.000928  3.981851  0.002
C  C340  1  0.30618134  0.55616863  0.11238306  1  0.026543  -0.002447  -0.073674  -0.09434  -0.003048  3.9261  -0.001
C  C341  1  0.39886234  0.64886976  0.29770618  1  -0.113101  0.002358  -0.086974  -0.07399  0.000929  3.981769  0.002
C  C342  1  0.24999745  0.44385027  0.55616418  1  0.05914  -0.002464  -0.074093  -0.09469  -0.003043  3.926964  -0.001
C  C343  1  0.25001044  0.35119033  0.64882875  1  -0.043715  0.002345  -0.08661  -0.073459  0.000927  3.981239  0.002
C  C344  1  0.80614608  0.11232312  0.55614739  1  0.026563  -0.002443  -0.074076  -0.094727  -0.003044  3.927168  -0.001
C  C345  1  0.89881176  0.29763897  0.64880574  1  -0.115165  0.002356  -0.086539  -0.073508  0.000928  3.981212  0.002
C  C346  1  0.69383569  0.44383769  0.88768750  1  0.026556  -0.002443  -0.074145  -0.09481  -0.003044  3.926817  -0.001
C  C347  1  0.60117862  0.35120308  0.70236468  1  -0.115578  0.002356  -0.086572  -0.073291  0.000928  3.981195  0.002
N  N348  1  0.67491990  0.52907233  0.67217331  1  -1.202376  0.0427  -0.306366  -0.264292  0.024407  3.408478  0.033
N  N349  1  0.14585000  0.14310518  0.47093807  1  -1.208493  0.042711  -0.306388  -0.264433  0.024392  3.408223  0.033
N  N350  1  0.00274178  0.32782282  0.85688426  1  -1.204772  0.042725  -0.306414  -0.264241  0.024418  3.408609  0.033
N  N351  1  0.49724239  0.14308358  0.67214189  1  -1.205538  0.042764  -0.306299  -0.264319  0.024438  3.408711  0.033
N  N352  1  0.82509243  0.32785214  0.47093194  1  -1.202325  0.042762  -0.306341  -0.264302  0.02444  3.408263  0.033
N  N353  1  0.35415844  0.52906513  0.85692333  1  -1.20111  0.042755  -0.306376  -0.264389  0.024428  3.408281  0.033
N  N354  1  0.32508133  0.47093066  0.32779313  1  -1.203328  0.042836  -0.306426  -0.264028  0.024484  3.409022  0.033
N  N355  1  0.85413344  0.85686654  0.52907343  1  -1.208192  0.042873  -0.306521  -0.263846  0.024486  3.409075  0.033
N  N356  1  0.99728615  0.67221144  0.14312970  1  -1.20351  0.042824  -0.306268  -0.263662  0.024473  3.408548  0.033
N  N357  1  0.50271071  0.85684290  0.32776240  1  -1.202994  0.042789  -0.30626  -0.263594  0.024454  3.408489  0.033
N  N358  1  0.17494249  0.67223666  0.52908578  1  -1.203643  0.042774  -0.306369  -0.263703  0.024449  3.408625  0.033
N  N359  1  0.64587342  0.47092456  0.14314922  1  -1.212065  0.042819  -0.306438  -0.263824  0.024456  3.408626  0.033
O  O360  1  0.63650435  0.54339185  0.51450244  1  -1.137093  0.084536  -0.29921  -0.535349  0.043323  2.426889  0.078
O  O361  1  0.51825200  0.37838415  0.48272492  1  -1.13702  0.088547  -0.301328  -0.511242  0.046373  2.388518  0.079
O  O362  1  0.53674384  0.54102802  0.40096924  1  -1.129399  0.096945  -0.300209  -0.505809  0.050659  2.331005  0.084
O  O363  1  0.41602299  0.37000805  0.36534374  1  -1.132862  0.085657  -0.298438  -0.517154  0.044587  2.410379  0.077
O  O364  1  0.09310950  0.97109863  0.45660046  1  -1.136293  0.084519  -0.299161  -0.535171  0.043327  2.426615  0.078
O  O365  1  0.13984998  0.10430839  0.62161169  1  -1.126707  0.088708  -0.301245  -0.511238  0.046365  2.388743  0.079
O  O366  1  0.99573233  0.85994827  0.45899879  1  -1.131884  0.096888  -0.30021  -0.505762  0.050649  2.330857  0.084
O  O367  1  0.04599088  0.99533987  0.63002044  1  -1.137281  0.085521  -0.298188  -0.516851  0.044594  2.410724  0.077
O  O368  1  0.12199763  0.48548170  0.02887412  1  -1.138651  0.08443  -0.299257  -0.535428  0.043318  2.42677  0.078
O  O369  1  0.03551827  0.51725331  0.89565209  1  -1.127856  0.088599  -0.301435  -0.511512  0.046381  2.388233  0.079
O  O370  1  0.13577857  0.59901858  0.14004812  1  -1.129731  0.096986  -0.3003  -0.505822  0.050647  2.331075  0.084
O  O371  1  0.05066808  0.63464413  0.00464581  1  -1.134278  0.085608  -0.298468  -0.51718  0.044588  2.410395  0.077
O  O372  1  0.37802275  0.97113438  0.51453941  1  -1.138747  0.084473  -0.299324  -0.535585  0.043346  2.426747  0.078
O  O373  1  0.46447331  0.10432296  0.48273928  1  -1.1274  0.088618  -0.301479  -0.511452  0.046392  2.388334  0.079
O  O374  1  0.36421014  0.85995638  0.40097786  1  -1.130579  0.096955  -0.300295  -0.505765  0.050627  2.331072  0.084
O  O375  1  0.44932721  0.99535579  0.36533137  1  -1.134079  0.085587  -0.298298  -0.516936  0.044572  2.410726  0.077
O  O376  1  0.86347956  0.48545629  0.45660692  1  -1.136926  0.084605  -0.299276  -0.535573  0.043368  2.426723  0.078
O  O377  1  0.98172203  0.51723156  0.62158593  1  -1.136978  0.0886  -0.301433  -0.511528  0.046409  2.388014  0.079
O  O378  1  0.96321889  0.59899383  0.45895902  1  -1.130613  0.0969  -0.300286  -0.505894  0.050629  2.331417  0.084
O  O379  1  0.08396003  0.63463634  0.63000362  1  -1.13262  0.085608  -0.298474  -0.517207  0.044559  2.410668  0.077
O  O380  1  0.40687954  0.54339100  0.02887626  1  -1.136498  0.084569  -0.299301  -0.535519  0.043358  2.426836  0.078
O  O381  1  0.36014198  0.37840701  0.89567312  1  -1.126714  0.088744  -0.301424  -0.511451  0.046387  2.388474  0.079
O  O382  1  0.50426402  0.54102245  0.14004652  1  -1.132208  0.096864  -0.300239  -0.505777  0.050635  2.331228  0.084
O  O383  1  0.45397880  0.36998129  0.00464150  1  -1.136965  0.085468  -0.298315  -0.517007  0.044568  2.410576  0.077
O  O384  1  0.36342248  0.45658054  0.48538472  1  -1.137833  0.084448  -0.299341  -0.535561  0.043295  2.427164  0.078
O  O385  1  0.48165661  0.62156230  0.51713069  1  -1.136393  0.088511  -0.301426  -0.511545  0.046374  2.388461  0.079
O  O386  1  0.46317072  0.45891177  0.59889697  1  -1.130093  0.09693  -0.300155  -0.505616  0.050651  2.331418  0.084
O  O387  1  0.58386742  0.62994239  0.63452734  1  -1.133474  0.085665  -0.298422  -0.517026  0.04459  2.410456  0.077
O  O388  1  0.90682854  0.02880058  0.54341416  1  -1.137265  0.084463  -0.299297  -0.535514  0.043305  2.427438  0.078
O  O389  1  0.86007974  0.89554492  0.37844945  1  -1.12561  0.088704  -0.301355  -0.511573  0.046378  2.388022  0.079
O  O390  1  0.00425650  0.13997822  0.54109112  1  -1.130757  0.096897  -0.300243  -0.505738  0.050654  2.331248  0.084
O  O391  1  0.95392187  0.00456267  0.37007829  1  -1.135496  0.085515  -0.298384  -0.517114  0.044601  2.411038  0.077
O  O392  1  0.87803093  0.51459646  0.97118685  1  -1.137905  0.084376  -0.299267  -0.535535  0.043295  2.427168  0.078
O  O393  1  0.96452284  0.48284880  0.10442159  1  -1.127532  0.088566  -0.301281  -0.511299  0.046364  2.388285  0.079
O  O394  1  0.86427292  0.40108353  0.86001375  1  -1.128744  0.097025  -0.300278  -0.505909  0.050667  2.331263  0.084
O  O395  1  0.94934582  0.36546263  0.99540256  1  -1.133555  0.085626  -0.298349  -0.516948  0.044596  2.410645  0.077
O  O396  1  0.62197829  0.02883003  0.48541672  1  -1.138299  0.084324  -0.299168  -0.535442  0.043266  2.427396  0.078
O  O397  1  0.53547371  0.89556361  0.51714743  1  -1.127395  0.088542  -0.301237  -0.511249  0.046351  2.388802  0.079
O  O398  1  0.63570649  0.13998741  0.59892080  1  -1.12931  0.097054  -0.300452  -0.506091  0.050685  2.331241  0.084
O  O399  1  0.55064339  0.00459331  0.63451561  1  -1.13335  0.085682  -0.298401  -0.517021  0.044628  2.410422  0.077
O  O400  1  0.13655864  0.51457996  0.54341651  1  -1.137274  0.084377  -0.299206  -0.535557  0.043254  2.4271  0.078
O  O401  1  0.01832153  0.48283063  0.37841211  1  -1.13678  0.088479  -0.301271  -0.511305  0.046349  2.388415  0.079
O  O402  1  0.03678578  0.40106903  0.54106886  1  -1.130094  0.096978  -0.300355  -0.505989  0.050677  2.331164  0.084
O  O403  1  0.91611573  0.36546111  0.37006520  1  -1.132589  0.085721  -0.298374  -0.5169  0.044623  2.410562  0.077
O  O404  1  0.59315473  0.45658737  0.97118024  1  -1.137347  0.084404  -0.299239  -0.535513  0.043276  2.427425  0.078
O  O405  1  0.63991002  0.62157536  0.10443619  1  -1.125732  0.088683  -0.301291  -0.511295  0.046359  2.388946  0.079
O  O406  1  0.49573353  0.45894595  0.86002718  1  -1.131089  0.09692  -0.300451  -0.506054  0.050672  2.33117  0.084
O  O407  1  0.54604067  0.62993721  0.99542808  1  -1.135759  0.085562  -0.298374  -0.516948  0.044624  2.410627  0.077
