# generated using pymatgen
data_Zn4H48C54O13
_symmetry_space_group_name_H-M   'P 1'
_cell_length_a   22.83546893
_cell_length_b   22.83545344
_cell_length_c   25.31429270
_cell_angle_alpha   63.19035188
_cell_angle_beta   63.19036898
_cell_angle_gamma   60.00219420
_symmetry_Int_Tables_number   1
_chemical_formula_structural   Zn4H48C54O13
_chemical_formula_sum   'Zn16 H192 C216 O52'
_cell_volume   9759.27766333
_cell_formula_units_Z   4
loop_
 _symmetry_equiv_pos_site_id
 _symmetry_equiv_pos_as_xyz
  1  'x, y, z'
loop_
 _atom_site_type_symbol
 _atom_site_label
 _atom_site_symmetry_multiplicity
 _atom_site_fract_x
 _atom_site_fract_y
 _atom_site_fract_z
 _atom_site_occupancy
 _atom_site_pbe_bader_charge
 _atom_site_pbe_bader_spin_density
 _atom_site_pbe_cm5_charge
 _atom_site_pbe_ddec_charge
 _atom_site_pbe_ddec_spin_density
 _atom_site_pbe_ddec_sum_bond_order
 _atom_site_pbe_magmom
Zn  Zn0  1  0.97548451  0.82149467  0.25566940  1  1.319435  0  0.670861  0.967611  0  2.369974  0
Zn  Zn1  1  0.94732951  0.97552870  0.25562777  1  1.319144  0  0.670886  0.968301  0  2.368632  0
Zn  Zn2  1  0.82145577  0.94738183  0.25563773  1  1.315234  0  0.670829  0.968163  0  2.369485  0
Zn  Zn3  1  0.44738125  0.32145650  0.75563683  1  1.315193  0  0.670818  0.968116  0  2.369558  0
Zn  Zn4  1  0.32149452  0.47548453  0.75566822  1  1.319472  0  0.670863  0.967589  0  2.36996  0
Zn  Zn5  1  0.47552738  0.44732926  0.75562797  1  1.319161  0  0.670873  0.968283  0  2.368556  0
Zn  Zn6  1  0.95364812  0.95368603  0.13894204  1  1.284016  0  0.669035  0.935537  0  2.462457  0
Zn  Zn7  1  0.45368623  0.45364914  0.63894109  1  1.284045  0  0.669079  0.935575  0  2.462482  0
Zn  Zn8  1  0.55261944  0.67854463  0.24436104  1  1.315278  0  0.670816  0.968134  0  2.369498  0
Zn  Zn9  1  0.67850617  0.52451513  0.24433104  1  1.319462  0  0.670844  0.967606  0  2.369926  0
Zn  Zn10  1  0.52447225  0.55267128  0.24437176  1  1.319183  0  0.670876  0.968345  0  2.368601  0
Zn  Zn11  1  0.02451566  0.17850666  0.74433018  1  1.319487  0  0.670855  0.967644  0  2.369867  0
Zn  Zn12  1  0.05267012  0.02447135  0.74437176  1  1.319159  0  0.670884  0.968331  0  2.368549  0
Zn  Zn13  1  0.17854492  0.05261831  0.74436133  1  1.315205  0  0.67084  0.968189  0  2.36941  0
Zn  Zn14  1  0.54631393  0.54635120  0.36105889  1  1.284104  0  0.669072  0.935553  0  2.462487  0
Zn  Zn15  1  0.04634940  0.04631579  0.86105842  1  1.284107  0  0.669035  0.93553  0  2.462434  0
H  H16  1  0.12305720  0.67596598  0.15244259  1  0.070913  0  0.1035  0.112186  0  1.005768  0
H  H17  1  0.11821897  0.86971309  0.00590251  1  0.063447  0  0.105603  0.117077  0  1.013128  0
H  H18  1  0.25789329  0.55859719  0.05656560  1  0.038889  0  0.09191  0.126992  0  1.013071  0
H  H19  1  0.16935265  0.56989448  0.07509321  1  0.031984  0  0.09256  0.128183  0  0.993382  0
H  H20  1  0.19896102  0.56428235  0.13173286  1  0.023653  0  0.092205  0.127398  0  0.996274  0
H  H21  1  0.16270052  0.86940052  0.90007353  1  0.059943  0  0.089262  0.134496  0  1.021065  0
H  H22  1  0.20284582  0.78965928  0.87966122  1  0.029838  0  0.092286  0.13053  0  1.006274  0
H  H23  1  0.25318099  0.81589663  0.89487261  1  0.048789  0  0.092583  0.131529  0  0.98929  0
H  H24  1  0.20218664  0.60296979  0.87020929  1  0.076522  0  0.102842  0.113127  0  1.00674  0
H  H25  1  0.40393721  0.57007750  0.87100327  1  0.095689  0  0.102722  0.112212  0  1.005025  0
H  H26  1  0.09929605  0.66068439  0.00220453  1  0.036815  0  0.089771  0.121502  0  1.020458  0
H  H27  1  0.09803189  0.73920541  0.94123529  1  0.080693  0  0.09173  0.131671  0  1.017451  0
H  H28  1  0.09526884  0.66893760  0.93044217  1  0.02775  0  0.091312  0.128332  0  0.994788  0
H  H29  1  0.36212222  0.60289863  0.99856220  1  0.027743  0  0.092559  0.12738  0  0.9938  0
H  H30  1  0.41035454  0.63486862  0.92122120  1  0.034575  0  0.092879  0.129281  0  0.994503  0
H  H31  1  0.33216019  0.69415618  0.95991760  1  0.065387  0  0.090144  0.123565  0  1.039154  0
H  H32  1  0.04857270  0.12305638  0.15240759  1  0.05745  0  0.103535  0.112071  0  1.004805  0
H  H33  1  0.00610608  0.11821096  0.00592658  1  0.077803  0  0.105476  0.116528  0  1.013471  0
H  H34  1  0.12700932  0.25787912  0.05647426  1  0.041116  0  0.091875  0.127235  0  1.012382  0
H  H35  1  0.18574484  0.16935754  0.07498284  1  0.042556  0  0.093287  0.129148  0  0.995363  0
H  H36  1  0.10513507  0.19894632  0.13164830  1  0.02586  0  0.092299  0.127665  0  0.996096  0
H  H37  1  0.06772666  0.16270073  0.90006722  1  0.053495  0  0.088853  0.13327  0  1.021643  0
H  H38  1  0.12776250  0.20281965  0.87963569  1  0.050892  0  0.092453  0.130536  0  1.006257  0
H  H39  1  0.03598917  0.25316573  0.89490177  1  0.053325  0  0.09251  0.13148  0  0.98979  0
H  H40  1  0.32474553  0.20191877  0.87022431  1  0.08229  0  0.102822  0.113117  0  1.006259  0
H  H41  1  0.15522104  0.40375545  0.87088133  1  0.094504  0  0.102677  0.112189  0  1.005654  0
H  H42  1  0.23777595  0.09920498  0.00222030  1  0.013651  0  0.08949  0.12109  0  1.020345  0
H  H43  1  0.22149151  0.09789731  0.94126394  1  0.043265  0  0.09128  0.130828  0  1.015758  0
H  H44  1  0.30533212  0.09509861  0.93047158  1  0.042427  0  0.09176  0.128546  0  0.997398  0
H  H45  1  0.03662252  0.36206040  0.99846527  1  0.020565  0  0.092464  0.127247  0  0.993039  0
H  H46  1  0.03369316  0.41030292  0.92114879  1  0.031796  0  0.092755  0.129421  0  0.994116  0
H  H47  1  0.01383040  0.33214604  0.95989137  1  0.028785  0  0.090473  0.124082  0  1.038855  0
H  H48  1  0.67595643  0.04854143  0.15241310  1  0.101289  0  0.103587  0.112501  0  1.005332  0
H  H49  1  0.86975717  0.00618930  0.00591854  1  0.080314  0  0.105463  0.116612  0  1.013588  0
H  H50  1  0.55863363  0.12697904  0.05648170  1  0.041509  0  0.091955  0.127199  0  1.012757  0
H  H51  1  0.56988085  0.18572001  0.07501913  1  0.039355  0  0.093114  0.128894  0  0.995486  0
H  H52  1  0.56427591  0.10507944  0.13165788  1  0.055467  0  0.092402  0.127705  0  0.996362  0
H  H53  1  0.86948567  0.06782762  0.90003772  1  0.034835  0  0.089401  0.134272  0  1.022461  0
H  H54  1  0.78974286  0.12782407  0.87961251  1  0.040729  0  0.092546  0.130607  0  1.006366  0
H  H55  1  0.81592270  0.03602952  0.89494788  1  0.036432  0  0.09289  0.131598  0  0.990652  0
H  H56  1  0.60307414  0.32470555  0.87018947  1  0.069442  0  0.102811  0.113242  0  1.006639  0
H  H57  1  0.57010728  0.15510180  0.87098500  1  0.086009  0  0.102589  0.11212  0  1.00534  0
H  H58  1  0.66073438  0.23782916  0.00220417  1  0.011455  0  0.089786  0.121375  0  1.020329  0
H  H59  1  0.73928455  0.22155561  0.94125591  1  0.027114  0  0.09169  0.13144  0  1.017262  0
H  H60  1  0.66901788  0.30538602  0.93045319  1  0.034815  0  0.091786  0.128706  0  0.996869  0
H  H61  1  0.60291079  0.03653142  0.99856666  1  0.048949  0  0.092427  0.12684  0  0.993531  0
H  H62  1  0.63487844  0.03361053  0.92125189  1  0.03073  0  0.092444  0.128398  0  0.992679  0
H  H63  1  0.69417747  0.01381164  0.95994319  1  0.037695  0  0.090246  0.123028  0  1.038904  0
H  H64  1  0.54854019  0.17595533  0.65241289  1  0.101303  0  0.1036  0.112528  0  1.005277  0
H  H65  1  0.50618887  0.36975656  0.50591900  1  0.080317  0  0.105445  0.116603  0  1.013622  0
H  H66  1  0.62697827  0.05863221  0.55648182  1  0.041196  0  0.091959  0.12718  0  1.012697  0
H  H67  1  0.68571861  0.06988006  0.57502005  1  0.039268  0  0.093132  0.128917  0  0.995441  0
H  H68  1  0.60507791  0.06427562  0.63165786  1  0.055448  0  0.092404  0.127715  0  0.996398  0
H  H69  1  0.56782553  0.36948603  0.40003841  1  0.034816  0  0.089389  0.134289  0  1.022418  0
H  H70  1  0.62782285  0.28974294  0.37961256  1  0.040787  0  0.092547  0.130653  0  1.006289  0
H  H71  1  0.53602846  0.31592343  0.39494721  1  0.036384  0  0.092929  0.131665  0  0.990655  0
H  H72  1  0.82470668  0.10307353  0.37018884  1  0.069435  0  0.102804  0.113259  0  1.006606  0
H  H73  1  0.65510276  0.07010604  0.37098470  1  0.086308  0  0.102591  0.112117  0  1.005393  0
H  H74  1  0.73783032  0.16073372  0.50220280  1  0.011295  0  0.089812  0.121396  0  1.02033  0
H  H75  1  0.72155674  0.23928461  0.44125461  1  0.026976  0  0.091713  0.13148  0  1.017261  0
H  H76  1  0.80538690  0.16901807  0.43045155  1  0.034802  0  0.091775  0.128694  0  0.996877  0
H  H77  1  0.53653122  0.10291057  0.49856602  1  0.048939  0  0.092427  0.126845  0  0.993541  0
H  H78  1  0.53360944  0.13487927  0.42125158  1  0.030676  0  0.092486  0.128459  0  0.992702  0
H  H79  1  0.51381197  0.19417647  0.45994345  1  0.037698  0  0.090237  0.123028  0  1.038962  0
H  H80  1  0.17596635  0.62305827  0.65244242  1  0.07093  0  0.103492  0.112218  0  1.005781  0
H  H81  1  0.36971389  0.61821704  0.50590220  1  0.063448  0  0.10557  0.11701  0  1.013126  0
H  H82  1  0.05859724  0.75789434  0.55656518  1  0.038865  0  0.091924  0.127001  0  1.013008  0
H  H83  1  0.06989363  0.66935460  0.57509357  1  0.032026  0  0.092547  0.128155  0  0.993429  0
H  H84  1  0.06428260  0.69896280  0.63173205  1  0.023665  0  0.092207  0.127406  0  0.996253  0
H  H85  1  0.36940258  0.66269943  0.40007271  1  0.06013  0  0.089233  0.134477  0  1.021089  0
H  H86  1  0.28966147  0.70284443  0.37966008  1  0.029975  0  0.092258  0.130472  0  1.006247  0
H  H87  1  0.31589763  0.75317996  0.39487260  1  0.048817  0  0.092577  0.131505  0  0.989314  0
H  H88  1  0.10296891  0.70218777  0.37020955  1  0.07653  0  0.102825  0.113113  0  1.006773  0
H  H89  1  0.07007665  0.90393820  0.37100359  1  0.095669  0  0.102716  0.11219  0  1.005028  0
H  H90  1  0.16068416  0.59929665  0.50220440  1  0.036835  0  0.08977  0.121536  0  1.020432  0
H  H91  1  0.23920464  0.59803214  0.44123508  1  0.080707  0  0.091728  0.131696  0  1.017452  0
H  H92  1  0.16893717  0.59526895  0.43044228  1  0.027849  0  0.09132  0.128381  0  0.994761  0
H  H93  1  0.10289818  0.86212239  0.49856150  1  0.027752  0  0.092572  0.127396  0  0.993771  0
H  H94  1  0.13486795  0.91035522  0.42122079  1  0.03456  0  0.09288  0.129282  0  0.994554  0
H  H95  1  0.19415675  0.83216051  0.45991682  1  0.065402  0  0.090148  0.123556  0  1.039072  0
H  H96  1  0.62305620  0.54857345  0.65240745  1  0.057452  0  0.103527  0.112044  0  1.004851  0
H  H97  1  0.61821243  0.50610617  0.50592564  1  0.077806  0  0.105488  0.116546  0  1.013463  0
H  H98  1  0.75787844  0.62701068  0.55647486  1  0.041093  0  0.091869  0.127233  0  1.012401  0
H  H99  1  0.66935730  0.68574531  0.57498244  1  0.042542  0  0.093269  0.129133  0  0.995373  0
H  H100  1  0.69894558  0.60513616  0.63164864  1  0.02585  0  0.092303  0.12766  0  0.996089  0
H  H101  1  0.66270124  0.56772681  0.40006739  1  0.053507  0  0.088862  0.13327  0  1.021618  0
H  H102  1  0.70282044  0.62776266  0.37963574  1  0.050883  0  0.092452  0.130516  0  1.006309  0
H  H103  1  0.75316742  0.53598908  0.39490116  1  0.05352  0  0.092545  0.131542  0  0.989714  0
H  H104  1  0.70191994  0.82474495  0.37022452  1  0.082279  0  0.102818  0.113107  0  1.00634  0
H  H105  1  0.90375572  0.65522124  0.37088118  1  0.094489  0  0.102687  0.11218  0  1.005633  0
H  H106  1  0.59920537  0.73777555  0.50222079  1  0.013642  0  0.089481  0.121084  0  1.020338  0
H  H107  1  0.59789861  0.72149113  0.44126441  1  0.042878  0  0.091302  0.130852  0  1.015803  0
H  H108  1  0.59509922  0.80533142  0.43047247  1  0.042453  0  0.091777  0.128563  0  0.997431  0
H  H109  1  0.86206073  0.53662187  0.49846505  1  0.020573  0  0.092472  0.127264  0  0.993021  0
H  H110  1  0.91030344  0.53369174  0.42114881  1  0.031804  0  0.092754  0.129403  0  0.994132  0
H  H111  1  0.83214551  0.51383010  0.45989215  1  0.028783  0  0.090463  0.124058  0  1.038935  0
H  H112  1  0.45145839  0.82404462  0.34758672  1  0.101294  0  0.103601  0.112501  0  1.005324  0
H  H113  1  0.49381024  0.63024369  0.49408107  1  0.08034  0  0.105445  0.116615  0  1.013602  0
H  H114  1  0.37302137  0.94136735  0.44351870  1  0.041435  0  0.091959  0.127192  0  1.012721  0
H  H115  1  0.31427997  0.93012088  0.42498074  1  0.039272  0  0.093089  0.128833  0  0.99555  0
H  H116  1  0.39492067  0.93572580  0.36834233  1  0.05543  0  0.092404  0.127705  0  0.996335  0
H  H117  1  0.43217357  0.63051520  0.59996165  1  0.034829  0  0.089419  0.134299  0  1.022475  0
H  H118  1  0.37217679  0.71025712  0.62038776  1  0.040768  0  0.09256  0.130643  0  1.006331  0
H  H119  1  0.46397171  0.68407643  0.60505219  1  0.036407  0  0.092901  0.131625  0  0.990673  0
H  H120  1  0.17529348  0.89692681  0.62981115  1  0.069547  0  0.102809  0.113255  0  1.006594  0
H  H121  1  0.34489741  0.92989381  0.62901549  1  0.086306  0  0.102584  0.112111  0  1.005407  0
H  H122  1  0.26216932  0.83926731  0.49779593  1  0.011586  0  0.089781  0.121382  0  1.020302  0
H  H123  1  0.27844343  0.76071671  0.55874458  1  0.027175  0  0.091676  0.131436  0  1.017288  0
H  H124  1  0.19461326  0.83098375  0.56954705  1  0.034793  0  0.091762  0.128688  0  0.996871  0
H  H125  1  0.46346895  0.89708928  0.50143416  1  0.048942  0  0.092432  0.126858  0  0.993532  0
H  H126  1  0.46639019  0.86512078  0.57874874  1  0.030672  0  0.092474  0.128457  0  0.992695  0
H  H127  1  0.48618819  0.80582338  0.54005634  1  0.037693  0  0.090249  0.123032  0  1.038905  0
H  H128  1  0.82403170  0.37694335  0.34755909  1  0.070977  0  0.103529  0.112279  0  1.00574  0
H  H129  1  0.63028574  0.38178154  0.49409951  1  0.063403  0  0.105577  0.117029  0  1.013108  0
H  H130  1  0.94140240  0.24210669  0.44343474  1  0.038916  0  0.091921  0.127017  0  1.013094  0
H  H131  1  0.93010389  0.33064771  0.42490708  1  0.032006  0  0.092556  0.128163  0  0.993418  0
H  H132  1  0.93571598  0.30103863  0.36826814  1  0.02368  0  0.092204  0.127389  0  0.99623  0
H  H133  1  0.63059811  0.33729925  0.59992774  1  0.059885  0  0.089228  0.134439  0  1.021046  0
H  H134  1  0.71033869  0.29715493  0.62034070  1  0.029986  0  0.092266  0.130458  0  1.006245  0
H  H135  1  0.68410201  0.24681911  0.60512891  1  0.048844  0  0.092567  0.131489  0  0.989276  0
H  H136  1  0.89703125  0.29781208  0.62979063  1  0.076528  0  0.102884  0.113175  0  1.006779  0
H  H137  1  0.92992404  0.09606194  0.62899587  1  0.095674  0  0.102726  0.1122  0  1.005013  0
H  H138  1  0.83931653  0.40070350  0.49779545  1  0.036845  0  0.089765  0.121514  0  1.020435  0
H  H139  1  0.76079605  0.40196752  0.55876497  1  0.080742  0  0.091743  0.131726  0  1.017431  0
H  H140  1  0.83106352  0.40473071  0.56955777  1  0.027851  0  0.091308  0.128383  0  0.994731  0
H  H141  1  0.89710146  0.13787766  0.50143803  1  0.027738  0  0.092564  0.127403  0  0.993809  0
H  H142  1  0.86513222  0.08964512  0.57877881  1  0.034571  0  0.092878  0.129305  0  0.994567  0
H  H143  1  0.80584342  0.16783935  0.54008297  1  0.06539  0  0.090172  0.123858  0  1.038886  0
H  H144  1  0.37694396  0.45142641  0.34759234  1  0.057455  0  0.103543  0.112101  0  1.004794  0
H  H145  1  0.38178826  0.49389398  0.49407381  1  0.077831  0  0.105487  0.116545  0  1.013456  0
H  H146  1  0.24212119  0.37299035  0.44352466  1  0.041097  0  0.091901  0.127278  0  1.012323  0
H  H147  1  0.33064233  0.31425425  0.42501808  1  0.042535  0  0.093294  0.129151  0  0.995327  0
H  H148  1  0.30105564  0.39486281  0.36835147  1  0.025849  0  0.092296  0.127671  0  0.996088  0
H  H149  1  0.33729945  0.43227334  0.59993207  1  0.05355  0  0.088843  0.133236  0  1.021651  0
H  H150  1  0.29717972  0.37223719  0.62036326  1  0.05092  0  0.092472  0.130545  0  1.006287  0
H  H151  1  0.24683221  0.46401195  0.60509836  1  0.053522  0  0.092528  0.131501  0  0.989722  0
H  H152  1  0.29808128  0.17525550  0.62977657  1  0.082296  0  0.102862  0.113137  0  1.006293  0
H  H153  1  0.09624497  0.34477842  0.62911926  1  0.094524  0  0.102669  0.112195  0  1.005632  0
H  H154  1  0.40079480  0.26222577  0.49778037  1  0.013679  0  0.089486  0.121087  0  1.020373  0
H  H155  1  0.40210208  0.27851049  0.55873603  1  0.043276  0  0.09136  0.130947  0  1.015803  0
H  H156  1  0.40490095  0.19466942  0.56952889  1  0.042393  0  0.091777  0.128557  0  0.997375  0
H  H157  1  0.13793891  0.46337965  0.50153546  1  0.020612  0  0.092458  0.127235  0  0.993032  0
H  H158  1  0.08969620  0.46630783  0.57885210  1  0.031745  0  0.092748  0.129385  0  0.994127  0
H  H159  1  0.16785307  0.48617035  0.54011002  1  0.028745  0  0.09048  0.124105  0  1.038931  0
H  H160  1  0.87694243  0.32403260  0.84755833  1  0.070964  0  0.103516  0.112245  0  1.005719  0
H  H161  1  0.88178173  0.13028509  0.99409814  1  0.063425  0  0.105573  0.117022  0  1.013128  0
H  H162  1  0.74210582  0.44140159  0.94343467  1  0.038903  0  0.091974  0.127124  0  1.013009  0
H  H163  1  0.83064487  0.43010586  0.92490746  1  0.032283  0  0.092553  0.12818  0  0.993407  0
H  H164  1  0.80103756  0.43571663  0.86826833  1  0.0237  0  0.092219  0.127434  0  0.996181  0
H  H165  1  0.83730018  0.13059717  0.09992732  1  0.060143  0  0.089235  0.13445  0  1.021076  0
H  H166  1  0.79715487  0.21033989  0.12033942  1  0.029876  0  0.092244  0.130424  0  1.006295  0
H  H167  1  0.74681917  0.18410224  0.10512719  1  0.048785  0  0.092585  0.131513  0  0.989286  0
H  H168  1  0.79781352  0.39703007  0.12978972  1  0.076527  0  0.102884  0.113199  0  1.006742  0
H  H169  1  0.59606348  0.42992314  0.12899559  1  0.095695  0  0.102711  0.112179  0  1.004999  0
H  H170  1  0.90070411  0.33931546  0.99779487  1  0.036829  0  0.089755  0.121488  0  1.020412  0
H  H171  1  0.90196722  0.26079435  0.05876537  1  0.080687  0  0.091729  0.131665  0  1.017455  0
H  H172  1  0.90473026  0.33106216  0.06955809  1  0.02757  0  0.091301  0.128327  0  0.994852  0
H  H173  1  0.63787689  0.39710113  0.00143846  1  0.027749  0  0.092563  0.1274  0  0.993789  0
H  H174  1  0.58964562  0.36513025  0.07878018  1  0.034836  0  0.092863  0.129274  0  0.994536  0
H  H175  1  0.66784051  0.30584299  0.04008304  1  0.065381  0  0.090157  0.123591  0  1.039118  0
H  H176  1  0.95142694  0.87694220  0.84759254  1  0.057263  0  0.103523  0.112071  0  1.004788  0
H  H177  1  0.99389408  0.88178889  0.99407321  1  0.077824  0  0.105466  0.116518  0  1.013467  0
H  H178  1  0.87299032  0.74212044  0.94352626  1  0.041098  0  0.091899  0.127253  0  1.012326  0
H  H179  1  0.81425480  0.83064251  0.92501788  1  0.042554  0  0.093277  0.129143  0  0.995364  0
H  H180  1  0.89486457  0.80105324  0.86835262  1  0.02588  0  0.092319  0.127695  0  0.99608  0
H  H181  1  0.93227456  0.83729972  0.09993230  1  0.053494  0  0.088857  0.13327  0  1.021617  0
H  H182  1  0.87223872  0.79717982  0.12036383  1  0.050756  0  0.092441  0.130492  0  1.006326  0
H  H183  1  0.96401258  0.74683354  0.10509801  1  0.053512  0  0.092518  0.131484  0  0.989791  0
H  H184  1  0.67525569  0.79807971  0.12977640  1  0.082303  0  0.102802  0.113087  0  1.006341  0
H  H185  1  0.84477912  0.59624441  0.12911886  1  0.094492  0  0.102692  0.11221  0  1.005616  0
H  H186  1  0.76222475  0.90079418  0.99778035  1  0.013683  0  0.089488  0.121076  0  1.020361  0
H  H187  1  0.77850919  0.90210235  0.05873650  1  0.043436  0  0.091306  0.130846  0  1.015759  0
H  H188  1  0.69466857  0.90490056  0.06952906  1  0.042441  0  0.091774  0.128548  0  0.997443  0
H  H189  1  0.96337870  0.63794004  0.00153425  1  0.020553  0  0.092478  0.127284  0  0.992971  0
H  H190  1  0.96630753  0.58969674  0.07885047  1  0.031824  0  0.092751  0.129408  0  0.994154  0
H  H191  1  0.98617029  0.66785264  0.04010948  1  0.028763  0  0.090478  0.12409  0  1.038909  0
H  H192  1  0.32404374  0.95145842  0.84758788  1  0.101323  0  0.10358  0.112524  0  1.005305  0
H  H193  1  0.13024300  0.99381153  0.99408164  1  0.080309  0  0.105483  0.116625  0  1.013608  0
H  H194  1  0.44136653  0.87302033  0.94351948  1  0.041492  0  0.091944  0.127154  0  1.012753  0
H  H195  1  0.43011931  0.81427985  0.92498026  1  0.039209  0  0.093132  0.128915  0  0.995458  0
H  H196  1  0.43572320  0.89492130  0.86834277  1  0.055496  0  0.092391  0.127686  0  0.996386  0
H  H197  1  0.13051396  0.93217390  0.09996279  1  0.034829  0  0.089422  0.134287  0  1.022446  0
H  H198  1  0.21025678  0.87217746  0.12038840  1  0.040747  0  0.092559  0.130633  0  1.006359  0
H  H199  1  0.18407641  0.96397220  0.10505237  1  0.036377  0  0.092891  0.131609  0  0.990675  0
H  H200  1  0.39692708  0.67529244  0.12980986  1  0.069511  0  0.1028  0.113217  0  1.006603  0
H  H201  1  0.42989447  0.84489649  0.12901478  1  0.08634  0  0.102597  0.112148  0  1.005399  0
H  H202  1  0.33926684  0.76216981  0.99779595  1  0.011465  0  0.089793  0.121375  0  1.020306  0
H  H203  1  0.26071561  0.77844327  0.05874428  1  0.027014  0  0.091676  0.131426  0  1.017296  0
H  H204  1  0.33098282  0.69461314  0.06954667  1  0.034792  0  0.091767  0.128667  0  0.996881  0
H  H205  1  0.39708938  0.96346794  0.00143491  1  0.048975  0  0.092419  0.126824  0  0.99354  0
H  H206  1  0.36512120  0.96638952  0.07874882  1  0.030722  0  0.092455  0.128413  0  0.992711  0
H  H207  1  0.30582322  0.98618802  0.04005725  1  0.037712  0  0.090257  0.123042  0  1.038891  0
C  C208  1  0.06422343  0.81787426  0.12834822  1  1.54136  0  0.225898  0.602348  0  4.162952  0
C  C209  1  0.11589762  0.77669707  0.08355518  1  0.022464  0  -0.026307  -0.046315  0  4.04827  0
C  C210  1  0.13966541  0.70286480  0.10324512  1  -0.05553  0  -0.089666  -0.16346  0  3.967634  0
C  C211  1  0.18193760  0.66424890  0.06052459  1  -0.032158  0  -0.009304  0.118147  0  3.971109  0
C  C212  1  0.20087192  0.70076113  0.99690252  1  -0.031679  0  -0.000372  -0.021222  0  3.889995  0
C  C213  1  0.17954408  0.77507389  0.97674448  1  0.008127  0  -0.004594  0.126203  0  3.95857  0
C  C214  1  0.13696303  0.81219818  0.02064230  1  -0.026276  0  -0.085692  -0.1585  0  3.946015  0
C  C215  1  0.20351044  0.58509732  0.08218773  1  -0.054404  0  -0.236237  -0.407106  0  3.986581  0
C  C216  1  0.20043473  0.81462740  0.90924626  1  -0.063799  0  -0.239475  -0.411695  0  3.958595  0
C  C217  1  0.34205220  0.53907818  0.82283229  1  1.532906  0  0.22492  0.607683  0  4.159229  0
C  C218  1  0.30654811  0.58222120  0.86651884  1  -0.036174  0  -0.02614  -0.039049  0  4.040829  0
C  C219  1  0.23262512  0.61146896  0.88725504  1  -0.082327  0  -0.089896  -0.163164  0  3.961837  0
C  C220  1  0.19812945  0.65055801  0.92924418  1  0.010468  0  -0.008135  0.123163  0  3.975181  0
C  C221  1  0.23899658  0.66035798  0.95079608  1  -0.022283  0  -0.002412  -0.028212  0  3.906712  0
C  C222  1  0.31342589  0.63178883  0.92980285  1  0.05236  0  -0.009713  0.120461  0  3.976361  0
C  C223  1  0.34641535  0.59287067  0.88770901  1  -0.091974  0  -0.090757  -0.164874  0  3.96058  0
C  C224  1  0.11865745  0.68141493  0.95162202  1  -0.05722  0  -0.238228  -0.411674  0  3.975377  0
C  C225  1  0.35688715  0.64167923  0.95328080  1  -0.085466  0  -0.237683  -0.410429  0  3.987947  0
C  C226  1  0.98953164  0.06424140  0.12839037  1  1.536495  0  0.226576  0.603965  0  4.161486  0
C  C227  1  0.02384862  0.11590381  0.08355273  1  -0.082369  0  -0.026483  -0.04664  0  4.048025  0
C  C228  1  0.05426049  0.13966357  0.10321277  1  0.011351  0  -0.08943  -0.163595  0  3.963818  0
C  C229  1  0.09334611  0.18190409  0.06047062  1  -0.002399  0  -0.009587  0.119597  0  3.967524  0
C  C230  1  0.10149418  0.20081063  0.99685896  1  -0.068834  0  7.4e-05  -0.02307  0  3.889586  0
C  C231  1  0.06862223  0.17950260  0.97672908  1  -0.020244  0  -0.005355  0.124732  0  3.95866  0
C  C232  1  0.03016380  0.13694586  0.02065426  1  0.011611  0  -0.085248  -0.15685  0  3.945492  0
C  C233  1  0.12928814  0.20349330  0.08209892  1  -0.051232  0  -0.236818  -0.408773  0  3.987938  0
C  C234  1  0.07563089  0.20041241  0.90924245  1  -0.076642  0  -0.239095  -0.410175  0  3.958701  0
C  C235  1  0.29618890  0.34183602  0.82279800  1  1.527735  0  0.225947  0.609023  0  4.158006  0
C  C236  1  0.24485753  0.30634166  0.86646035  1  -0.027803  0  -0.026301  -0.038819  0  4.040996  0
C  C237  1  0.26876359  0.23241613  0.88721985  1  0.011217  0  -0.089775  -0.163439  0  3.961439  0
C  C238  1  0.22212402  0.19798034  0.92919998  1  -0.044164  0  -0.008749  0.121747  0  3.971795  0
C  C239  1  0.14990824  0.23889470  0.95072935  1  -0.011546  0  -0.00187  -0.02425  0  3.89963  0
C  C240  1  0.12508805  0.31331987  0.92970717  1  0.038847  0  -0.009523  0.120467  0  3.975593  0
C  C241  1  0.17315792  0.34624861  0.88761455  1  -0.105578  0  -0.090418  -0.165114  0  3.962124  0
C  C242  1  0.24829062  0.11851822  0.95163252  1  -0.02889  0  -0.237817  -0.410381  0  3.975152  0
C  C243  1  0.04829301  0.35683101  0.95319879  1  -0.029667  0  -0.238206  -0.411633  0  3.986973  0
C  C244  1  0.81782726  0.98949715  0.12838481  1  1.541433  0  0.225708  0.601878  0  4.163952  0
C  C245  1  0.77668945  0.02387989  0.08354239  1  0.009945  0  -0.026538  -0.046002  0  4.048338  0
C  C246  1  0.70286354  0.05426229  0.10321358  1  -0.122252  0  -0.089663  -0.164089  0  3.967649  0
C  C247  1  0.66426973  0.09336257  0.06047876  1  0.01031  0  -0.008758  0.119135  0  3.971475  0
C  C248  1  0.70082066  0.10154468  0.99686570  1  -0.063153  0  -0.000405  -0.022288  0  3.8905  0
C  C249  1  0.77513669  0.06872137  0.97672426  1  -0.007128  0  -0.004585  0.125498  0  3.958802  0
C  C250  1  0.81223766  0.03025042  0.02063851  1  -0.003307  0  -0.085012  -0.156613  0  3.944883  0
C  C251  1  0.58511528  0.12925522  0.08211380  1  -0.082947  0  -0.237332  -0.408741  0  3.989565  0
C  C252  1  0.81469622  0.07571878  0.90922894  1  -0.037848  0  -0.240284  -0.411391  0  3.961907  0
C  C253  1  0.53914415  0.29611492  0.82282412  1  1.578061  0  0.227065  0.611817  0  4.155909  0
C  C254  1  0.58229784  0.24479076  0.86649818  1  -0.095724  0  -0.025887  -0.039791  0  4.041494  0
C  C255  1  0.61156505  0.26872606  0.88721683  1  0.020426  0  -0.089729  -0.162612  0  3.961273  0
C  C256  1  0.65065592  0.22213245  0.92919637  1  -0.031515  0  -0.008702  0.12196  0  3.973128  0
C  C257  1  0.66044605  0.14991861  0.95074549  1  -0.004849  0  -0.002763  -0.028738  0  3.905542  0
C  C258  1  0.63185858  0.12504940  0.92977263  1  -0.015429  0  -0.008802  0.122571  0  3.977851  0
C  C259  1  0.59293366  0.17308265  0.88768798  1  -0.0221  0  -0.090859  -0.165242  0  3.962659  0
C  C260  1  0.68149746  0.24833657  0.95161886  1  -0.004344  0  -0.238556  -0.411187  0  3.977251  0
C  C261  1  0.64170073  0.04823759  0.95328255  1  -0.071894  0  -0.237608  -0.408953  0  3.984702  0
C  C262  1  0.48949549  0.31782816  0.62838427  1  1.541454  0  0.225683  0.601789  0  4.163971  0
C  C263  1  0.52387710  0.27668848  0.58354316  1  0.010139  0  -0.026489  -0.045814  0  4.04814  0
C  C264  1  0.55425939  0.20286366  0.60321395  1  -0.122293  0  -0.089714  -0.164184  0  3.967688  0
C  C265  1  0.59336074  0.16426919  0.56047896  1  0.010015  0  -0.008741  0.119061  0  3.971658  0
C  C266  1  0.60154371  0.20082002  0.49686516  1  -0.06293  0  -0.000363  -0.022218  0  3.890615  0
C  C267  1  0.56871875  0.27513693  0.47672443  1  -0.006899  0  -0.004574  0.12552  0  3.958821  0
C  C268  1  0.53024758  0.31223746  0.52063859  1  -0.003362  0  -0.085053  -0.156728  0  3.944905  0
C  C269  1  0.62925355  0.08511519  0.58211454  1  -0.082599  0  -0.237341  -0.408701  0  3.989563  0
C  C270  1  0.57571510  0.31469674  0.40923022  1  -0.038049  0  -0.240317  -0.411543  0  3.961871  0
C  C271  1  0.79611455  0.03914394  0.32282394  1  1.57804  0  0.227022  0.611818  0  4.155931  0
C  C272  1  0.74479017  0.08229715  0.36649828  1  -0.095618  0  -0.025915  -0.039878  0  4.041553  0
C  C273  1  0.76872590  0.11156521  0.38721601  1  0.020455  0  -0.089746  -0.162675  0  3.961211  0
C  C274  1  0.72213179  0.15065684  0.42919544  1  -0.031519  0  -0.008725  0.121957  0  3.973045  0
C  C275  1  0.64991801  0.16044696  0.45074455  1  -0.004849  0  -0.002803  -0.028774  0  3.90557  0
C  C276  1  0.62505020  0.13185805  0.42977210  1  -0.01567  0  -0.008839  0.122506  0  3.977753  0
C  C277  1  0.67308311  0.09293199  0.38768805  1  -0.022279  0  -0.090791  -0.165108  0  3.96262  0
C  C278  1  0.74833671  0.18149865  0.45161711  1  -0.004026  0  -0.238564  -0.411198  0  3.977233  0
C  C279  1  0.54823647  0.14170095  0.45328329  1  -0.071838  0  -0.237617  -0.408988  0  3.984747  0
C  C280  1  0.31787486  0.56422306  0.62834696  1  1.541329  0  0.225928  0.602421  0  4.162936  0
C  C281  1  0.27669761  0.61589535  0.58355472  1  0.0231  0  -0.026263  -0.046268  0  4.048234  0
C  C282  1  0.20286629  0.63966415  0.60324426  1  -0.05611  0  -0.089759  -0.163676  0  3.967686  0
C  C283  1  0.16424982  0.68193830  0.56052237  1  -0.047079  0  -0.009297  0.118202  0  3.971009  0
C  C284  1  0.20076252  0.70087034  0.49690217  1  -0.031959  0  -0.00037  -0.021271  0  3.890089  0
C  C285  1  0.27507561  0.67954126  0.47674451  1  0.008439  0  -0.004588  0.126188  0  3.958601  0
C  C286  1  0.31219905  0.63696047  0.52064143  1  -0.026333  0  -0.085657  -0.158378  0  3.945938  0
C  C287  1  0.08509722  0.70351101  0.58218756  1  -0.039496  0  -0.236228  -0.407063  0  3.986471  0
C  C288  1  0.31462909  0.70043305  0.40924584  1  -0.064173  0  -0.23943  -0.411603  0  3.958456  0
C  C289  1  0.03907532  0.84205299  0.32283469  1  1.532927  0  0.224957  0.607683  0  4.159254  0
C  C290  1  0.08222036  0.80654791  0.36652003  1  -0.036308  0  -0.026133  -0.039036  0  4.040758  0
C  C291  1  0.11146857  0.73262468  0.38725536  1  -0.082379  0  -0.089896  -0.163191  0  3.961887  0
C  C292  1  0.15055760  0.69813031  0.42924319  1  0.010479  0  -0.00813  0.123235  0  3.975165  0
C  C293  1  0.16035810  0.73899706  0.45079503  1  -0.022279  0  -0.002378  -0.028199  0  3.906705  0
C  C294  1  0.13178859  0.81342537  0.42980274  1  0.052345  0  -0.00969  0.120471  0  3.976316  0
C  C295  1  0.09286969  0.84641581  0.38771000  1  -0.091889  0  -0.090749  -0.164815  0  3.960451  0
C  C296  1  0.18141533  0.61865741  0.45162067  1  -0.05735  0  -0.238246  -0.411828  0  3.975356  0
C  C297  1  0.14167824  0.85688759  0.45328022  1  -0.085447  0  -0.237729  -0.410467  0  3.98788  0
C  C298  1  0.56424095  0.48953086  0.62839011  1  1.53636  0  0.226567  0.603918  0  4.161639  0
C  C299  1  0.61590454  0.52384862  0.58355253  1  -0.082252  0  -0.026464  -0.046588  0  4.047939  0
C  C300  1  0.63966396  0.55426009  0.60321287  1  0.011352  0  -0.089409  -0.16354  0  3.963816  0
C  C301  1  0.68190500  0.59334548  0.56046981  1  -0.002388  0  -0.009586  0.11961  0  3.96749  0
C  C302  1  0.70081190  0.60149412  0.49685931  1  -0.06856  0  7.1e-05  -0.023091  0  3.889652  0
C  C303  1  0.67950401  0.56862124  0.47672936  1  -0.020495  0  -0.00532  0.124745  0  3.958629  0
C  C304  1  0.63694660  0.53016302  0.52065437  1  0.01162  0  -0.085287  -0.156904  0  3.945489  0
C  C305  1  0.70349349  0.62928848  0.58209920  1  -0.051198  0  -0.236826  -0.408784  0  3.987921  0
C  C306  1  0.70041354  0.57563115  0.40924233  1  -0.076897  0  -0.239127  -0.410197  0  3.958702  0
C  C307  1  0.84183538  0.79618964  0.32280156  1  1.527693  0  0.225889  0.609011  0  4.158039  0
C  C308  1  0.80634351  0.74485717  0.36646137  1  -0.027808  0  -0.026312  -0.038829  0  4.040837  0
C  C309  1  0.73241567  0.76876477  0.38722079  1  0.011297  0  -0.089739  -0.163409  0  3.961234  0
C  C310  1  0.69797949  0.72212454  0.42920135  1  -0.04427  0  -0.008713  0.121838  0  3.971664  0
C  C311  1  0.73889614  0.64990688  0.45072977  1  -0.011528  0  -0.001886  -0.024325  0  3.899642  0
C  C312  1  0.81332020  0.62508786  0.42970756  1  0.03931  0  -0.00953  0.120502  0  3.9756  0
C  C313  1  0.84624913  0.67315827  0.38761465  1  -0.105573  0  -0.090439  -0.165135  0  3.962075  0
C  C314  1  0.61851856  0.74828993  0.45163272  1  -0.028514  0  -0.237859  -0.410437  0  3.975314  0
C  C315  1  0.85682986  0.54829275  0.45319981  1  -0.030102  0  -0.238206  -0.411614  0  3.987034  0
C  C316  1  0.51050150  0.68217238  0.37161614  1  1.541425  0  0.225668  0.601806  0  4.163824  0
C  C317  1  0.47611989  0.72331256  0.41645705  1  0.009994  0  -0.026528  -0.045975  0  4.048255  0
C  C318  1  0.44573866  0.79713600  0.39678599  1  -0.122233  0  -0.089705  -0.164103  0  3.967742  0
C  C319  1  0.40663784  0.83573126  0.43952124  1  0.009993  0  -0.008768  0.119057  0  3.971577  0
C  C320  1  0.39845540  0.79918170  0.50313391  1  -0.062969  0  -0.000328  -0.02223  0  3.890568  0
C  C321  1  0.43128036  0.72486332  0.52327524  1  -0.006881  0  -0.004587  0.125486  0  3.958909  0
C  C322  1  0.46974994  0.68776337  0.47936188  1  -0.00332  0  -0.085002  -0.156636  0  3.944933  0
C  C323  1  0.37074450  0.91488595  0.41788678  1  -0.082798  0  -0.237326  -0.408651  0  3.989554  0
C  C324  1  0.42428401  0.68530302  0.59077005  1  -0.038054  0  -0.240349  -0.411494  0  3.961962  0
C  C325  1  0.20388720  0.96085435  0.67717664  1  1.578394  0  0.226994  0.611727  0  4.155994  0
C  C326  1  0.25520947  0.91770290  0.63350204  1  -0.095689  0  -0.025895  -0.039843  0  4.041438  0
C  C327  1  0.23127426  0.88843562  0.61278259  1  0.020258  0  -0.089725  -0.162596  0  3.961131  0
C  C328  1  0.27786784  0.84934517  0.57080211  1  -0.031724  0  -0.008722  0.12188  0  3.973211  0
C  C329  1  0.35008109  0.83955476  0.54925372  1  -0.004797  0  -0.00281  -0.028739  0  3.905615  0
C  C330  1  0.37495102  0.86814190  0.57022722  1  -0.015405  0  -0.008809  0.122541  0  3.977809  0
C  C331  1  0.32691812  0.90706698  0.61231167  1  -0.022446  0  -0.090802  -0.165145  0  3.962589  0
C  C332  1  0.25166186  0.81850473  0.54838149  1  -0.00425  0  -0.238487  -0.411126  0  3.977302  0
C  C333  1  0.45176369  0.85829891  0.54671689  1  -0.071857  0  -0.237645  -0.409027  0  3.984697  0
C  C334  1  0.68212478  0.43577551  0.37165356  1  1.54135  0  0.226011  0.602506  0  4.162829  0
C  C335  1  0.72330203  0.38410323  0.41644659  1  0.023124  0  -0.026323  -0.046288  0  4.048079  0
C  C336  1  0.79713335  0.36033492  0.39675646  1  -0.056073  0  -0.089741  -0.163699  0  3.967681  0
C  C337  1  0.83574981  0.31806126  0.43947815  1  -0.047075  0  -0.009295  0.118238  0  3.971025  0
C  C338  1  0.79923764  0.29912804  0.50309822  1  -0.032029  0  -0.000396  -0.021307  0  3.890035  0
C  C339  1  0.72492350  0.32045752  0.52325694  1  0.009025  0  -0.004585  0.126116  0  3.958603  0
C  C340  1  0.68780058  0.36303713  0.47936029  1  -0.02691  0  -0.085627  -0.158342  0  3.945767  0
C  C341  1  0.91490189  0.29648826  0.41781290  1  -0.03951  0  -0.236255  -0.407116  0  3.986592  0
C  C342  1  0.68537055  0.29956503  0.59075528  1  -0.064003  0  -0.239415  -0.411487  0  3.958341  0
C  C343  1  0.96092221  0.15794785  0.67716656  1  1.53281  0  0.224974  0.607828  0  4.159024  0
C  C344  1  0.91777980  0.19345194  0.63347976  1  -0.036238  0  -0.026149  -0.03912  0  4.040825  0
C  C345  1  0.88853159  0.26737616  0.61274364  1  -0.082366  0  -0.089899  -0.163193  0  3.961944  0
C  C346  1  0.84944309  0.30187033  0.57075567  1  0.010192  0  -0.008168  0.123197  0  3.975256  0
C  C347  1  0.83964260  0.26100211  0.54920482  1  -0.02204  0  -0.002376  -0.028154  0  3.906771  0
C  C348  1  0.86821157  0.18657497  0.57019646  1  0.052322  0  -0.009736  0.120359  0  3.97654  0
C  C349  1  0.90713101  0.15358434  0.61228906  1  -0.091868  0  -0.090754  -0.164757  0  3.960455  0
C  C350  1  0.81858642  0.38134186  0.54837872  1  -0.057373  0  -0.238257  -0.411854  0  3.975355  0
C  C351  1  0.85832140  0.14311246  0.54671932  1  -0.085455  0  -0.237697  -0.41074  0  3.987785  0
C  C352  1  0.43575921  0.51046802  0.37160968  1  1.536398  0  0.226596  0.603957  0  4.16156  0
C  C353  1  0.38409668  0.47615133  0.41644679  1  -0.082559  0  -0.026437  -0.046523  0  4.047963  0
C  C354  1  0.36033674  0.44573908  0.39678778  1  0.011515  0  -0.089514  -0.163765  0  3.963925  0
C  C355  1  0.31809569  0.40665369  0.43952925  1  -0.002408  0  -0.009589  0.119625  0  3.967522  0
C  C356  1  0.29918880  0.39850603  0.50314094  1  -0.068546  0  0.000102  -0.023043  0  3.88963  0
C  C357  1  0.32049616  0.43137911  0.52327023  1  -0.020559  0  -0.005237  0.124928  0  3.958536  0
C  C358  1  0.36305409  0.46983713  0.47934469  1  0.011603  0  -0.085265  -0.156922  0  3.94545  0
C  C359  1  0.29650721  0.37071167  0.41790065  1  -0.051198  0  -0.236861  -0.408845  0  3.987864  0
C  C360  1  0.29958716  0.42436949  0.59075614  1  -0.076899  0  -0.239193  -0.410278  0  3.95871  0
C  C361  1  0.15816637  0.20381110  0.67719959  1  1.527656  0  0.225788  0.608859  0  4.158167  0
C  C362  1  0.19365771  0.25514327  0.63353933  1  -0.027797  0  -0.026273  -0.038812  0  4.040833  0
C  C363  1  0.26758502  0.23123685  0.61278043  1  0.011254  0  -0.089832  -0.163466  0  3.961382  0
C  C364  1  0.30202015  0.27787797  0.57080034  1  -0.044152  0  -0.008762  0.121783  0  3.971641  0
C  C365  1  0.26110509  0.35009308  0.54927074  1  -0.011603  0  -0.00186  -0.023952  0  3.899954  0
C  C366  1  0.18667944  0.37491367  0.57029295  1  0.03892  0  -0.009519  0.119525  0  3.976943  0
C  C367  1  0.15375157  0.32684286  0.61238520  1  -0.105629  0  -0.090396  -0.164807  0  3.962304  0
C  C368  1  0.38148213  0.25171268  0.54836731  1  -0.028902  0  -0.237924  -0.410529  0  3.975252  0
C  C369  1  0.14316872  0.45170868  0.54680156  1  -0.029662  0  -0.238199  -0.411298  0  3.987364  0
C  C370  1  0.93577356  0.18212432  0.87165299  1  1.541332  0  0.226048  0.602544  0  4.162787  0
C  C371  1  0.88410202  0.22330151  0.91644613  1  0.023165  0  -0.026308  -0.046371  0  4.048249  0
C  C372  1  0.86033476  0.29713309  0.89675626  1  -0.056164  0  -0.089708  -0.163528  0  3.967705  0
C  C373  1  0.81806151  0.33574938  0.93947745  1  -0.046948  0  -0.009311  0.118102  0  3.971128  0
C  C374  1  0.79912878  0.29923657  0.00309833  1  -0.032031  0  -0.000395  -0.021267  0  3.890069  0
C  C375  1  0.82045714  0.22492410  0.02325603  1  0.008865  0  -0.004606  0.126194  0  3.958547  0
C  C376  1  0.86303714  0.18780069  0.97935868  1  -0.026751  0  -0.085654  -0.15839  0  3.945901  0
C  C377  1  0.79648709  0.41490254  0.91781433  1  -0.039935  0  -0.236301  -0.407241  0  3.986465  0
C  C378  1  0.79956543  0.18537098  0.09075334  1  -0.064046  0  -0.239426  -0.411532  0  3.958475  0
C  C379  1  0.65794902  0.46092471  0.17716425  1  1.532998  0  0.225032  0.60784  0  4.159218  0
C  C380  1  0.69345258  0.41777993  0.13347943  1  -0.036265  0  -0.026182  -0.039088  0  4.04081  0
C  C381  1  0.76737557  0.38853168  0.11274422  1  -0.082353  0  -0.089888  -0.163209  0  3.961855  0
C  C382  1  0.80187072  0.34944184  0.07075561  1  0.010352  0  -0.008123  0.123219  0  3.975181  0
C  C383  1  0.76100411  0.33964118  0.04920456  1  -0.02222  0  -0.002403  -0.02821  0  3.906706  0
C  C384  1  0.68657481  0.36821132  0.07019700  1  0.052357  0  -0.009718  0.120411  0  3.976318  0
C  C385  1  0.65358481  0.40713017  0.11228919  1  -0.091861  0  -0.090735  -0.164782  0  3.960426  0
C  C386  1  0.88134166  0.31858482  0.04837903  1  -0.05702  0  -0.238205  -0.411668  0  3.975418  0
C  C387  1  0.64311301  0.35832112  0.04671919  1  -0.085712  0  -0.237699  -0.410484  0  3.987918  0
C  C388  1  0.01046694  0.93576002  0.87160943  1  1.536268  0  0.22662  0.604025  0  4.161486  0
C  C389  1  0.97615207  0.88409535  0.91644633  1  -0.082439  0  -0.026482  -0.04665  0  4.047999  0
C  C390  1  0.94574021  0.86033413  0.89678848  1  0.01165  0  -0.089441  -0.163595  0  3.963871  0
C  C391  1  0.90665458  0.81809508  0.93953003  1  -0.002451  0  -0.009568  0.119609  0  3.967551  0
C  C392  1  0.89850704  0.79918884  0.00314135  1  -0.068488  0  8e-05  -0.023021  0  3.889679  0
C  C393  1  0.93137846  0.82049608  0.02327097  1  -0.02058  0  -0.005263  0.124757  0  3.958712  0
C  C394  1  0.96983795  0.86305341  0.97934513  1  0.011612  0  -0.085294  -0.156882  0  3.945427  0
C  C395  1  0.87071203  0.79650606  0.91790146  1  -0.051216  0  -0.236834  -0.408802  0  3.987843  0
C  C396  1  0.92437033  0.79958656  0.09075688  1  -0.076693  0  -0.239132  -0.410155  0  3.958807  0
C  C397  1  0.70381179  0.65816462  0.17719770  1  1.527689  0  0.225798  0.608911  0  4.158164  0
C  C398  1  0.75514369  0.69365731  0.13353858  1  -0.027775  0  -0.026271  -0.038771  0  4.04081  0
C  C399  1  0.73123657  0.76758421  0.11278014  1  0.011216  0  -0.089798  -0.163457  0  3.96137  0
C  C400  1  0.77787667  0.80202030  0.07080085  1  -0.044179  0  -0.008754  0.121815  0  3.971676  0
C  C401  1  0.85009299  0.76110477  0.04927096  1  -0.01159  0  -0.001833  -0.023928  0  3.899905  0
C  C402  1  0.87491370  0.68667891  0.07029321  1  0.039197  0  -0.009508  0.119535  0  3.976932  0
C  C403  1  0.82684277  0.65375105  0.11238510  1  -0.105922  0  -0.090423  -0.164848  0  3.962346  0
C  C404  1  0.75171007  0.88148144  0.04836832  1  -0.029079  0  -0.237874  -0.410425  0  3.97525  0
C  C405  1  0.95170874  0.64316825  0.04680138  1  -0.029707  0  -0.238231  -0.41136  0  3.987316  0
C  C406  1  0.18217185  0.01050653  0.87161464  1  1.54157  0  0.225758  0.601992  0  4.16383  0
C  C407  1  0.22331019  0.97612262  0.91645772  1  0.009911  0  -0.026562  -0.046016  0  4.04823  0
C  C408  1  0.29713557  0.94573845  0.89678746  1  -0.121968  0  -0.089667  -0.164154  0  3.967648  0
C  C409  1  0.33572938  0.90663768  0.93952170  1  0.009951  0  -0.008779  0.119114  0  3.971517  0
C  C410  1  0.29917950  0.89845566  0.00313507  1  -0.063154  0  -0.000361  -0.022241  0  3.890477  0
C  C411  1  0.22486347  0.93128044  0.02327552  1  -0.007077  0  -0.004577  0.125466  0  3.958773  0
C  C412  1  0.18776145  0.96975180  0.97936233  1  -0.003245  0  -0.085024  -0.156603  0  3.944847  0
C  C413  1  0.41488436  0.87074434  0.91788712  1  -0.082859  0  -0.237307  -0.408664  0  3.989517  0
C  C414  1  0.18530289  0.92428343  0.09077190  1  -0.037852  0  -0.240334  -0.411445  0  3.961862  0
C  C415  1  0.46085601  0.70388445  0.17717508  1  1.578008  0  0.227037  0.611853  0  4.155936  0
C  C416  1  0.41770391  0.75520802  0.13350140  1  -0.095773  0  -0.025975  -0.039961  0  4.041664  0
C  C417  1  0.38843564  0.73127359  0.11278243  1  0.020525  0  -0.0897  -0.162477  0  3.961311  0
C  C418  1  0.34934424  0.77786741  0.07080303  1  -0.031845  0  -0.008708  0.121819  0  3.973313  0
C  C419  1  0.33955305  0.85008066  0.04925576  1  -0.004713  0  -0.002797  -0.028731  0  3.905537  0
C  C420  1  0.36814212  0.87494977  0.07022801  1  -0.015786  0  -0.008791  0.122603  0  3.977713  0
C  C421  1  0.40706756  0.82691681  0.11231154  1  -0.022266  0  -0.090784  -0.165166  0  3.962604  0
C  C422  1  0.31850323  0.75166260  0.04838139  1  -0.003976  0  -0.238526  -0.411091  0  3.977305  0
C  C423  1  0.35829944  0.95176226  0.04671803  1  -0.071908  0  -0.237624  -0.408972  0  3.984698  0
O  O424  1  0.04138820  0.78384541  0.18445478  1  -1.180222  0  -0.314986  -0.547701  0  2.321283  0
O  O425  1  0.04487085  0.88530455  0.10666563  1  -1.178304  0  -0.319549  -0.554492  0  2.370527  0
O  O426  1  0.40968915  0.51275607  0.80599558  1  -1.149772  0  -0.318669  -0.549981  0  2.327729  0
O  O427  1  0.30170442  0.53166119  0.80603018  1  -1.176789  0  -0.318444  -0.552318  0  2.344107  0
O  O428  1  0.99037256  0.04139651  0.18447280  1  -1.170644  0  -0.315315  -0.548572  0  2.321338  0
O  O429  1  0.96305613  0.04491358  0.10676467  1  -1.186615  0  -0.320145  -0.555821  0  2.370022  0
O  O430  1  0.27170787  0.40947942  0.80592063  1  -1.147455  0  -0.318497  -0.550219  0  2.327328  0
O  O431  1  0.36076643  0.30148072  0.80606027  1  -1.185757  0  -0.31978  -0.553961  0  2.345529  0
O  O432  1  0.78375419  0.99031511  0.18447082  1  -1.174009  0  -0.314873  -0.547962  0  2.321141  0
O  O433  1  0.88525209  0.96300125  0.10675338  1  -1.181359  0  -0.319771  -0.554268  0  2.370947  0
O  O434  1  0.51274587  0.27165680  0.80604324  1  -1.177997  0  -0.319851  -0.551676  0  2.326193  0
O  O435  1  0.53177370  0.36068138  0.80597813  1  -1.178611  0  -0.319581  -0.554926  0  2.344962  0
O  O436  1  0.49031238  0.28375436  0.68447062  1  -1.173962  0  -0.314866  -0.547927  0  2.321068  0
O  O437  1  0.46300280  0.38525233  0.60675260  1  -1.181336  0  -0.319766  -0.554251  0  2.371038  0
O  O438  1  0.77165647  0.01274506  0.30604407  1  -1.17801  0  -0.319835  -0.551689  0  2.326245  0
O  O439  1  0.86068208  0.03177461  0.30597666  1  -1.178585  0  -0.319552  -0.554905  0  2.344894  0
O  O440  1  0.28384467  0.54138875  0.68445408  1  -1.180205  0  -0.315015  -0.547764  0  2.321287  0
O  O441  1  0.38530454  0.54487119  0.60666551  1  -1.178329  0  -0.31953  -0.554467  0  2.370556  0
O  O442  1  0.01275139  0.90969063  0.30599963  1  -1.149765  0  -0.31871  -0.549986  0  2.327767  0
O  O443  1  0.03165825  0.80170583  0.30603237  1  -1.176714  0  -0.318441  -0.552313  0  2.344151  0
O  O444  1  0.54139585  0.49037199  0.68447215  1  -1.170646  0  -0.315322  -0.548575  0  2.321447  0
O  O445  1  0.54491392  0.46305628  0.60676213  1  -1.18664  0  -0.320145  -0.555807  0  2.370081  0
O  O446  1  0.90947920  0.77170860  0.30592481  1  -1.147439  0  -0.318544  -0.550277  0  2.327287  0
O  O447  1  0.80148130  0.86076640  0.30606484  1  -1.185735  0  -0.319725  -0.553944  0  2.345544  0
O  O448  1  0.92358508  0.92362175  0.22916057  1  -1.212873  0  -0.576567  -1.028446  0  2.559438  0
O  O449  1  0.42362108  0.42358467  0.72915978  1  -1.21283  0  -0.576565  -1.028387  0  2.55947  0
O  O450  1  0.50968673  0.71624490  0.31552906  1  -1.173992  0  -0.314856  -0.547908  0  2.32103  0
O  O451  1  0.53699366  0.61474792  0.39324894  1  -1.181302  0  -0.319748  -0.554212  0  2.370961  0
O  O452  1  0.22834633  0.98725283  0.69395584  1  -1.178283  0  -0.319826  -0.55161  0  2.326155  0
O  O453  1  0.13932020  0.96822446  0.69402417  1  -1.17866  0  -0.319544  -0.554901  0  2.344922  0
O  O454  1  0.71615444  0.45861003  0.31554697  1  -1.180204  0  -0.315024  -0.547807  0  2.321279  0
O  O455  1  0.61469457  0.45512759  0.39333515  1  -1.178359  0  -0.319606  -0.554539  0  2.370505  0
O  O456  1  0.98724507  0.09030962  0.69400269  1  -1.149647  0  -0.318686  -0.550015  0  2.327608  0
O  O457  1  0.96833822  0.19829540  0.69396995  1  -1.176808  0  -0.31846  -0.55241  0  2.344055  0
O  O458  1  0.45860378  0.50962855  0.31552679  1  -1.170656  0  -0.315324  -0.548604  0  2.321393  0
O  O459  1  0.45508678  0.53694141  0.39323754  1  -1.186581  0  -0.320147  -0.555786  0  2.370005  0
O  O460  1  0.09052255  0.22829214  0.69407713  1  -1.147393  0  -0.318475  -0.550174  0  2.327313  0
O  O461  1  0.19852098  0.13923414  0.69393578  1  -1.185755  0  -0.319696  -0.55389  0  2.345509  0
O  O462  1  0.95860827  0.21615435  0.81554616  1  -1.180189  0  -0.315024  -0.547826  0  2.321299  0
O  O463  1  0.95512402  0.11469580  0.89333415  1  -1.178401  0  -0.319631  -0.554523  0  2.370437  0
O  O464  1  0.59031154  0.48724898  0.19399990  1  -1.149811  0  -0.318735  -0.550075  0  2.327812  0
O  O465  1  0.69829627  0.46834190  0.19396650  1  -1.176791  0  -0.318469  -0.552385  0  2.344123  0
O  O466  1  0.00962496  0.95860481  0.81552668  1  -1.170486  0  -0.315354  -0.548629  0  2.321311  0
O  O467  1  0.03693980  0.95508932  0.89323600  1  -1.18664  0  -0.32013  -0.555806  0  2.370081  0
O  O468  1  0.72829176  0.59052161  0.19407456  1  -1.147429  0  -0.318502  -0.550232  0  2.327375  0
O  O469  1  0.63923426  0.69851991  0.19393346  1  -1.18573  0  -0.319679  -0.553905  0  2.345534  0
O  O470  1  0.21624703  0.00968926  0.81552788  1  -1.17402  0  -0.314914  -0.548055  0  2.320988  0
O  O471  1  0.11474755  0.03700174  0.89324455  1  -1.18137  0  -0.319767  -0.554296  0  2.370988  0
O  O472  1  0.48725535  0.72834217  0.19395530  1  -1.177951  0  -0.319803  -0.551676  0  2.326144  0
O  O473  1  0.46822488  0.63931759  0.19402266  1  -1.178643  0  -0.319581  -0.554953  0  2.344948  0
O  O474  1  0.57637856  0.57641489  0.27084035  1  -1.212922  0  -0.576589  -1.028467  0  2.55943  0
O  O475  1  0.07641561  0.07637889  0.77083829  1  -1.212848  0  -0.576579  -1.028487  0  2.559391  0
