# generated using pymatgen
data_CoH56C54S2(N4O)2
_symmetry_space_group_name_H-M   'P 1'
_cell_length_a   17.85728200
_cell_length_b   18.93263926
_cell_length_c   19.52400931
_cell_angle_alpha   90.03088395
_cell_angle_beta   89.97678100
_cell_angle_gamma   90.01066312
_symmetry_Int_Tables_number   1
_chemical_formula_structural   CoH56C54S2(N4O)2
_chemical_formula_sum   'Co4 H224 C216 S8 N32 O8'
_cell_volume   6600.78241143
_cell_formula_units_Z   4
loop_
 _symmetry_equiv_pos_site_id
 _symmetry_equiv_pos_as_xyz
  1  'x, y, z'
loop_
 _atom_site_type_symbol
 _atom_site_label
 _atom_site_symmetry_multiplicity
 _atom_site_fract_x
 _atom_site_fract_y
 _atom_site_fract_z
 _atom_site_occupancy
 _atom_site_pbe_bader_charge
 _atom_site_pbe_bader_spin_density
 _atom_site_pbe_cm5_charge
 _atom_site_pbe_ddec_charge
 _atom_site_pbe_ddec_spin_density
 _atom_site_pbe_ddec_sum_bond_order
 _atom_site_pbe_magmom
Co  Co0  1  0.82051597  0.76469732  0.50042230  1  1.22353  2.529611  0.691277  0.689737  2.805038  2.766091  2.514
Co  Co1  1  0.67907354  0.26435689  0.00004115  1  1.225573  2.531068  0.69167  0.691555  2.803343  2.763895  2.515
Co  Co2  1  0.32086631  0.76441734  0.99989191  1  1.225806  2.531023  0.69131  0.690582  2.803816  2.764014  2.515
Co  Co3  1  0.17909061  0.26444094  0.50000313  1  1.226151  2.530895  0.692015  0.691867  2.803717  2.7636  2.515
H  H4  1  0.89401298  0.91481722  0.52022673  1  0.124095  0.001446  0.107652  0.075042  0.000324  1.066573  0.001
H  H5  1  0.60834171  0.41564677  0.02165032  1  0.088751  0.001456  0.108188  0.075497  0.000283  1.065995  0.001
H  H6  1  0.39196355  0.91558347  0.97823272  1  0.093748  0.001454  0.108048  0.0752  0.000282  1.065853  0.001
H  H7  1  0.10831128  0.41569451  0.47834505  1  0.0882  0.001454  0.108317  0.07548  0.000282  1.065731  0.001
H  H8  1  0.99084802  0.96914041  0.59464580  1  0.071861  0.000995  0.10609  0.105552  0.000455  1.014725  0.0
H  H9  1  0.51056831  0.46967598  0.09531235  1  0.10285  0.000966  0.105707  0.105015  0.000455  1.015311  0.0
H  H10  1  0.48976276  0.96950012  0.90455077  1  0.104266  0.000964  0.105902  0.105077  0.000454  1.014759  0.0
H  H11  1  0.01057681  0.46964743  0.40470227  1  0.103485  0.000963  0.105766  0.104991  0.000454  1.014915  0.0
H  H12  1  0.04334838  0.89777957  0.69322184  1  0.11558  -0.000114  0.109673  0.101348  -0.000205  1.039212  0.0
H  H13  1  0.45688458  0.39791449  0.19315686  1  0.109804  -0.000119  0.109914  0.101364  -0.000212  1.03883  0.0
H  H14  1  0.54331693  0.89767991  0.80665849  1  0.113508  -0.000116  0.109559  0.100969  -0.000211  1.039398  0.0
H  H15  1  0.95693874  0.39778535  0.30688134  1  0.112097  -0.000116  0.109754  0.101032  -0.000212  1.039341  0.0
H  H16  1  0.89107370  0.73155777  0.63438181  1  0.131144  0.001784  0.11466  0.086377  0.000514  1.05674  0.001
H  H17  1  0.61005942  0.23208020  0.13532863  1  0.127531  0.001917  0.114527  0.0866  0.000666  1.054024  0.001
H  H18  1  0.38999836  0.73194128  0.86448248  1  0.126848  0.00191  0.11448  0.086358  0.000662  1.053689  0.001
H  H19  1  0.11005604  0.23198664  0.36469705  1  0.126521  0.001915  0.114601  0.086724  0.000665  1.053839  0.001
H  H20  1  0.95842740  0.66520590  0.69194675  1  0.08058  -3e-06  0.110401  0.122449  -1.1e-05  1.004561  0.0
H  H21  1  0.54174819  0.16556307  0.19203965  1  0.081749  4.3e-05  0.110385  0.122376  2.3e-05  1.005188  0.0
H  H22  1  0.45845372  0.66528898  0.80794864  1  0.081563  4.3e-05  0.110532  0.122817  2.3e-05  1.004517  0.0
H  H23  1  0.04180588  0.16540685  0.30794466  1  0.078913  3.4e-05  0.11023  0.122265  1.5e-05  1.005013  0.0
H  H24  1  0.08799515  0.66073236  0.87719782  1  0.081732  0.000116  0.105852  0.119862  9e-05  1.01549  0.0
H  H25  1  0.41171869  0.16094289  0.37711153  1  0.084186  0.000118  0.105859  0.119813  9.1e-05  1.015537  0.0
H  H26  1  0.58740106  0.66037509  0.62226445  1  0.074581  3.5e-05  0.106807  0.120685  1e-06  1.01299  0.0
H  H27  1  0.91184124  0.16057955  0.12292378  1  0.124145  0.000118  0.10568  0.119721  9.2e-05  1.016354  0.0
H  H28  1  0.04906635  0.89996228  0.86348711  1  0.086947  -0.000129  0.111725  0.108942  -0.000181  1.000011  0.0
H  H29  1  0.45084767  0.40024833  0.36353753  1  0.137512  -9.8e-05  0.111766  0.108816  -0.000182  1.000221  0.0
H  H30  1  0.54940176  0.89997582  0.63686496  1  0.094118  -0.00014  0.111945  0.109249  -0.000203  1.000406  0.0
H  H31  1  0.95102129  0.39989095  0.13651837  1  0.084541  -0.00013  0.111807  0.108956  -0.000181  1.000255  0.0
H  H32  1  0.12779955  0.97005082  0.94734306  1  0.066652  0.000978  0.112458  0.116693  0.000446  0.984572  0.0
H  H33  1  0.37204400  0.47026818  0.44742919  1  0.06301  0.000979  0.112508  0.116459  0.000445  0.985541  0.0
H  H34  1  0.62761797  0.96991460  0.55248144  1  0.069422  0.001033  0.112696  0.116846  0.000474  0.984891  0.0
H  H35  1  0.87230196  0.46992235  0.05271495  1  0.067472  0.000977  0.112432  0.116796  0.000445  0.985054  0.0
H  H36  1  0.23612474  0.91057620  0.00368007  1  0.10846  0.001464  0.112344  0.08172  0.000308  1.042396  0.001
H  H37  1  0.26375935  0.41069051  0.50384363  1  0.103542  0.001463  0.112268  0.081817  0.000307  1.042706  0.001
H  H38  1  0.73508183  0.91017100  0.49506022  1  0.11168  0.001451  0.111983  0.081892  0.000362  1.043742  0.001
H  H39  1  0.76393195  0.41041567  0.99636732  1  0.110248  0.001464  0.112281  0.081566  0.000308  1.042405  0.001
H  H40  1  0.19263156  0.72231991  0.90414656  1  0.109569  0.001445  0.115395  0.089676  0.000302  1.048692  0.001
H  H41  1  0.30738540  0.22247896  0.40428065  1  0.112148  0.001446  0.115291  0.089711  0.000301  1.049218  0.001
H  H42  1  0.69105638  0.72149127  0.59355358  1  0.100348  0.00155  0.115769  0.090156  0.000334  1.046385  0.001
H  H43  1  0.80740859  0.22220881  0.09577725  1  0.108417  0.001442  0.115365  0.089486  0.0003  1.049114  0.001
H  H44  1  0.12088721  0.54687091  0.79307626  1  0.091396  -6.8e-05  0.097612  0.109388  -0.000118  1.064121  0.0
H  H45  1  0.37885721  0.04724997  0.29292890  1  0.078156  -6.8e-05  0.097746  0.1095  -0.000117  1.064135  0.0
H  H46  1  0.62078142  0.54678505  0.70703288  1  0.089344  0.000239  0.098022  0.109968  0.000169  1.061802  0.0
H  H47  1  0.87907103  0.04684210  0.20741858  1  0.094931  -5.5e-05  0.097715  0.109097  -9.8e-05  1.064072  0.0
H  H48  1  0.79744804  0.55094667  0.72760882  1  0.082737  0.000282  0.087691  0.051099  0.000168  1.034471  0.0
H  H49  1  0.70241421  0.05135187  0.22721059  1  0.080261  0.000239  0.088158  0.05195  0.000174  1.030741  0.0
H  H50  1  0.29725666  0.55109767  0.77253263  1  0.082705  0.000272  0.088268  0.052021  0.000189  1.031363  0.0
H  H51  1  0.20254190  0.05118134  0.27255990  1  0.084404  0.000276  0.088374  0.051844  0.000192  1.031324  0.0
H  H52  1  0.77860974  0.55031890  0.81813760  1  0.067007  0.000383  0.086885  0.051459  0.000268  1.015975  0.0
H  H53  1  0.72110399  0.05043687  0.31773186  1  0.034552  -5.5e-05  0.086852  0.051337  -0.000129  1.019154  0.0
H  H54  1  0.27848550  0.55018988  0.68202115  1  0.06666  0.000368  0.087121  0.051745  0.000263  1.01635  0.0
H  H55  1  0.22140300  0.05025571  0.18205273  1  0.06795  0.000369  0.087102  0.051634  0.000264  1.016096  0.0
H  H56  1  0.77845698  0.68020397  0.72441114  1  0.026074  0.000109  0.089984  0.090026  6.2e-05  0.997064  0.0
H  H57  1  0.72167358  0.18056453  0.22432699  1  0.011804  -7e-06  0.089697  0.089503  -2.6e-05  0.997013  0.0
H  H58  1  0.27832414  0.68031973  0.77556368  1  0.026228  9e-06  0.090102  0.089668  -2e-05  0.997669  0.0
H  H59  1  0.22158213  0.18040513  0.27555935  1  0.027839  9e-06  0.090118  0.089885  -2e-05  0.99732  0.0
H  H60  1  0.69721423  0.63502454  0.75078237  1  0.009765  7.6e-05  0.087458  0.085743  3e-05  1.002341  0.0
H  H61  1  0.80274332  0.13519539  0.25064568  1  0.010738  0.0  0.087517  0.085954  -1.8e-05  1.002981  0.0
H  H62  1  0.19711048  0.63513675  0.74917268  1  0.01008  -1e-06  0.087525  0.086031  -1.8e-05  1.002841  0.0
H  H63  1  0.30277840  0.13517033  0.24922083  1  0.011302  0.0  0.087664  0.086281  -1.7e-05  1.003087  0.0
H  H64  1  0.80797130  0.70290110  0.85142193  1  0.027324  8e-06  0.087163  0.081796  0.0  0.989683  0.0
H  H65  1  0.69195374  0.20286882  0.35144541  1  0.027084  0.0  0.086936  0.081085  1e-06  0.989869  0.0
H  H66  1  0.30809878  0.70273190  0.64852968  1  0.03038  -1e-06  0.087092  0.081475  -1e-06  0.989634  0.0
H  H67  1  0.19200172  0.20276457  0.14849788  1  0.030768  -0.0  0.087119  0.08153  -1e-06  0.989699  0.0
H  H68  1  0.72110301  0.66380858  0.87217911  1  0.006521  6.2e-05  0.082807  0.075035  2.5e-05  0.988306  0.0
H  H69  1  0.77880620  0.16375448  0.37208755  1  0.007034  5e-05  0.083036  0.075788  3.2e-05  0.987593  0.0
H  H70  1  0.22123749  0.66364580  0.62774519  1  0.011702  5.2e-05  0.082653  0.075069  2.3e-05  0.988499  0.0
H  H71  1  0.27886954  0.16364613  0.12778273  1  0.013386  5.2e-05  0.082722  0.075133  2.3e-05  0.988485  0.0
H  H72  1  0.65528472  0.75799691  0.80226560  1  0.004198  -1e-05  0.08047  0.075336  -9e-06  1.016369  0.0
H  H73  1  0.84465350  0.25817357  0.30239105  1  0.005846  -1e-05  0.080404  0.075415  -7e-06  1.016298  0.0
H  H74  1  0.15538423  0.75803032  0.69753973  1  0.007132  -1e-05  0.080286  0.075346  -7e-06  1.016539  0.0
H  H75  1  0.34468133  0.25803582  0.19758166  1  0.006312  -1e-05  0.080359  0.075375  -7e-06  1.016049  0.0
H  H76  1  0.70523172  0.79123394  0.87305536  1  0.011546  -1.3e-05  0.084289  0.073816  -1.3e-05  0.982658  0.0
H  H77  1  0.79467035  0.29120013  0.37327397  1  0.010295  -9e-06  0.084178  0.073253  -1e-05  0.983399  0.0
H  H78  1  0.20541199  0.79105638  0.62670789  1  0.010862  -1.3e-05  0.084253  0.073623  -1.3e-05  0.982995  0.0
H  H79  1  0.29476555  0.29107638  0.12673292  1  0.012245  -1.4e-05  0.083988  0.073253  -1.4e-05  0.982608  0.0
H  H80  1  0.75853550  0.79456423  0.72334762  1  -0.029941  -3.9e-05  0.08192  0.071329  -5.6e-05  1.005176  0.0
H  H81  1  0.74126753  0.29477518  0.22364797  1  -0.021684  -4.5e-05  0.08193  0.071278  -6.4e-05  1.006287  0.0
H  H82  1  0.25870464  0.79470272  0.77637268  1  -0.022463  -4.4e-05  0.082048  0.071574  -6.3e-05  1.006016  0.0
H  H83  1  0.24131015  0.29471815  0.27638514  1  -0.022638  -4.4e-05  0.082158  0.071667  -6.3e-05  1.005887  0.0
H  H84  1  0.81388679  0.81950333  0.79397902  1  0.033127  -1e-05  0.085001  0.077189  -4e-06  0.9875  0.0
H  H85  1  0.68608293  0.31973211  0.29440169  1  0.029454  -9e-06  0.085111  0.077117  -3e-06  0.987474  0.0
H  H86  1  0.31396753  0.81959781  0.70566322  1  0.029863  -1e-05  0.085012  0.077047  -3e-06  0.98764  0.0
H  H87  1  0.18610046  0.31958404  0.20567865  1  0.030833  -1e-05  0.084941  0.077039  -3e-06  0.987756  0.0
H  H88  1  0.66315820  0.88580571  0.75371022  1  0.029335  -4.8e-05  0.081533  0.071545  -4.9e-05  1.026638  0.0
H  H89  1  0.83689803  0.38585003  0.25391535  1  0.029525  -4.4e-05  0.08158  0.071462  -4.5e-05  1.027083  0.0
H  H90  1  0.16317282  0.88579106  0.74606842  1  0.030644  -4.5e-05  0.081524  0.071496  -4.6e-05  1.027269  0.0
H  H91  1  0.33687238  0.38582635  0.24606816  1  0.030144  -4.4e-05  0.081614  0.07168  -4.4e-05  1.026982  0.0
H  H92  1  0.71815577  0.91257598  0.82425919  1  -0.00474  -4e-06  0.08007  0.066268  -7e-06  0.991913  0.0
H  H93  1  0.78194886  0.41272849  0.32449487  1  -0.007766  5e-06  0.080106  0.066146  0.0  0.991857  0.0
H  H94  1  0.21817210  0.91256916  0.67551367  1  -0.007283  -5e-06  0.080153  0.066405  -8e-06  0.991718  0.0
H  H95  1  0.28192995  0.41258481  0.17551116  1  -0.006763  -7e-06  0.080108  0.066383  -9e-06  0.991913  0.0
H  H96  1  0.73331686  0.99131128  0.72191686  1  0.006335  3e-06  0.080386  0.065236  3e-06  1.008882  0.0
H  H97  1  0.76700628  0.49139775  0.22202696  1  0.003629  3e-06  0.080454  0.06513  3e-06  1.008472  0.0
H  H98  1  0.23316556  0.99136131  0.77795465  1  0.005663  3e-06  0.080624  0.065214  3e-06  1.009199  0.0
H  H99  1  0.26687964  0.49137486  0.27795972  1  0.004996  2e-06  0.080631  0.065226  3e-06  1.008933  0.0
H  H100  1  0.76619795  0.91961647  0.67315102  1  0.027304  -6.4e-05  0.08059  0.071043  -9.2e-05  1.000124  0.0
H  H101  1  0.73380281  0.41970514  0.17344797  1  -0.015935  -6.5e-05  0.080485  0.071144  -9.4e-05  1.001076  0.0
H  H102  1  0.26620027  0.91971310  0.82659143  1  0.031069  -6.3e-05  0.080488  0.071204  -9.3e-05  1.001193  0.0
H  H103  1  0.23376319  0.41972087  0.32658721  1  0.031384  -6.4e-05  0.080507  0.071271  -9.4e-05  1.001095  0.0
H  H104  1  0.87187582  0.99610699  0.71740883  1  0.029225  -8e-06  0.080637  0.106972  -6e-06  1.023196  0.0
H  H105  1  0.62840937  0.49647461  0.21778783  1  0.035793  -6e-06  0.080549  0.106466  -5e-06  1.023681  0.0
H  H106  1  0.37174105  0.99633380  0.78232906  1  0.032828  -6e-06  0.080415  0.106598  -5e-06  1.023902  0.0
H  H107  1  0.12829928  0.49634161  0.28231153  1  0.033325  -5e-06  0.080562  0.106569  -4e-06  1.024056  0.0
H  H108  1  0.84523092  0.97571761  0.80287652  1  -0.017621  4e-05  0.080098  0.102846  2.7e-05  1.023961  0.0
H  H109  1  0.65517015  0.47624307  0.30323905  1  0.023252  4.5e-05  0.079899  0.102236  2.9e-05  1.024583  0.0
H  H110  1  0.34508097  0.97597195  0.69686004  1  0.027514  3.9e-05  0.080001  0.102324  2.7e-05  1.024169  0.0
H  H111  1  0.15504487  0.47599078  0.19684751  1  0.027556  4e-05  0.079902  0.102339  2.7e-05  1.024033  0.0
H  H112  1  0.87959779  0.90882145  0.74816565  1  0.030223  -4.4e-05  0.080287  0.108525  -5.2e-05  1.039565  0.0
H  H113  1  0.62053990  0.40927334  0.24876421  1  0.023952  -4.6e-05  0.080183  0.1081  -5.5e-05  1.039982  0.0
H  H114  1  0.37955122  0.90907710  0.75141974  1  0.026615  -4.7e-05  0.080087  0.108283  -5.6e-05  1.040121  0.0
H  H115  1  0.12048950  0.40909200  0.25139434  1  0.026832  -4.6e-05  0.080185  0.108315  -5.5e-05  1.039873  0.0
H  H116  1  0.06132458  0.14404116  0.46181064  1  0.101294  0.0018  0.116836  0.090411  0.000568  1.00512  0.001
H  H117  1  0.43877163  0.64402761  0.96179217  1  0.100446  0.001817  0.116827  0.090153  0.000591  1.004989  0.001
H  H118  1  0.56118527  0.14414519  0.03813890  1  0.101753  0.001819  0.116862  0.090181  0.000592  1.004888  0.001
H  H119  1  0.93953096  0.64445680  0.53899057  1  0.103608  0.001684  0.11678  0.089646  0.000439  1.004941  0.001
H  H120  1  0.94278828  0.09426036  0.51127486  1  0.074522  0.001337  0.105401  0.109285  0.000679  1.012743  0.0
H  H121  1  0.55731588  0.59438684  0.01127420  1  0.076654  0.001295  0.105034  0.10888  0.000642  1.013384  0.0
H  H122  1  0.44262669  0.09437670  0.98871999  1  0.078866  0.001295  0.105028  0.108743  0.000642  1.013533  0.0
H  H123  1  0.05776623  0.59433594  0.48924263  1  0.107754  0.001227  0.104799  0.108551  0.000622  1.01368  0.0
H  H124  1  0.89395819  0.14525299  0.62273796  1  0.113621  -0.000141  0.112769  0.111226  -0.000216  0.992607  0.0
H  H125  1  0.60602081  0.64548253  0.12270345  1  0.117361  -0.000145  0.112502  0.110895  -0.000223  0.993064  0.0
H  H126  1  0.39389826  0.14525463  0.87726774  1  0.112957  -0.000148  0.112709  0.111115  -0.000223  0.992484  0.0
H  H127  1  0.10660808  0.64516693  0.37777237  1  0.124478  -0.00014  0.112833  0.110961  -0.000211  0.992989  0.0
H  H128  1  0.08818117  0.28047005  0.62434745  1  0.13856  0.001868  0.118151  0.091723  0.000454  1.04466  0.001
H  H129  1  0.41169127  0.78050475  0.12426715  1  0.138044  0.001866  0.118165  0.091794  0.000453  1.044495  0.001
H  H130  1  0.58816610  0.28042663  0.87562466  1  0.139001  0.001866  0.118048  0.091679  0.000453  1.044189  0.001
H  H131  1  0.91326133  0.78137404  0.37693388  1  0.123098  0.002003  0.117564  0.091142  0.000686  1.046689  0.001
H  H132  1  0.01879994  0.35205043  0.67385140  1  0.101408  -2.9e-05  0.111619  0.1257  -5.1e-05  1.010167  0.0
H  H133  1  0.48120981  0.85231053  0.17332553  1  0.09347  -3e-05  0.111416  0.125701  -5.1e-05  1.010256  0.0
H  H134  1  0.51873800  0.35199697  0.82621757  1  0.102126  -2.9e-05  0.111556  0.125722  -5e-05  1.010408  0.0
H  H135  1  0.98194446  0.85234782  0.32696898  1  0.098224  -2.3e-05  0.111682  0.125935  -5.4e-05  1.009004  0.0
H  H136  1  0.85827885  0.46117627  0.78257102  1  0.092303  -0.0  0.101906  0.112248  -1.2e-05  1.051126  0.0
H  H137  1  0.64143581  0.96150223  0.28213261  1  0.097691  5e-06  0.102022  0.112599  -1e-06  1.05006  0.0
H  H138  1  0.35817071  0.46105959  0.71752706  1  0.09058  2e-06  0.101898  0.112331  -7e-06  1.050667  0.0
H  H139  1  0.14167587  0.96122303  0.21758793  1  0.09287  5e-06  0.102117  0.112634  -6e-06  1.050362  0.0
H  H140  1  0.19105713  0.46957000  0.75006677  1  0.064674  0.000113  0.088025  0.049698  5.7e-05  1.048643  0.0
H  H141  1  0.30853758  0.96971979  0.24991389  1  0.060969  0.000111  0.088251  0.050131  5.6e-05  1.048441  0.0
H  H142  1  0.69097478  0.46959782  0.75002830  1  0.064653  0.000133  0.088042  0.050045  8e-05  1.048272  0.0
H  H143  1  0.80876029  0.96960729  0.25041927  1  0.057525  0.00028  0.08827  0.051016  0.000186  1.047367  0.0
H  H144  1  0.18868974  0.44487515  0.83857024  1  0.068603  0.000247  0.088273  0.069333  8.8e-05  1.007817  0.0
H  H145  1  0.31112559  0.94502907  0.33841234  1  0.068364  0.000247  0.088265  0.069202  8.9e-05  1.008256  0.0
H  H146  1  0.68846700  0.44487124  0.66150000  1  0.069056  0.000251  0.088358  0.06936  7.8e-05  1.007791  0.0
H  H147  1  0.81146665  0.94498098  0.16188594  1  0.075199  0.000342  0.088501  0.069572  0.000123  1.006577  0.0
H  H148  1  0.28885214  0.38615128  0.77510884  1  -0.003012  4.1e-05  0.089877  0.086557  2.9e-05  1.004233  0.0
H  H149  1  0.21097133  0.88604212  0.27510667  1  -0.00414  4e-05  0.08947  0.08597  2.8e-05  1.004148  0.0
H  H150  1  0.78880339  0.38626971  0.72476515  1  -0.002296  -4e-06  0.089873  0.086787  -1.1e-05  1.003873  0.0
H  H151  1  0.71102894  0.88622664  0.22493098  1  -0.003922  3.9e-05  0.089686  0.086431  2.4e-05  1.003779  0.0
H  H152  1  0.22522776  0.34964038  0.71567037  1  0.034955  -1.3e-05  0.087798  0.088508  -3.3e-05  1.002313  0.0
H  H153  1  0.27465357  0.84962896  0.21562988  1  0.034373  -1.3e-05  0.087778  0.088323  -3.4e-05  1.002431  0.0
H  H154  1  0.72527966  0.34973005  0.78428327  1  0.036353  -0.0  0.087718  0.088436  -2.5e-05  1.002134  0.0
H  H155  1  0.77437557  0.84969809  0.28454759  1  0.032658  3.2e-05  0.087693  0.088796  4e-06  1.00174  0.0
H  H156  1  0.27765141  0.27042378  0.81537513  1  0.025871  -1e-05  0.081484  0.072627  -1.1e-05  1.012564  0.0
H  H157  1  0.22245375  0.77043708  0.31553220  1  0.026983  -1e-05  0.081608  0.072881  -1.1e-05  1.012866  0.0
H  H158  1  0.77765696  0.27047022  0.68451311  1  0.027182  -1e-05  0.081648  0.072828  -1.1e-05  1.01191  0.0
H  H159  1  0.72235234  0.77044442  0.18468350  1  0.026133  -8e-06  0.081508  0.072399  -1e-05  1.012277  0.0
H  H160  1  0.21532261  0.31638728  0.86929998  1  0.03183  2e-06  0.086362  0.076881  -5e-06  0.978644  0.0
H  H161  1  0.28477948  0.81658044  0.36927890  1  0.030255  2e-06  0.086531  0.076902  -5e-06  0.9788  0.0
H  H162  1  0.71532469  0.31638583  0.63064809  1  0.031313  1.8e-05  0.086392  0.076942  7e-06  0.97868  0.0
H  H163  1  0.78479213  0.81641903  0.13090304  1  0.032499  4e-06  0.086155  0.07653  -5e-06  0.978953  0.0
H  H164  1  0.17051283  0.23466947  0.73998966  1  -0.022505  2e-06  0.081074  0.071432  -1.8e-05  1.006026  0.0
H  H165  1  0.32961379  0.73479969  0.23999197  1  -0.021562  2e-06  0.081069  0.071407  -1.8e-05  1.00585  0.0
H  H166  1  0.67051171  0.23474352  0.75995118  1  -0.021674  2e-06  0.081099  0.071501  -1.7e-05  1.005794  0.0
H  H167  1  0.82938021  0.73482785  0.26026544  1  -0.024584  1.6e-05  0.081109  0.071639  -8e-06  1.005007  0.0
H  H168  1  0.10732773  0.27541312  0.79692088  1  0.035504  4e-06  0.083838  0.080483  5e-06  1.016101  0.0
H  H169  1  0.39276708  0.77557602  0.29690040  1  0.033047  3e-06  0.083825  0.079991  5e-06  1.016161  0.0
H  H170  1  0.60732672  0.27543180  0.70307379  1  0.035152  4e-06  0.083797  0.080326  6e-06  1.016339  0.0
H  H171  1  0.89264503  0.77553405  0.20341441  1  0.035429  4e-06  0.0837  0.080205  3e-06  1.015884  0.0
H  H172  1  0.21355067  0.15314289  0.83235842  1  -0.030647  -3.3e-05  0.080497  0.067453  -3.1e-05  0.995103  0.0
H  H173  1  0.28647502  0.65331313  0.33240277  1  -0.028555  -3.3e-05  0.080552  0.067683  -3.1e-05  0.995156  0.0
H  H174  1  0.71358954  0.15317249  0.66751003  1  -0.03035  -3.1e-05  0.08062  0.067658  -2.9e-05  0.994858  0.0
H  H175  1  0.78648861  0.65317644  0.16784987  1  -0.029795  -3.2e-05  0.080496  0.067597  -3e-05  0.994576  0.0
H  H176  1  0.15571481  0.19666823  0.89232668  1  8.5e-05  -4e-06  0.084335  0.073773  -2e-06  0.983347  0.0
H  H177  1  0.34432587  0.69683061  0.39233328  1  -0.0012  -4e-06  0.08438  0.074041  -1e-06  0.983526  0.0
H  H178  1  0.65572378  0.19663444  0.60761149  1  -0.000687  -2e-06  0.084361  0.073714  -1e-06  0.983424  0.0
H  H179  1  0.84434092  0.69670448  0.10792384  1  0.002881  -2e-06  0.084405  0.073919  -0.0  0.983311  0.0
H  H180  1  0.04148734  0.15984679  0.82609456  1  0.039745  -9e-06  0.08316  0.077887  -5e-06  0.987549  0.0
H  H181  1  0.45854471  0.65992928  0.32604874  1  0.040057  -1e-05  0.083178  0.077978  -6e-06  0.987401  0.0
H  H182  1  0.54152226  0.15982604  0.67394385  1  0.040515  -9e-06  0.083266  0.078006  -5e-06  0.988078  0.0
H  H183  1  0.95855329  0.65995875  0.17404914  1  0.039338  -9e-06  0.083276  0.077837  -6e-06  0.986887  0.0
H  H184  1  0.09392980  0.08759636  0.85692388  1  -0.033963  3.3e-05  0.080628  0.065715  2.1e-05  0.994022  0.0
H  H185  1  0.40601486  0.58771882  0.35692152  1  -0.033218  3.1e-05  0.080526  0.065489  2e-05  0.994296  0.0
H  H186  1  0.59398350  0.08757062  0.64303277  1  -0.034827  3.3e-05  0.080628  0.06582  2.2e-05  0.994131  0.0
H  H187  1  0.90602983  0.58763190  0.14338023  1  -0.031883  3.1e-05  0.080653  0.065652  2e-05  0.994413  0.0
H  H188  1  0.09949308  0.14457025  0.70986294  1  -0.018913  -9.2e-05  0.079756  0.06607  -0.000113  1.020748  0.0
H  H189  1  0.40056078  0.64465530  0.20985184  1  -0.021002  -9.2e-05  0.079819  0.066079  -0.000112  1.020688  0.0
H  H190  1  0.59957599  0.14463570  0.79011586  1  -0.018519  -9.3e-05  0.079872  0.066122  -0.000113  1.020982  0.0
H  H191  1  0.90094604  0.64493847  0.29039466  1  0.02448  -9e-05  0.080223  0.066429  -0.000116  1.019807  0.0
H  H192  1  0.15397125  0.07436999  0.74101972  1  -0.003643  1.1e-05  0.079191  0.062273  8e-06  1.017135  0.0
H  H193  1  0.34599267  0.57450680  0.24105386  1  -0.003489  1.1e-05  0.079073  0.062126  8e-06  1.01727  0.0
H  H194  1  0.65406244  0.07443502  0.75887049  1  -0.005359  1.1e-05  0.07922  0.062569  7e-06  1.017244  0.0
H  H195  1  0.84608322  0.57484662  0.25942969  1  -0.00098  1.2e-05  0.078952  0.061956  6e-06  1.01646  0.0
H  H196  1  0.04072208  0.02987892  0.67897666  1  0.002147  4.6e-05  0.078625  0.102333  2.4e-05  1.03526  0.0
H  H197  1  0.45920239  0.52993567  0.17897257  1  0.001782  4.5e-05  0.078587  0.102371  2.3e-05  1.034871  0.0
H  H198  1  0.54086741  0.02994145  0.82099096  1  0.002474  4.5e-05  0.078636  0.102286  2.3e-05  1.035003  0.0
H  H199  1  0.95930737  0.53003839  0.32116257  1  0.000754  4.7e-05  0.078772  0.102872  2.5e-05  1.034314  0.0
H  H200  1  0.98148343  0.07751108  0.73536384  1  0.024891  -4.4e-05  0.079518  0.102334  -4.1e-05  1.0481  0.0
H  H201  1  0.51848298  0.57751406  0.23534519  1  0.024561  -4.6e-05  0.079587  0.102556  -4.3e-05  1.047634  0.0
H  H202  1  0.48157775  0.07752309  0.76470111  1  0.025411  -4.5e-05  0.079541  0.102415  -4.1e-05  1.047956  0.0
H  H203  1  0.01860026  0.57745159  0.26466605  1  0.024121  -4e-05  0.079767  0.103031  -3.6e-05  1.047216  0.0
H  H204  1  0.03525923  0.00545718  0.76670122  1  -0.000472  -4.1e-05  0.081494  0.107967  -2.4e-05  1.012485  0.0
H  H205  1  0.46459281  0.50550696  0.26669410  1  0.000839  -4.3e-05  0.081746  0.108277  -2.6e-05  1.0122  0.0
H  H206  1  0.53536799  0.00548208  0.73325564  1  -0.000468  -4.4e-05  0.081571  0.108014  -2.7e-05  1.012228  0.0
H  H207  1  0.96445962  0.50555090  0.23340735  1  0.001732  -4.2e-05  0.081591  0.108102  -2.6e-05  1.012549  0.0
H  H208  1  0.69000477  0.10977604  0.94518218  1  0.082179  0.001646  0.116497  0.085441  0.000333  1.009289  0.001
H  H209  1  0.80821857  0.61032820  0.44632408  1  0.096737  0.001663  0.115561  0.084317  0.000501  1.011961  0.001
H  H210  1  0.18994496  0.10983733  0.55474759  1  0.081187  0.001644  0.11638  0.085459  0.000334  1.00928  0.001
H  H211  1  0.30986415  0.60993455  0.05474893  1  0.085365  0.001643  0.116546  0.085531  0.000333  1.009445  0.001
H  H212  1  0.76155187  0.04328133  0.85602849  1  0.058046  0.001013  0.109489  0.111591  0.000452  1.011329  0.0
H  H213  1  0.73827799  0.54412400  0.35605798  1  0.074029  0.001095  0.110013  0.112216  0.000495  1.010864  0.001
H  H214  1  0.26138688  0.04328540  0.64380271  1  0.058014  0.001012  0.109782  0.111523  0.000452  1.011722  0.0
H  H215  1  0.23845620  0.54341823  0.14390570  1  0.060415  0.001008  0.10962  0.111801  0.00045  1.011778  0.0
H  H216  1  0.85583966  0.10935328  0.78380499  1  0.113266  -0.000149  0.108962  0.10192  -0.00022  1.036207  0.0
H  H217  1  0.64451545  0.61022216  0.28333958  1  0.105014  -0.000149  0.108612  0.101619  -0.000216  1.037076  0.0
H  H218  1  0.35570245  0.10926384  0.71606590  1  0.114257  -0.000146  0.108819  0.101776  -0.000218  1.036374  0.0
H  H219  1  0.14425481  0.60942196  0.21630203  1  0.112568  -0.000147  0.10887  0.102009  -0.000218  1.036502  0.0
H  H220  1  0.79368350  0.29712650  0.89513678  1  0.112671  0.002084  0.114611  0.081067  0.000704  1.040538  0.001
H  H221  1  0.70412033  0.79750162  0.39665093  1  0.057895  0.001853  0.115168  0.081715  0.000422  1.0405  0.001
H  H222  1  0.29369936  0.29711159  0.60500892  1  0.116138  0.002084  0.114663  0.081214  0.000701  1.040473  0.001
H  H223  1  0.20618327  0.79723296  0.10506084  1  0.116732  0.00208  0.114466  0.080818  0.000699  1.039969  0.001
H  H224  1  0.88743304  0.34313783  0.85723817  1  0.080982  1.9e-05  0.107426  0.120124  -1.3e-05  1.006664  0.0
H  H225  1  0.61180108  0.84384060  0.35705861  1  0.080074  -6e-06  0.10753  0.119991  -2e-05  1.006907  0.0
H  H226  1  0.38738947  0.34304730  0.64291083  1  0.082925  1.9e-05  0.107795  0.120327  -1.3e-05  1.006746  0.0
H  H227  1  0.11209004  0.84296421  0.14288517  1  0.082597  1.6e-05  0.107781  0.12001  -1.4e-05  1.006495  0.0
C  C228  1  0.91674078  0.88585271  0.56356262  1  0.45295  -0.00599  0.044724  0.09071  -0.00655  3.927843  -0.004
C  C229  1  0.58510791  0.38654084  0.06468938  1  0.503512  -0.006114  0.043852  0.089796  -0.006658  3.929198  -0.004
C  C230  1  0.41515238  0.88643022  0.93516818  1  0.503093  -0.006107  0.04456  0.090019  -0.006643  3.929015  -0.004
C  C231  1  0.08508991  0.38653351  0.43531929  1  0.505493  -0.006095  0.044202  0.090337  -0.006636  3.928909  -0.004
C  C232  1  0.97135082  0.91574499  0.60531869  1  0.019464  0.004736  -0.084078  -0.125448  0.002348  4.001074  0.004
C  C233  1  0.52999417  0.41627975  0.10602313  1  -0.051717  0.005054  -0.08289  -0.124206  0.00252  4.001435  0.004
C  C234  1  0.47027761  0.91610563  0.89381873  1  -0.043574  0.00504  -0.082991  -0.123522  0.002513  4.000136  0.004
C  C235  1  0.03000519  0.41623733  0.39399326  1  -0.042925  0.00505  -0.082834  -0.123795  0.002518  4.000683  0.004
C  C236  1  0.00016581  0.87682430  0.65955245  1  -0.044376  -0.009287  -0.060366  -0.063833  -0.009712  3.936288  -0.006
C  C237  1  0.50056567  0.37717503  0.15987408  1  -0.016282  -0.009544  -0.061387  -0.064428  -0.009993  3.937645  -0.006
C  C238  1  0.49964853  0.87694021  0.83993964  1  -0.029001  -0.009522  -0.061184  -0.064599  -0.009967  3.937363  -0.006
C  C239  1  0.00059784  0.37706415  0.34015062  1  -0.024117  -0.009519  -0.061382  -0.064425  -0.009962  3.937726  -0.006
C  C240  1  0.97207587  0.80881589  0.67164940  1  -0.014675  0.003786  -0.000991  -0.001401  0.001914  3.978974  0.003
C  C241  1  0.52869263  0.30922945  0.17213189  1  -0.038839  0.004206  -0.000479  -0.001378  0.002108  3.980854  0.003
C  C242  1  0.47147339  0.80898555  0.82767958  1  -0.046693  0.004207  -0.000688  -0.001377  0.002107  3.978522  0.003
C  C243  1  0.02871345  0.30909169  0.32789400  1  -0.039646  0.004203  -0.00039  -0.001634  0.002109  3.980761  0.003
C  C244  1  0.91658144  0.78336968  0.62749965  1  0.42949  -0.00553  0.048371  0.043518  -0.006235  3.905975  -0.004
C  C245  1  0.58464734  0.28391457  0.12837136  1  0.443705  -0.005823  0.048983  0.044695  -0.006398  3.904648  -0.004
C  C246  1  0.41547839  0.78376073  0.87145301  1  0.462301  -0.005812  0.048706  0.044493  -0.006375  3.903233  -0.004
C  C247  1  0.08464422  0.28383174  0.37165087  1  0.445794  -0.0058  0.048963  0.04494  -0.006373  3.90472  -0.004
C  C248  1  0.00080070  0.76556067  0.72896286  1  0.49771  0.000421  0.116945  0.205946  0.000209  4.06162  0.0
C  C249  1  0.49951667  0.26591704  0.22920285  1  0.498031  0.00039  0.116983  0.206845  0.000174  4.063166  0.0
C  C250  1  0.50053493  0.76557838  0.77056239  1  0.538736  0.000378  0.117423  0.207125  0.000164  4.062459  0.0
C  C251  1  0.99957231  0.26570766  0.27081865  1  0.49648  0.000398  0.117326  0.206869  0.000179  4.062091  0.0
C  C252  1  0.98983087  0.69255131  0.73165615  1  -0.038745  0.000748  -0.077844  -0.208926  0.000379  3.898286  0.0
C  C253  1  0.51028655  0.19289030  0.23174015  1  -0.034316  0.000888  -0.077608  -0.209611  0.000449  3.901424  0.001
C  C254  1  0.48971921  0.69254309  0.76809907  1  -0.03584  0.000925  -0.077851  -0.210253  0.000469  3.900143  0.001
C  C255  1  0.01036525  0.19267771  0.26825008  1  -0.036836  0.000881  -0.078048  -0.210048  0.000442  3.900448  0.001
C  C256  1  0.02009230  0.65341102  0.78587063  1  0.01515  -0.000265  0.014928  0.150388  -0.000287  3.990061  0.0
C  C257  1  0.47978671  0.15371425  0.28583354  1  0.02063  -0.00027  0.014592  0.149911  -0.000294  3.992859  0.0
C  C258  1  0.51992962  0.65327994  0.71389404  1  0.010948  -0.000289  0.01528  0.151711  -0.000319  3.990383  0.0
C  C259  1  0.97990954  0.15342535  0.21416980  1  0.017807  -0.000269  0.015275  0.151141  -0.0003  3.989528  0.0
C  C260  1  0.06310056  0.68942854  0.83449123  1  0.007787  0.00078  -0.08161  -0.219467  0.000403  3.881728  0.0
C  C261  1  0.43674043  0.18968623  0.33447206  1  0.001008  0.000866  -0.08154  -0.21911  0.000449  3.882613  0.001
C  C262  1  0.56272491  0.68917901  0.66505208  1  0.015331  0.000861  -0.082524  -0.22114  0.000447  3.883322  0.001
C  C263  1  0.93686361  0.18935396  0.16555369  1  -0.036214  0.000874  -0.081734  -0.21961  0.00045  3.881581  0.001
C  C264  1  0.07085448  0.76302692  0.82852257  1  0.514474  0.000306  0.120822  0.214724  0.000106  4.039514  0.0
C  C265  1  0.42911685  0.26330653  0.32860049  1  0.515881  0.000292  0.120956  0.214909  9.4e-05  4.041412  0.0
C  C266  1  0.57045493  0.76280072  0.67086124  1  0.521142  0.000285  0.121331  0.215782  0.000103  4.04103  0.0
C  C267  1  0.92921333  0.26298544  0.17143586  1  0.516105  0.000296  0.120754  0.214148  9.7e-05  4.040336  0.0
C  C268  1  0.11398569  0.80532024  0.87853488  1  0.007866  0.004071  0.001202  0.005101  0.002073  3.9734  0.003
C  C269  1  0.38595440  0.30556485  0.37861334  1  -0.023806  0.00404  0.001383  0.004346  0.002068  3.975105  0.003
C  C270  1  0.61338947  0.80496689  0.62061340  1  -0.051686  0.004215  0.001628  0.004647  0.00215  3.975045  0.003
C  C271  1  0.88605801  0.30523448  0.12145080  1  0.00846  0.004068  0.001105  0.00504  0.002072  3.973481  0.003
C  C272  1  0.09627182  0.87640665  0.89045338  1  -0.10586  -0.008114  -0.060573  -0.062717  -0.008492  3.936088  -0.005
C  C273  1  0.40364234  0.37666597  0.39052941  1  -0.080351  -0.008125  -0.06027  -0.061573  -0.008484  3.934744  -0.005
C  C274  1  0.59610359  0.87624284  0.60926461  1  -0.0486  -0.009215  -0.061372  -0.063195  -0.00966  3.935793  -0.006
C  C275  1  0.90380052  0.37631632  0.10955412  1  -0.1036  -0.008073  -0.060768  -0.062536  -0.008451  3.936299  -0.005
C  C276  1  0.13988014  0.91479447  0.93620315  1  0.02211  0.004446  -0.082621  -0.129238  0.002252  4.008154  0.003
C  C277  1  0.35999885  0.41500392  0.43629988  1  0.007983  0.004433  -0.08323  -0.129618  0.00225  4.009345  0.003
C  C278  1  0.63944896  0.91455551  0.56326532  1  0.004985  0.0049  -0.081958  -0.127936  0.002436  4.007933  0.004
C  C279  1  0.86019867  0.41468221  0.06383262  1  0.021307  0.004439  -0.082529  -0.129537  0.002246  4.008803  0.003
C  C280  1  0.20043894  0.88193627  0.96802930  1  0.480249  -0.005273  0.042579  0.080405  -0.005826  3.948399  -0.003
C  C281  1  0.29946641  0.38208708  0.46816782  1  0.480464  -0.005261  0.042486  0.079704  -0.00582  3.949863  -0.003
C  C282  1  0.69949397  0.88149612  0.53076866  1  0.467071  -0.005943  0.041523  0.077791  -0.006358  3.947965  -0.004
C  C283  1  0.79962441  0.38180631  0.03199850  1  0.480001  -0.005249  0.04283  0.080738  -0.0058  3.948193  -0.003
C  C284  1  0.17549070  0.77669946  0.91303662  1  0.498212  -0.005023  0.049791  0.048797  -0.005566  3.896282  -0.003
C  C285  1  0.32447540  0.27687893  0.41316081  1  0.474297  -0.005007  0.049354  0.048363  -0.005559  3.896545  -0.003
C  C286  1  0.67426151  0.77607420  0.58530984  1  0.518003  -0.005662  0.04962  0.048986  -0.00628  3.894849  -0.004
C  C287  1  0.82454509  0.27659541  0.08692999  1  0.497378  -0.004994  0.050214  0.049874  -0.005535  3.895047  -0.003
C  C288  1  0.93015396  0.55281023  0.78708029  1  0.494072  -1.7e-05  0.074575  0.200652  -3.4e-05  4.075662  0.0
C  C289  1  0.56964016  0.05316268  0.28678533  1  0.490852  -1.7e-05  0.074305  0.200383  -2.6e-05  4.076831  0.0
C  C290  1  0.43003273  0.55268890  0.71292345  1  0.498384  2.5e-05  0.0753  0.201359  -3e-06  4.074672  0.0
C  C291  1  0.06981394  0.05282705  0.21305555  1  0.494706  0.000158  0.074992  0.200573  6.8e-05  4.07555  0.0
C  C292  1  0.00508338  0.57666165  0.78908575  1  0.008881  0.000109  -0.019441  -0.021556  6e-05  3.993002  0.0
C  C293  1  0.49470735  0.07697855  0.28890178  1  0.073287  4.8e-05  -0.01925  -0.020925  2.5e-05  3.992937  0.0
C  C294  1  0.50495849  0.57653096  0.71084303  1  0.057564  6.8e-05  -0.019653  -0.022497  2.6e-05  3.994157  0.0
C  C295  1  0.99488419  0.07666366  0.21109277  1  0.005576  6.8e-05  -0.019565  -0.021917  2.5e-05  3.992999  0.0
C  C296  1  0.06361356  0.52750269  0.78990516  1  0.053557  -2.7e-05  -0.108518  -0.246144  -7.7e-05  4.009082  0.0
C  C297  1  0.43612173  0.02785371  0.28968442  1  -0.005514  -8e-06  -0.109075  -0.246362  -6e-05  4.008771  0.0
C  C298  1  0.56350582  0.52739797  0.71010230  1  0.001071  0.000153  -0.108554  -0.246726  5.5e-05  4.009736  0.0
C  C299  1  0.93635374  0.02748035  0.21050476  1  0.053544  0.000321  -0.108407  -0.244841  0.000202  4.007167  0.0
C  C300  1  0.79952997  0.58258583  0.77502860  1  0.33523  0.000652  -0.071869  0.032786  0.000349  3.885594  0.001
C  C301  1  0.70029894  0.08284913  0.27471306  1  0.372044  0.000178  -0.072205  0.031905  6.5e-05  3.884437  0.0
C  C302  1  0.29940897  0.58257896  0.72505483  1  0.335059  0.000609  -0.071672  0.032533  0.000308  3.885464  0.0
C  C303  1  0.20045504  0.08266015  0.22507929  1  0.333279  0.000604  -0.071301  0.03374  0.000307  3.885006  0.0
C  C304  1  0.75419612  0.64977207  0.76701623  1  0.011657  0.000113  -0.169031  -0.173641  7.6e-05  3.949664  0.0
C  C305  1  0.74577225  0.14998948  0.26689085  1  0.026016  -1.4e-05  -0.16946  -0.174388  -4.8e-05  3.949384  0.0
C  C306  1  0.25412590  0.64981505  0.73295928  1  0.009839  -4e-06  -0.169432  -0.174195  -3.9e-05  3.950154  0.0
C  C307  1  0.24580111  0.14987089  0.23297572  1  0.00884  -3e-06  -0.169703  -0.175258  -3.8e-05  3.950653  0.0
C  C308  1  0.75062442  0.69428449  0.83233428  1  -0.020614  3.2e-05  -0.168502  -0.141663  1.8e-05  3.952816  0.0
C  C309  1  0.74931190  0.19433300  0.33232227  1  -0.02247  1.6e-05  -0.168426  -0.141018  1.6e-05  3.952017  0.0
C  C310  1  0.25071206  0.69418556  0.66758792  1  -0.027789  4.4e-05  -0.168384  -0.141383  3.1e-05  3.952588  0.0
C  C311  1  0.24935026  0.19421136  0.16759281  1  -0.03197  4.4e-05  -0.168382  -0.141335  3.1e-05  3.952513  0.0
C  C312  1  0.71225718  0.76588915  0.82257931  1  -0.000147  -1.3e-05  -0.168479  -0.142293  -2.3e-05  3.95008  0.0
C  C313  1  0.78766851  0.26599090  0.32273601  1  -0.002122  -1.4e-05  -0.168472  -0.141879  -1.9e-05  3.949928  0.0
C  C314  1  0.21238196  0.76584737  0.67722498  1  -0.001884  -1.2e-05  -0.168421  -0.141944  -1.9e-05  3.950033  0.0
C  C315  1  0.28771379  0.26586192  0.17724389  1  -0.002927  -1.2e-05  -0.168269  -0.141432  -1.9e-05  3.949194  0.0
C  C316  1  0.75552610  0.81628124  0.77572067  1  -0.02259  -3.7e-05  -0.168939  -0.136022  -4.9e-05  3.935801  0.0
C  C317  1  0.74440576  0.31646896  0.27601372  1  -0.025342  -5.1e-05  -0.169173  -0.136112  -6.3e-05  3.935619  0.0
C  C318  1  0.25562558  0.81635314  0.72400698  1  -0.027211  -4.8e-05  -0.169122  -0.136289  -6.2e-05  3.936191  0.0
C  C319  1  0.24442856  0.31636383  0.22401625  1  -0.027068  -4.9e-05  -0.169119  -0.136457  -6.2e-05  3.935838  0.0
C  C320  1  0.72139077  0.89026163  0.77198838  1  -0.013349  -2.4e-05  -0.16989  -0.148659  -3.4e-05  3.950131  0.0
C  C321  1  0.77868230  0.39039087  0.27224165  1  -0.008996  -2.1e-05  -0.169756  -0.14826  -2.9e-05  3.950144  0.0
C  C322  1  0.22140289  0.89029599  0.72777265  1  -0.00887  -2.2e-05  -0.169953  -0.148748  -3.2e-05  3.950466  0.0
C  C323  1  0.27865751  0.39031424  0.22777236  1  -0.009425  -2.2e-05  -0.169859  -0.148837  -3.1e-05  3.950451  0.0
C  C324  1  0.76460420  0.94126601  0.72558320  1  -0.021354  -4.4e-05  -0.17079  -0.095943  -6.3e-05  3.972996  0.0
C  C325  1  0.73557017  0.44143102  0.22584524  1  0.022656  -4.4e-05  -0.171333  -0.096244  -6.6e-05  3.972558  0.0
C  C326  1  0.26453409  0.94136522  0.77418808  1  -0.0267  -4.7e-05  -0.17112  -0.096081  -6.7e-05  3.973669  0.0
C  C327  1  0.23549506  0.44137752  0.27418631  1  -0.026101  -4.7e-05  -0.171409  -0.096363  -6.7e-05  3.973422  0.0
C  C328  1  0.84444842  0.95630349  0.74974110  1  -0.053565  1.3e-05  -0.251796  -0.358216  -1.4e-05  3.970016  0.0
C  C329  1  0.65580554  0.45669703  0.25014841  1  -0.095711  2.1e-05  -0.251604  -0.356816  -1.4e-05  3.9691  0.0
C  C330  1  0.34434428  0.95652025  0.74996252  1  -0.099549  1.5e-05  -0.251685  -0.357402  -1.6e-05  3.969507  0.0
C  C331  1  0.15571825  0.45653391  0.24994819  1  -0.100465  1.6e-05  -0.251668  -0.357228  -1.6e-05  3.969207  0.0
C  C332  1  0.03847860  0.16353425  0.51003802  1  0.464463  -0.006115  0.044571  0.083264  -0.006618  3.937137  -0.004
C  C333  1  0.46155647  0.66356077  0.01000952  1  0.465404  -0.006095  0.044388  0.083605  -0.006583  3.936596  -0.004
C  C334  1  0.53836677  0.16359762  0.98992459  1  0.466507  -0.006109  0.044068  0.082892  -0.006598  3.936679  -0.004
C  C335  1  0.96242559  0.66404174  0.49082666  1  0.481805  -0.005801  0.044654  0.084252  -0.006357  3.934263  -0.004
C  C336  1  0.97274006  0.13617004  0.53815388  1  -0.023394  0.005525  -0.08488  -0.13078  0.00277  3.997057  0.004
C  C337  1  0.52729884  0.63627596  0.03813150  1  -0.046001  0.005498  -0.085193  -0.131133  0.002763  3.996361  0.004
C  C338  1  0.47263242  0.13623184  0.96182877  1  -0.029278  0.005509  -0.084848  -0.130375  0.002764  3.996135  0.004
C  C339  1  0.02798569  0.63643204  0.46252539  1  -0.080197  0.005165  -0.085167  -0.130621  0.002588  3.993874  0.004
C  C340  1  0.94575643  0.16405404  0.59947528  1  -0.017565  -0.00964  -0.060837  -0.061902  -0.010097  3.923116  -0.006
C  C341  1  0.55422041  0.66421801  0.09943887  1  -0.034541  -0.009615  -0.060159  -0.061171  -0.010078  3.923298  -0.006
C  C342  1  0.44569007  0.16406383  0.90051807  1  -0.017297  -0.009636  -0.060652  -0.06169  -0.010098  3.922232  -0.006
C  C343  1  0.05499500  0.66424551  0.40119140  1  -0.079907  -0.008954  -0.060816  -0.061408  -0.009374  3.923843  -0.005
C  C344  1  0.98607831  0.21837582  0.63143758  1  -0.046596  0.004178  0.002205  0.005934  0.002134  3.974052  0.003
C  C345  1  0.51384916  0.71853485  0.13135870  1  -0.009879  0.004173  0.001921  0.005184  0.00213  3.974664  0.003
C  C346  1  0.48604352  0.21834410  0.86854368  1  -0.046641  0.00419  0.001983  0.005482  0.002139  3.973755  0.003
C  C347  1  0.01490730  0.71880086  0.36943169  1  0.031424  0.003933  0.001381  0.003743  0.002009  3.977758  0.003
C  C348  1  0.05280083  0.24048497  0.60065985  1  0.494988  -0.006095  0.050692  0.04535  -0.006725  3.90583  -0.004
C  C349  1  0.44712070  0.74054910  0.10058289  1  0.492197  -0.006076  0.050754  0.045335  -0.006706  3.905407  -0.004
C  C350  1  0.55275899  0.24046791  0.89931260  1  0.494488  -0.006098  0.051206  0.046094  -0.006726  3.904755  -0.004
C  C351  1  0.94843776  0.74119115  0.40047403  1  0.504403  -0.00529  0.050435  0.046877  -0.005885  3.907232  -0.004
C  C352  1  0.96020489  0.25364875  0.69467118  1  0.510115  0.000299  0.121006  0.212616  9.5e-05  4.043449  0.0
C  C353  1  0.53963257  0.75393798  0.19454131  1  0.51777  0.000295  0.121263  0.213397  9.2e-05  4.044549  0.0
C  C354  1  0.46016743  0.25357717  0.80533705  1  0.563402  0.0003  0.120985  0.212787  9.7e-05  4.042947  0.0
C  C355  1  0.04051780  0.75395228  0.30606648  1  0.479545  0.000358  0.121333  0.213543  0.000134  4.044622  0.0
C  C356  1  0.98287665  0.32292185  0.70891836  1  -0.015856  0.000998  -0.075424  -0.208692  0.000513  3.886448  0.001
C  C357  1  0.51698338  0.82326304  0.20854282  1  -0.02541  0.00095  -0.075848  -0.209444  0.000488  3.887973  0.001
C  C358  1  0.48281471  0.32286032  0.79115309  1  -0.070505  0.001004  -0.076033  -0.209781  0.000517  3.887866  0.001
C  C359  1  0.01767833  0.82315379  0.29178282  1  0.02823  0.000891  -0.075692  -0.209294  0.00045  3.886697  0.001
C  C360  1  0.95612431  0.35658144  0.76774278  1  0.001907  -0.000332  0.014423  0.148846  -0.000356  4.005836  0.0
C  C361  1  0.54353871  0.85701075  0.26737074  1  0.039652  -0.000336  0.014981  0.149089  -0.000361  4.008484  0.0
C  C362  1  0.45605437  0.35649624  0.73237357  1  0.002164  -0.000329  0.014697  0.148866  -0.000355  4.007115  0.0
C  C363  1  0.04397370  0.85663740  0.23273226  1  -0.05563  -0.000325  0.014789  0.148152  -0.000355  4.007737  0.0
C  C364  1  0.97433271  0.43153118  0.78034353  1  0.032595  -1.9e-05  -0.020547  -0.023703  -2.2e-05  4.008218  0.0
C  C365  1  0.52538101  0.93194989  0.27987474  1  0.010193  -3.5e-05  -0.020451  -0.023167  -3.8e-05  4.01112  0.0
C  C366  1  0.47423813  0.43143793  0.71979302  1  0.032686  -1e-06  -0.020224  -0.023508  -9e-06  4.00827  0.0
C  C367  1  0.02564239  0.93153785  0.22008570  1  0.033353  0.000157  -0.02076  -0.024182  6.8e-05  4.00946  0.0
C  C368  1  0.91567483  0.48040947  0.78451946  1  -0.078096  2.9e-05  -0.111895  -0.25569  2e-06  4.02227  0.0
C  C369  1  0.58407301  0.98077823  0.28409046  1  -0.077805  2.3e-05  -0.111622  -0.255827  1.1e-05  4.02268  0.0
C  C370  1  0.41556700  0.48029487  0.71557415  1  -0.081529  8.7e-05  -0.111888  -0.255401  4.2e-05  4.020572  0.0
C  C371  1  0.08427863  0.98043299  0.21572125  1  -0.079932  0.000172  -0.112307  -0.255658  7.9e-05  4.022275  0.0
C  C372  1  0.04915269  0.45511560  0.78330879  1  0.488226  9.3e-05  0.076189  0.19819  4e-05  4.067115  0.0
C  C373  1  0.45056836  0.95548661  0.28293198  1  0.485865  2.6e-05  0.075105  0.19687  -1e-06  4.06894  0.0
C  C374  1  0.54905767  0.45502567  0.71681570  1  0.490807  0.000145  0.075803  0.197322  5.5e-05  4.068053  0.0
C  C375  1  0.95081362  0.95510590  0.21721421  1  0.48925  0.000367  0.076397  0.197523  0.000224  4.06582  0.0
C  C376  1  0.17989198  0.42585288  0.78581798  1  0.362411  0.00025  -0.072669  0.029681  0.000149  3.890315  0.0
C  C377  1  0.31985570  0.92602575  0.28563740  1  0.365903  0.000253  -0.073831  0.0278  0.000151  3.893078  0.0
C  C378  1  0.67979473  0.42586507  0.71426090  1  0.360788  0.000341  -0.072793  0.028788  0.000196  3.891191  0.0
C  C379  1  0.82005064  0.92590554  0.21463390  1  0.354945  0.000446  -0.073486  0.027491  0.000282  3.890992  0.0
C  C380  1  0.23182178  0.36466606  0.76988378  1  1.9e-05  2.3e-05  -0.169552  -0.177943  1.1e-05  3.946254  0.0
C  C381  1  0.26805242  0.86470578  0.26983549  1  0.001666  2.2e-05  -0.168819  -0.176166  1e-05  3.946138  0.0
C  C382  1  0.73180204  0.36473619  0.73006813  1  -0.00037  4.4e-05  -0.169215  -0.177596  -2e-06  3.945745  0.0
C  C383  1  0.76802365  0.86472793  0.23032612  1  0.013203  4.5e-05  -0.168568  -0.177096  1.9e-05  3.946548  0.0
C  C384  1  0.22414940  0.29942258  0.81580080  1  -0.046167  1.2e-05  -0.167033  -0.132465  -1e-06  3.937232  0.0
C  C385  1  0.27590536  0.79953392  0.31581677  1  -0.046926  1.1e-05  -0.167367  -0.133478  -1e-06  3.937449  0.0
C  C386  1  0.72414561  0.29945875  0.68413310  1  -0.04693  1e-05  -0.167  -0.132658  -2e-06  3.93683  0.0
C  C387  1  0.77584887  0.79947719  0.18437800  1  -0.031441  3.1e-05  -0.166838  -0.131737  8e-06  3.937315  0.0
C  C388  1  0.16190339  0.24859680  0.79428856  1  0.025109  -2e-06  -0.172898  -0.145267  -5e-06  3.940684  0.0
C  C389  1  0.33818559  0.74874912  0.29428463  1  0.026668  -2e-06  -0.172902  -0.143949  -6e-06  3.93946  0.0
C  C390  1  0.66191075  0.24863437  0.70566529  1  0.025377  -1e-06  -0.172839  -0.145079  -4e-06  3.940611  0.0
C  C391  1  0.83806463  0.74869750  0.20597585  1  0.009624  5e-06  -0.172817  -0.145316  1e-06  3.940672  0.0
C  C392  1  0.15983076  0.18158426  0.83787567  1  0.010333  -9e-06  -0.167589  -0.14352  -1.6e-05  3.974317  0.0
C  C393  1  0.34021604  0.68173747  0.33788482  1  0.011498  -9e-06  -0.167729  -0.144552  -1.6e-05  3.974549  0.0
C  C394  1  0.65985695  0.18159233  0.66205360  1  0.009391  -8e-06  -0.167885  -0.143638  -1.5e-05  3.974137  0.0
C  C395  1  0.84019847  0.68165636  0.16236902  1  0.012616  -5e-06  -0.167697  -0.14421  -1.3e-05  3.973737  0.0
C  C396  1  0.09522870  0.13169998  0.81997095  1  0.002052  4e-06  -0.167266  -0.139243  6e-06  3.950327  0.0
C  C397  1  0.40477586  0.63181640  0.31995881  1  -0.004061  3e-06  -0.167229  -0.13887  5e-06  3.949922  0.0
C  C398  1  0.59527603  0.13170005  0.68000165  1  0.003143  3e-06  -0.167202  -0.13929  6e-06  3.951165  0.0
C  C399  1  0.90480801  0.63182817  0.18027635  1  -0.015345  4e-06  -0.167403  -0.138984  6e-06  3.948498  0.0
C  C400  1  0.09972289  0.10136278  0.74754314  1  0.019686  -5.1e-05  -0.172744  -0.093286  -6.9e-05  3.971655  0.0
C  C401  1  0.40027036  0.60145993  0.24754495  1  0.025754  -4.9e-05  -0.172942  -0.093562  -6.7e-05  3.971824  0.0
C  C402  1  0.59980521  0.10141099  0.75241040  1  0.020824  -5e-05  -0.173153  -0.094219  -6.9e-05  3.97271  0.0
C  C403  1  0.90041758  0.60165877  0.25274721  1  -0.014895  -5.9e-05  -0.172659  -0.092925  -8e-05  3.969775  0.0
C  C404  1  0.03591502  0.05066773  0.73129448  1  -0.032718  -1e-05  -0.249456  -0.355128  -5e-05  3.977161  0.0
C  C405  1  0.46401997  0.55071740  0.23128707  1  -0.033087  -1.1e-05  -0.249517  -0.355424  -5e-05  3.976523  0.0
C  C406  1  0.53602146  0.05070649  0.76869245  1  -0.033434  -1e-05  -0.249403  -0.354853  -5e-05  3.976573  0.0
C  C407  1  0.96407430  0.55078049  0.26884282  1  -0.031865  -5e-06  -0.249824  -0.356587  -4.3e-05  3.976668  0.0
C  C408  1  0.73092452  0.13620381  0.91277477  1  0.44667  -0.005594  0.050103  0.094728  -0.006384  3.937223  -0.004
C  C409  1  0.76743329  0.63677944  0.41383393  1  0.516027  -0.005337  0.049199  0.09402  -0.005807  3.937196  -0.003
C  C410  1  0.23086988  0.13623768  0.58717267  1  0.483509  -0.005598  0.050153  0.094358  -0.006357  3.937317  -0.004
C  C411  1  0.26896586  0.63634307  0.08720345  1  0.504513  -0.005594  0.049841  0.094716  -0.006346  3.937151  -0.004
C  C412  1  0.77124772  0.09959748  0.86309787  1  0.021805  0.005085  -0.080969  -0.127178  0.002637  3.999599  0.004
C  C413  1  0.72806199  0.60031490  0.36346137  1  -0.121584  0.005265  -0.081802  -0.128192  0.002682  4.000733  0.004
C  C414  1  0.27113738  0.09959606  0.63679761  1  -0.017947  0.005102  -0.080695  -0.126024  0.002634  3.999372  0.004
C  C415  1  0.22872501  0.59972137  0.13689293  1  -0.036977  0.005096  -0.081233  -0.127597  0.002626  4.000726  0.004
C  C416  1  0.82319862  0.13577505  0.82334208  1  -0.013336  -0.008388  -0.062011  -0.062409  -0.00879  3.922744  -0.005
C  C417  1  0.67641432  0.63649656  0.32345016  1  0.056188  -0.008196  -0.061375  -0.062349  -0.00862  3.92291  -0.005
C  C418  1  0.32310531  0.13572758  0.67657875  1  -0.010342  -0.008353  -0.062166  -0.063015  -0.008753  3.922731  -0.005
C  C419  1  0.17681989  0.63586656  0.17674856  1  -0.011754  -0.008337  -0.061763  -0.062667  -0.008737  3.923594  -0.005
C  C420  1  0.83372402  0.20835842  0.83424930  1  0.026336  0.004603  -0.000396  -0.000631  0.00234  3.971299  0.004
C  C421  1  0.66534395  0.70894504  0.33471884  1  -0.061047  0.004225  -0.000805  0.000672  0.002155  3.968827  0.003
C  C422  1  0.33367250  0.20830863  0.66577424  1  0.027672  0.004593  -0.000302  0.0002  0.002337  3.969496  0.004
C  C423  1  0.16627245  0.70844893  0.16594231  1  0.021225  0.004599  -0.000385  -0.000191  0.002338  3.969649  0.004
C  C424  1  0.79036217  0.24064001  0.88508933  1  0.463316  -0.00527  0.050093  0.05043  -0.005798  3.911366  -0.004
C  C425  1  0.70776598  0.74110597  0.38629285  1  0.549807  -0.005273  0.050848  0.049749  -0.006084  3.912426  -0.004
C  C426  1  0.29035173  0.24062432  0.61497940  1  0.459658  -0.005247  0.049958  0.049406  -0.005777  3.911773  -0.004
C  C427  1  0.20953935  0.74074363  0.11504902  1  0.461293  -0.00524  0.049996  0.049919  -0.005768  3.911089  -0.004
C  C428  1  0.88704567  0.24959132  0.79225938  1  0.492666  0.000359  0.121151  0.213749  0.00012  4.046696  0.0
C  C429  1  0.61236562  0.75008509  0.29235567  1  0.536157  0.000325  0.120617  0.212851  0.000126  4.047601  0.0
C  C430  1  0.38701186  0.24950358  0.70778703  1  0.491295  0.000359  0.120586  0.213309  0.000119  4.045692  0.0
C  C431  1  0.11306196  0.74967897  0.20809975  1  0.494299  0.00038  0.120915  0.213227  0.000138  4.046277  0.0
C  C432  1  0.90802533  0.31856217  0.81044452  1  -0.047883  0.000963  -0.081532  -0.222484  0.000477  3.897258  0.001
C  C433  1  0.59139607  0.81909764  0.31029706  1  -0.046811  0.000916  -0.081387  -0.222326  0.000458  3.899869  0.001
C  C434  1  0.40797496  0.31846857  0.68966456  1  -0.050395  0.000966  -0.081804  -0.222471  0.000476  3.898035  0.001
C  C435  1  0.09182381  0.81853039  0.18984624  1  -0.038856  0.000842  -0.08201  -0.221972  0.000412  3.899259  0.001
C  C436  1  0.83828519  0.90499139  0.41435557  1  0.464057  0.006787  0.136582  0.249904  0.003631  4.353821  0.011
C  C437  1  0.66097152  0.40528478  0.91438337  1  0.46613  0.007682  0.137031  0.250128  0.004431  4.353673  0.012
C  C438  1  0.33904835  0.90542373  0.08547797  1  0.46228  0.007674  0.13706  0.250491  0.004409  4.35333  0.012
C  C439  1  0.16090357  0.40538011  0.58569739  1  0.468966  0.007753  0.136723  0.249623  0.004464  4.354634  0.012
C  C440  1  0.78038268  0.62565937  0.57483092  1  0.462172  0.013813  0.137416  0.253391  0.008646  4.35956  0.017
C  C441  1  0.72113208  0.12597517  0.07408802  1  0.465581  0.012555  0.136325  0.25251  0.007595  4.360021  0.016
C  C442  1  0.27898476  0.62592324  0.92579409  1  0.465363  0.012493  0.136521  0.252675  0.00755  4.360145  0.016
C  C443  1  0.22109083  0.12600433  0.42584529  1  0.442996  0.012669  0.136616  0.252748  0.007564  4.360344  0.016
S  S444  1  0.85166339  0.98630814  0.39312515  1  0.106596  0.045194  -0.179478  -0.330795  0.019511  2.179954  0.027
S  S445  1  0.64538520  0.48595065  0.89221672  1  0.105877  0.047662  -0.177954  -0.327798  0.021625  2.179496  0.028
S  S446  1  0.35453810  0.98613631  0.10763973  1  0.107978  0.047886  -0.177437  -0.32726  0.021719  2.178745  0.028
S  S447  1  0.14539476  0.48608259  0.60785411  1  0.106119  0.047891  -0.177137  -0.326703  0.021716  2.18034  0.028
S  S448  1  0.73932205  0.55127764  0.58730009  1  0.124288  0.06162  -0.181215  -0.338461  0.028351  2.227822  0.035
S  S449  1  0.76506487  0.05312690  0.08690556  1  0.128451  0.056939  -0.182886  -0.341115  0.025578  2.23136  0.032
S  S450  1  0.23540770  0.55287268  0.91289735  1  0.127655  0.056996  -0.182884  -0.341281  0.0256  2.232572  0.033
S  S451  1  0.26474261  0.05299203  0.41297139  1  0.128388  0.05694  -0.182827  -0.341249  0.025586  2.232219  0.032
N  N452  1  0.89015739  0.82007687  0.57380897  1  -1.236947  0.058197  -0.317615  -0.222136  0.031868  3.563848  0.052
N  N453  1  0.61158075  0.32074165  0.07494898  1  -1.223825  0.058518  -0.31708  -0.223533  0.032221  3.560578  0.052
N  N454  1  0.38859036  0.82064974  0.92488801  1  -1.234777  0.058457  -0.316557  -0.222836  0.032168  3.557706  0.052
N  N455  1  0.11156339  0.32072493  0.42505698  1  -1.226232  0.058531  -0.317221  -0.224286  0.032223  3.560261  0.052
N  N456  1  0.03951199  0.80032126  0.77756600  1  -1.178389  0.000961  -0.312408  -0.351873  0.000511  3.317984  0.001
N  N457  1  0.46068873  0.30064443  0.27776497  1  -1.184456  0.001023  -0.312787  -0.352562  0.000545  3.318868  0.001
N  N458  1  0.53920849  0.80020842  0.72185352  1  -1.226083  0.001038  -0.312209  -0.352159  0.000553  3.319222  0.001
N  N459  1  0.96075420  0.30037270  0.22226955  1  -1.181335  0.001028  -0.312237  -0.35141  0.000547  3.318434  0.001
N  N460  1  0.21857300  0.81381738  0.95657810  1  -1.231257  0.056542  -0.311611  -0.228695  0.030863  3.552494  0.051
N  N461  1  0.28137883  0.31395077  0.45673765  1  -1.235577  0.056534  -0.311251  -0.227899  0.030852  3.551966  0.051
N  N462  1  0.71725903  0.81319379  0.54170018  1  -1.218926  0.057088  -0.31233  -0.228339  0.031421  3.555117  0.052
N  N463  1  0.78147350  0.31369430  0.04341252  1  -1.229511  0.056523  -0.312199  -0.23001  0.030858  3.551938  0.051
N  N464  1  0.07821186  0.21497814  0.54099425  1  -1.229352  0.060697  -0.31596  -0.221663  0.033372  3.57931  0.054
N  N465  1  0.42175635  0.71497921  0.04094302  1  -1.229402  0.060618  -0.315791  -0.221626  0.033334  3.578548  0.054
N  N466  1  0.57814068  0.21499579  0.95895755  1  -1.229419  0.060682  -0.315454  -0.221184  0.033357  3.578581  0.054
N  N467  1  0.92296513  0.71576265  0.46011915  1  -1.21555  0.059725  -0.314088  -0.222283  0.032622  3.571976  0.054
N  N468  1  0.74034870  0.20579170  0.92357796  1  -1.220903  0.062968  -0.318423  -0.220829  0.034729  3.586574  0.056
N  N469  1  0.75730509  0.70620045  0.42516158  1  -1.216226  0.062755  -0.318168  -0.219148  0.034668  3.583416  0.056
N  N470  1  0.24034029  0.20582488  0.57645362  1  -1.22219  0.062927  -0.318139  -0.220376  0.034704  3.585902  0.056
N  N471  1  0.25950506  0.70592122  0.07645767  1  -1.222136  0.062931  -0.317527  -0.219601  0.034694  3.58383  0.056
N  N472  1  0.91284746  0.21770476  0.73533225  1  -1.20287  0.001196  -0.311618  -0.35349  0.000636  3.303459  0.001
N  N473  1  0.58679340  0.71807784  0.23540981  1  -1.20877  0.001134  -0.31097  -0.352806  0.000605  3.303097  0.001
N  N474  1  0.41282361  0.21761588  0.76466594  1  -1.201979  0.001202  -0.310974  -0.353026  0.000639  3.30155  0.001
N  N475  1  0.08767439  0.71793846  0.26523860  1  -1.199598  0.001105  -0.310906  -0.352695  0.000589  3.302739  0.001
N  N476  1  0.82859794  0.84543288  0.43266179  1  -1.317899  0.06116  -0.41014  -0.512225  0.033258  3.34427  0.041
N  N477  1  0.67199788  0.34608103  0.93313658  1  -1.316752  0.060005  -0.409768  -0.512375  0.03256  3.341643  0.04
N  N478  1  0.32806906  0.84618758  0.06674293  1  -1.31456  0.060056  -0.410242  -0.513053  0.032598  3.343329  0.04
N  N479  1  0.17188954  0.34613110  0.56697417  1  -1.319979  0.060048  -0.409894  -0.512558  0.032575  3.342345  0.04
N  N480  1  0.80980320  0.68138816  0.56425003  1  -1.324254  0.06128  -0.415193  -0.520859  0.032306  3.351016  0.039
N  N481  1  0.69025723  0.18099569  0.06356315  1  -1.33703  0.062528  -0.415383  -0.520675  0.033095  3.350747  0.04
N  N482  1  0.30961740  0.68106960  0.93635142  1  -1.335727  0.062503  -0.415601  -0.520673  0.033105  3.352862  0.04
N  N483  1  0.19041738  0.18111892  0.43639292  1  -1.313839  0.062334  -0.415881  -0.520976  0.033086  3.352557  0.04
O  O484  1  0.87585879  0.60349758  0.78804036  1  -1.09834  0.000413  -0.183303  -0.202087  0.000189  2.574689  0.0
O  O485  1  0.62397575  0.10381727  0.28774789  1  -1.098197  0.0002  -0.18297  -0.201537  0.000102  2.574455  0.0
O  O486  1  0.37575815  0.60338787  0.71196537  1  -1.095795  0.000446  -0.183531  -0.202215  0.000214  2.574544  0.0
O  O487  1  0.12413261  0.10350431  0.21197755  1  -1.098307  0.000523  -0.183539  -0.202468  0.000252  2.575327  0.0
O  O488  1  0.10307793  0.40412984  0.77869269  1  -1.085507  0.000159  -0.179703  -0.195563  5.6e-05  2.569084  0.0
O  O489  1  0.39668491  0.90445393  0.27831784  1  -1.085274  0.000118  -0.178853  -0.194482  3.6e-05  2.570005  0.0
O  O490  1  0.60300940  0.40409161  0.72150611  1  -1.086542  0.000285  -0.17933  -0.194254  0.00012  2.569532  0.0
O  O491  1  0.89684241  0.90415926  0.22196653  1  -1.089471  0.000349  -0.179253  -0.194299  0.00016  2.567306  0.0
