# generated using pymatgen
data_ZnH22C32(N2O3)2
_symmetry_space_group_name_H-M   'P 1'
_cell_length_a   16.53853112
_cell_length_b   16.54101593
_cell_length_c   25.86074255
_cell_angle_alpha   90.00007719
_cell_angle_beta   89.99991343
_cell_angle_gamma   119.99497423
_symmetry_Int_Tables_number   1
_chemical_formula_structural   ZnH22C32(N2O3)2
_chemical_formula_sum   'Zn6 H132 C192 N24 O36'
_cell_volume   6127.06840233
_cell_formula_units_Z   6
loop_
 _symmetry_equiv_pos_site_id
 _symmetry_equiv_pos_as_xyz
  1  'x, y, z'
loop_
 _atom_site_type_symbol
 _atom_site_label
 _atom_site_symmetry_multiplicity
 _atom_site_fract_x
 _atom_site_fract_y
 _atom_site_fract_z
 _atom_site_occupancy
 _atom_site_pbe_bader_charge
 _atom_site_pbe_bader_spin_density
 _atom_site_pbe_cm5_charge
 _atom_site_pbe_ddec_charge
 _atom_site_pbe_ddec_spin_density
 _atom_site_pbe_ddec_sum_bond_order
 _atom_site_pbe_magmom
Zn  Zn0  1  0.71549085  0.28453939  0.16664890  1  1.24222  0  0.686206  0.745752  0  2.355509  0
Zn  Zn1  1  0.71546631  0.43093660  0.49999979  1  1.245178  0  0.686151  0.745942  0  2.357273  0
Zn  Zn2  1  0.56904768  0.28453661  0.83335179  1  1.24477  0  0.686187  0.745761  0  2.355464  0
Zn  Zn3  1  0.28450807  0.71546040  0.16664929  1  1.242228  0  0.686173  0.745756  0  2.355481  0
Zn  Zn4  1  0.28453298  0.56906386  0.50000006  1  1.245213  0  0.686175  0.745989  0  2.357226  0
Zn  Zn5  1  0.43095122  0.71546164  0.83335166  1  1.24484  0  0.686189  0.745757  0  2.355475  0
H  H6  1  0.67047589  0.34094714  0.00000176  1  0.101251  0  0.108855  0.118246  0  0.999992  0
H  H7  1  0.65912749  0.32956895  0.33336148  1  0.066437  0  0.10892  0.118124  0  1.000397  0
H  H8  1  0.67044152  0.32957143  0.66663883  1  0.09693  0  0.108949  0.118131  0  1.000494  0
H  H9  1  0.32952522  0.65905295  0.00000090  1  0.10125  0  0.108849  0.118259  0  0.999997  0
H  H10  1  0.34087235  0.67043225  0.33336140  1  0.074439  0  0.10893  0.118115  0  1.000346  0
H  H11  1  0.32955809  0.67042983  0.66663992  1  0.097003  0  0.10893  0.118109  0  1.000323  0
H  H12  1  0.82189947  0.60040555  0.08227785  1  0.072038  0  0.102378  0.101868  0  1.011252  0
H  H13  1  0.39959243  0.22155030  0.41568634  1  0.077259  0  0.102559  0.101954  0  1.011146  0
H  H14  1  0.77848143  0.17807863  0.74887495  1  0.078376  0  0.102401  0.101762  0  1.011376  0
H  H15  1  0.17810020  0.39959474  0.08227808  1  0.072044  0  0.10237  0.101852  0  1.01126  0
H  H16  1  0.60040821  0.77845126  0.41568533  1  0.077302  0  0.102538  0.10192  0  1.011129  0
H  H17  1  0.22151647  0.82192187  0.74887743  1  0.078278  0  0.102418  0.101777  0  1.011216  0
H  H18  1  0.60040505  0.82192527  0.25112278  1  0.073462  0  0.102431  0.101829  0  1.011185  0
H  H19  1  0.22149556  0.39959475  0.91772275  1  0.0783  0  0.102386  0.101896  0  1.011224  0
H  H20  1  0.17804731  0.77845332  0.58431333  1  0.07609  0  0.102532  0.101896  0  1.011179  0
H  H21  1  0.39959737  0.17807339  0.25112338  1  0.073532  0  0.102471  0.101901  0  1.011176  0
H  H22  1  0.77850484  0.60040316  0.91772256  1  0.078732  0  0.102384  0.101903  0  1.011271  0
H  H23  1  0.82195416  0.22155095  0.58431161  1  0.076101  0  0.102535  0.101886  0  1.011172  0
H  H24  1  0.84448650  0.68897704  0.00000028  1  0.091557  0  0.105034  0.103869  0  0.984907  0
H  H25  1  0.31104071  0.15552304  0.33337163  1  0.091859  0  0.105058  0.103742  0  0.984937  0
H  H26  1  0.84448803  0.15553126  0.66662591  1  0.047894  0  0.105065  0.103707  0  0.984885  0
H  H27  1  0.15551366  0.31102280  0.00000045  1  0.091562  0  0.105001  0.10379  0  0.984898  0
H  H28  1  0.68896017  0.84447712  0.33337097  1  0.091848  0  0.105029  0.103733  0  0.984925  0
H  H29  1  0.15551295  0.84447347  0.66662771  1  0.047809  0  0.105037  0.103676  0  0.984874  0
H  H30  1  0.53308903  0.82183275  0.13784223  1  0.529863  0  0.310415  0.289713  0  0.999828  0
H  H31  1  0.17822625  0.71129716  0.47109149  1  0.518593  0  0.310375  0.289272  0  0.999942  0
H  H32  1  0.28870385  0.46694763  0.80446962  1  0.525597  0  0.31035  0.289294  0  1.000569  0
H  H33  1  0.46691184  0.17816751  0.13784160  1  0.529828  0  0.310422  0.289735  0  0.999816  0
H  H34  1  0.82177414  0.28870221  0.47109061  1  0.518584  0  0.310388  0.28929  0  0.999915  0
H  H35  1  0.71129380  0.53305069  0.80447060  1  0.525563  0  0.310326  0.289275  0  1.000587  0
H  H36  1  0.82175781  0.53305482  0.19553250  1  0.53019  0  0.310392  0.289375  0  1.000487  0
H  H37  1  0.71125595  0.17816635  0.86215788  1  0.516967  0  0.310445  0.289752  0  0.99977  0
H  H38  1  0.46692687  0.28870084  0.52891085  1  0.526629  0  0.310351  0.289204  0  1.000182  0
H  H39  1  0.17824045  0.46694439  0.19553240  1  0.530076  0  0.310361  0.289327  0  1.000428  0
H  H40  1  0.28874255  0.82183229  0.86215953  1  0.517016  0  0.310433  0.289746  0  0.999821  0
H  H41  1  0.53307342  0.71129860  0.52891139  1  0.526672  0  0.310349  0.289197  0  1.000187  0
H  H42  1  0.67686780  0.17805110  0.07066825  1  0.140986  0  0.119675  0.097919  0  1.009848  0
H  H43  1  0.82192992  0.49879323  0.40395922  1  0.146073  0  0.119757  0.09801  0  1.010156  0
H  H44  1  0.50117758  0.32313622  0.73730432  1  0.144528  0  0.119547  0.097664  0  1.009945  0
H  H45  1  0.32313223  0.82194883  0.07066793  1  0.14102  0  0.11967  0.097928  0  1.009847  0
H  H46  1  0.17807084  0.50120701  0.40395876  1  0.146471  0  0.119751  0.097992  0  1.010168  0
H  H47  1  0.49882442  0.67686624  0.73730603  1  0.144477  0  0.119538  0.09769  0  1.009937  0
H  H48  1  0.17804031  0.67686893  0.26269645  1  0.141022  0  0.119536  0.097683  0  1.009974  0
H  H49  1  0.49881481  0.82194896  0.92933422  1  0.146782  0  0.119647  0.097917  0  1.009883  0
H  H50  1  0.32313523  0.50120491  0.59604172  1  0.148282  0  0.11975  0.097987  0  1.010226  0
H  H51  1  0.82195758  0.32312942  0.26269560  1  0.141013  0  0.11955  0.0977  0  1.009899  0
H  H52  1  0.50118357  0.17804976  0.92933432  1  0.147115  0  0.119668  0.097968  0  1.009843  0
H  H53  1  0.67686424  0.49879531  0.59604155  1  0.148293  0  0.119768  0.098013  0  1.010202  0
H  H54  1  0.61920357  0.01669619  0.04141306  1  0.155299  0  0.115272  0.146484  0  1.053302  0
H  H55  1  0.98327520  0.60257431  0.37469281  1  0.151781  0  0.115294  0.146392  0  1.053629  0
H  H56  1  0.39745465  0.38079788  0.70804229  1  0.155196  0  0.115273  0.146648  0  1.053429  0
H  H57  1  0.38079808  0.98330456  0.04141243  1  0.155272  0  0.115248  0.146472  0  1.053325  0
H  H58  1  0.01672492  0.39742659  0.37469203  1  0.151732  0  0.115278  0.146379  0  1.05367  0
H  H59  1  0.60254654  0.61920299  0.70804345  1  0.155244  0  0.115244  0.146552  0  1.053431  0
H  H60  1  0.01665559  0.61920938  0.29195901  1  0.15432  0  0.115273  0.146661  0  1.053352  0
H  H61  1  0.60250631  0.98330726  0.95858823  1  0.162838  0  0.115213  0.1464  0  1.053399  0
H  H62  1  0.38069979  0.39742441  0.62530918  1  0.15436  0  0.115267  0.1464  0  1.05364  0
H  H63  1  0.98334120  0.38079005  0.29195805  1  0.15429  0  0.115279  0.146606  0  1.053452  0
H  H64  1  0.39749358  0.01669236  0.95858907  1  0.162807  0  0.115325  0.146576  0  1.05323  0
H  H65  1  0.61929998  0.60257550  0.62530915  1  0.154363  0  0.115259  0.146414  0  1.053601  0
H  H66  1  0.57741993  0.93207844  0.20188798  1  0.108753  0  0.10834  0.125535  0  1.028917  0
H  H67  1  0.06791712  0.64531434  0.53518287  1  0.094004  0  0.108334  0.125817  0  1.028922  0
H  H68  1  0.35466633  0.42260858  0.86854506  1  0.106538  0  0.10826  0.125717  0  1.029065  0
H  H69  1  0.42258073  0.06792321  0.20188730  1  0.108592  0  0.108355  0.125544  0  1.028934  0
H  H70  1  0.93208264  0.35468320  0.53518116  1  0.095507  0  0.108322  0.125797  0  1.029023  0
H  H71  1  0.64533432  0.57739154  0.86854654  1  0.106414  0  0.108268  0.125739  0  1.028975  0
H  H72  1  0.93205708  0.57739310  0.13145658  1  0.109056  0  0.108265  0.125698  0  1.029062  0
H  H73  1  0.64534435  0.06792026  0.79811253  1  0.104859  0  0.108346  0.12555  0  1.028937  0
H  H74  1  0.42260141  0.35468312  0.46481877  1  0.108897  0  0.108339  0.125834  0  1.028953  0
H  H75  1  0.06794330  0.42260525  0.13145539  1  0.108797  0  0.108303  0.125785  0  1.028946  0
H  H76  1  0.35465461  0.93207795  0.79811343  1  0.106099  0  0.10835  0.125551  0  1.028915  0
H  H77  1  0.57739829  0.64531694  0.46481921  1  0.107503  0  0.108345  0.125829  0  1.028939  0
H  H78  1  0.64031343  0.09997793  0.22504238  1  0.101889  0  0.115358  0.084059  0  1.005318  0
H  H79  1  0.90003610  0.54032229  0.55832097  1  0.091989  0  0.115032  0.083636  0  1.004605  0
H  H80  1  0.45965472  0.35967785  0.89167116  1  0.100279  0  0.115113  0.0836  0  1.004988  0
H  H81  1  0.35968685  0.90002409  0.22504209  1  0.101916  0  0.115386  0.084146  0  1.005276  0
H  H82  1  0.09996136  0.45967512  0.55832055  1  0.092093  0  0.115071  0.08371  0  1.004554  0
H  H83  1  0.54034529  0.64032168  0.89167163  1  0.100254  0  0.115119  0.083606  0  1.005008  0
H  H84  1  0.09997642  0.64032554  0.10833007  1  0.102335  0  0.115134  0.083641  0  1.005003  0
H  H85  1  0.54033837  0.90001951  0.77495970  1  0.091352  0  0.115402  0.084129  0  1.00531  0
H  H86  1  0.35971305  0.45967545  0.44168030  1  0.10092  0  0.115042  0.083666  0  1.004583  0
H  H87  1  0.90002425  0.35967374  0.10832994  1  0.10248  0  0.115141  0.083657  0  1.004988  0
H  H88  1  0.45965942  0.09997746  0.77495978  1  0.091392  0  0.115372  0.084116  0  1.005287  0
H  H89  1  0.64028669  0.54032458  0.44168098  1  0.10092  0  0.115065  0.083677  0  1.004627  0
H  H90  1  0.59241540  0.74920517  0.98052254  1  0.098101  0  0.105015  0.103515  0  1.013707  0
H  H91  1  0.25076057  0.84325271  0.31374723  1  0.096021  0  0.105063  0.103665  0  1.01328  0
H  H92  1  0.15673091  0.40751171  0.64713774  1  0.100787  0  0.104995  0.103709  0  1.013667  0
H  H93  1  0.40758626  0.25079628  0.98052241  1  0.098112  0  0.105036  0.103566  0  1.013691  0
H  H94  1  0.74923793  0.15674500  0.31374669  1  0.096016  0  0.10506  0.103645  0  1.013297  0
H  H95  1  0.84326710  0.59248511  0.64713826  1  0.10075  0  0.105002  0.103731  0  1.013682  0
H  H96  1  0.74921959  0.59248452  0.35286370  1  0.097869  0  0.105002  0.10373  0  1.013547  0
H  H97  1  0.84321033  0.25079482  0.01947710  1  0.092915  0  0.105051  0.103588  0  1.013772  0
H  H98  1  0.40750985  0.15674643  0.68625433  1  0.099589  0  0.105052  0.103642  0  1.013311  0
H  H99  1  0.25077970  0.40751480  0.35286193  1  0.09803  0  0.104966  0.103676  0  1.01367  0
H  H100  1  0.15678703  0.74920298  0.01947958  1  0.094186  0  0.105105  0.103664  0  1.013715  0
H  H101  1  0.59249137  0.84325441  0.68625493  1  0.099503  0  0.105095  0.103685  0  1.013201  0
H  H102  1  0.56549840  0.58603840  0.97388153  1  0.054328  0  0.098144  0.096246  0  1.018496  0
H  H103  1  0.41401997  0.97958329  0.30713874  1  0.063922  0  0.098156  0.096263  0  1.018294  0
H  H104  1  0.02042394  0.43445031  0.64053863  1  0.030574  0  0.098186  0.096428  0  1.018068  0
H  H105  1  0.43450518  0.41396356  0.97388152  1  0.054278  0  0.098117  0.096176  0  1.018441  0
H  H106  1  0.58597854  0.02041441  0.30713901  1  0.063437  0  0.098167  0.096257  0  1.018381  0
H  H107  1  0.97957469  0.56554710  0.64053899  1  0.030944  0  0.098194  0.096454  0  1.018072  0
H  H108  1  0.58597616  0.56554761  0.35946412  1  0.055043  0  0.098201  0.096427  0  1.018028  0
H  H109  1  0.97945726  0.41396292  0.02611922  1  0.065732  0  0.09811  0.096152  0  1.018501  0
H  H110  1  0.43443870  0.02041482  0.69286196  1  0.029696  0  0.098163  0.096286  0  1.018321  0
H  H111  1  0.41402277  0.43445206  0.35946337  1  0.05506  0  0.09821  0.096462  0  1.018046  0
H  H112  1  0.02053904  0.58603593  0.02611898  1  0.066548  0  0.098137  0.09624  0  1.018523  0
H  H113  1  0.56556442  0.97958654  0.69286231  1  0.028317  0  0.098141  0.096237  0  1.018375  0
H  H114  1  0.44587538  0.52837922  0.12622763  1  0.068409  0  0.100615  0.099013  0  1.027814  0
H  H115  1  0.47161179  0.91758887  0.45949974  1  0.061156  0  0.100441  0.098669  0  1.027299  0
H  H116  1  0.08246493  0.55403261  0.79289236  1  0.059803  0  0.100487  0.098469  0  1.027767  0
H  H117  1  0.55412587  0.47162068  0.12622794  1  0.068048  0  0.100627  0.099026  0  1.027748  0
H  H118  1  0.52838722  0.08241188  0.45949973  1  0.061409  0  0.100445  0.098685  0  1.027264  0
H  H119  1  0.91753213  0.44596508  0.79289191  1  0.059389  0  0.100469  0.098458  0  1.027779  0
H  H120  1  0.52843262  0.44596643  0.20711039  1  0.06846  0  0.100506  0.098496  0  1.027819  0
H  H121  1  0.91749409  0.47162281  0.87377281  1  0.060466  0  0.100598  0.098988  0  1.027758  0
H  H122  1  0.55402675  0.08241545  0.54050049  1  0.059608  0  0.100461  0.098704  0  1.027269  0
H  H123  1  0.47156692  0.55403270  0.20710969  1  0.068534  0  0.100507  0.0985  0  1.027815  0
H  H124  1  0.08250697  0.52838052  0.87377247  1  0.061507  0  0.100618  0.099027  0  1.02776  0
H  H125  1  0.44597966  0.91758875  0.54050052  1  0.059927  0  0.100463  0.098717  0  1.0273  0
H  H126  1  0.47526893  0.68878850  0.13406698  1  0.140882  0  0.103889  0.111271  0  1.06138  0
H  H127  1  0.31122497  0.78653840  0.46729381  1  0.144278  0  0.103987  0.111443  0  1.06084  0
H  H128  1  0.21356313  0.52471033  0.80067512  1  0.140032  0  0.10393  0.111386  0  1.060973  0
H  H129  1  0.52472979  0.31121029  0.13406718  1  0.140944  0  0.103905  0.111301  0  1.061373  0
H  H130  1  0.68877377  0.21346140  0.46729299  1  0.145126  0  0.103997  0.111438  0  1.06083  0
H  H131  1  0.78643487  0.47528762  0.80067444  1  0.140016  0  0.103953  0.111418  0  1.060961  0
H  H132  1  0.68885122  0.47528607  0.19932516  1  0.140716  0  0.103992  0.111462  0  1.060959  0
H  H133  1  0.78647933  0.31121152  0.86593390  1  0.140781  0  0.103842  0.111188  0  1.061436  0
H  H134  1  0.52468672  0.21346266  0.53270805  1  0.142092  0  0.103993  0.111482  0  1.060786  0
H  H135  1  0.31114878  0.52471141  0.19932498  1  0.140789  0  0.103938  0.111359  0  1.061008  0
H  H136  1  0.21352184  0.68879049  0.86593666  1  0.141906  0  0.103825  0.111202  0  1.061384  0
H  H137  1  0.47531321  0.78653713  0.53270871  1  0.141922  0  0.103986  0.111476  0  1.060777  0
C  C138  1  0.73900551  0.41762127  0.09641043  1  1.539722  0  0.205029  0.568585  0  4.216634  0
C  C139  1  0.58241701  0.32139290  0.42979533  1  1.561823  0  0.205015  0.568445  0  4.217339  0
C  C140  1  0.67852604  0.26100398  0.76305173  1  1.540311  0  0.204733  0.567712  0  4.216021  0
C  C141  1  0.26099414  0.58237904  0.09641112  1  1.540188  0  0.205077  0.568656  0  4.216643  0
C  C142  1  0.41758336  0.67860772  0.42979479  1  1.562037  0  0.205075  0.568585  0  4.217151  0
C  C143  1  0.32147254  0.73899584  0.76305250  1  1.540015  0  0.204788  0.567814  0  4.21603  0
C  C144  1  0.41752212  0.73899837  0.23694846  1  1.539015  0  0.204685  0.567656  0  4.216244  0
C  C145  1  0.32138490  0.58237911  0.90359132  1  1.562466  0  0.205069  0.568568  0  4.21643  0
C  C146  1  0.26102595  0.67860598  0.57020576  1  1.538834  0  0.205091  0.568613  0  4.217151  0
C  C147  1  0.58247676  0.26100020  0.23694933  1  1.538836  0  0.204658  0.567526  0  4.216284  0
C  C148  1  0.67861448  0.41761983  0.90359185  1  1.562449  0  0.205164  0.56872  0  4.216572  0
C  C149  1  0.73897357  0.32139421  0.57020421  1  1.538755  0  0.204987  0.568226  0  4.217491  0
C  C150  1  0.74674290  0.46592267  0.04606426  1  -0.082043  0  -0.020617  -0.045106  0  3.981153  0
C  C151  1  0.53411635  0.28088172  0.37944179  1  0.058125  0  -0.020521  -0.044793  0  3.980269  0
C  C152  1  0.71910502  0.25325368  0.71268734  1  0.061742  0  -0.020409  -0.044971  0  3.979353  0
C  C153  1  0.25325718  0.53407722  0.04606375  1  -0.082451  0  -0.020611  -0.04506  0  3.981078  0
C  C154  1  0.46588280  0.71911893  0.37944008  1  0.056681  0  -0.0206  -0.045057  0  3.980408  0
C  C155  1  0.28089164  0.74674687  0.71268931  1  0.059834  0  -0.020426  -0.04505  0  3.97956  0
C  C156  1  0.46585398  0.74675012  0.28731165  1  -0.081206  0  -0.020414  -0.044972  0  3.979439  0
C  C157  1  0.28082298  0.53407710  0.95393867  1  0.055367  0  -0.020596  -0.045027  0  3.980899  0
C  C158  1  0.25323553  0.71911503  0.62056048  1  0.063453  0  -0.020545  -0.044931  0  3.980227  0
C  C159  1  0.53414803  0.25324893  0.28731411  1  -0.081127  0  -0.020349  -0.044827  0  3.979342  0
C  C160  1  0.71917466  0.46592235  0.95393882  1  0.057152  0  -0.020574  -0.045064  0  3.981012  0
C  C161  1  0.74676753  0.28088885  0.62055928  1  0.063458  0  -0.020492  -0.044713  0  3.980268  0
C  C162  1  0.70846227  0.41692620  0.00000177  1  -0.056725  0  -0.068489  -0.086342  0  3.901752  0
C  C163  1  0.58313781  0.29158058  0.33337929  1  -0.023184  0  -0.068571  -0.086455  0  3.90092  0
C  C164  1  0.70844203  0.29158354  0.66662140  1  -0.063725  0  -0.068588  -0.086404  0  3.900819  0
C  C165  1  0.29153694  0.58307338  0.00000127  1  -0.054938  0  -0.06848  -0.086403  0  3.901795  0
C  C166  1  0.41686333  0.70842053  0.33337800  1  -0.029586  0  -0.068477  -0.086196  0  3.900677  0
C  C167  1  0.29155774  0.70841998  0.66662256  1  -0.061768  0  -0.068477  -0.086207  0  3.900644  0
C  C168  1  0.79455266  0.56387139  0.04580790  1  0.047119  0  -0.081046  -0.084677  0  3.973062  0
C  C169  1  0.43614315  0.23074572  0.37920942  1  -0.10944  0  -0.081551  -0.085242  0  3.972202  0
C  C170  1  0.76926212  0.20544369  0.71241120  1  -0.092724  0  -0.081339  -0.084731  0  3.97233  0
C  C171  1  0.20544742  0.43612850  0.04580736  1  0.047118  0  -0.081059  -0.084745  0  3.9732  0
C  C172  1  0.56385784  0.76925189  0.37920727  1  -0.109911  0  -0.081508  -0.085094  0  3.972141  0
C  C173  1  0.23073697  0.79455928  0.71241249  1  -0.092994  0  -0.081399  -0.084781  0  3.972245  0
C  C174  1  0.56382176  0.79456435  0.28758655  1  0.049869  0  -0.081415  -0.084839  0  3.972216  0
C  C175  1  0.23068539  0.43612831  0.95419426  1  -0.109838  0  -0.081041  -0.084737  0  3.973125  0
C  C176  1  0.20539586  0.76925060  0.62079061  1  -0.095751  0  -0.081521  -0.085181  0  3.972071  0
C  C177  1  0.43617904  0.20543349  0.28758829  1  0.049767  0  -0.081528  -0.085011  0  3.972127  0
C  C178  1  0.76931486  0.56387095  0.95419444  1  -0.113977  0  -0.081049  -0.084751  0  3.97316  0
C  C179  1  0.79460554  0.23075372  0.62078931  1  -0.095685  0  -0.081518  -0.085207  0  3.972209  0
C  C180  1  0.80642328  0.61284994  0.00000103  1  -0.042431  0  -0.092614  -0.090527  0  4.039959  0
C  C181  1  0.38718643  0.19360809  0.33339403  1  -0.048053  0  -0.092149  -0.089881  0  4.03873  0
C  C182  1  0.80642691  0.19361842  0.66660468  1  -0.007492  0  -0.092243  -0.089925  0  4.038769  0
C  C183  1  0.19357713  0.38715085  0.00000085  1  -0.046189  0  -0.092563  -0.090394  0  4.040047  0
C  C184  1  0.61281429  0.80638981  0.33339264  1  -0.047685  0  -0.092182  -0.08999  0  4.038859  0
C  C185  1  0.19357467  0.80638691  0.66660640  1  -0.007171  0  -0.092186  -0.089852  0  4.038741  0
C  C186  1  0.65489865  0.12193712  0.09880084  1  0.423191  0  0.045056  0.109608  0  3.939737  0
C  C187  1  0.87805264  0.53297410  0.43208021  1  0.348142  0  0.045391  0.110139  0  3.939537  0
C  C188  1  0.46702275  0.34511287  0.76543579  1  0.416333  0  0.045654  0.11092  0  3.938805  0
C  C189  1  0.34509968  0.87806328  0.09880055  1  0.423097  0  0.045007  0.109549  0  3.939801  0
C  C190  1  0.12194747  0.46702557  0.43207977  1  0.347704  0  0.045398  0.110173  0  3.939605  0
C  C191  1  0.53297894  0.65488867  0.76543667  1  0.416547  0  0.045633  0.110839  0  3.938707  0
C  C192  1  0.12190814  0.65489080  0.23456580  1  0.423558  0  0.045657  0.110889  0  3.938711  0
C  C193  1  0.53296132  0.87806319  0.90120046  1  0.347038  0  0.045076  0.109619  0  3.939835  0
C  C194  1  0.34507587  0.46702438  0.56792070  1  0.410417  0  0.045514  0.110271  0  3.939721  0
C  C195  1  0.87809040  0.34510812  0.23456530  1  0.423527  0  0.045666  0.11087  0  3.938765  0
C  C196  1  0.46703807  0.12193576  0.90120094  1  0.346709  0  0.045081  0.109603  0  3.93974  0
C  C197  1  0.65492556  0.53297632  0.56792019  1  0.410409  0  0.045515  0.11027  0  3.939655  0
C  C198  1  0.62144045  0.03109972  0.08231444  1  0.077196  0  -0.0886  -0.220703  0  3.907611  0
C  C199  1  0.96888348  0.59037968  0.41558762  1  0.171043  0  -0.088841  -0.220851  0  3.907243  0
C  C200  1  0.40964467  0.37858037  0.74894250  1  0.08664  0  -0.088722  -0.221209  0  3.907083  0
C  C201  1  0.37856026  0.96889953  0.08231380  1  0.077077  0  -0.08866  -0.220753  0  3.907623  0
C  C202  1  0.03111701  0.40961962  0.41558722  1  0.171446  0  -0.088832  -0.2209  0  3.907319  0
C  C203  1  0.59035861  0.62142201  0.74894367  1  0.087448  0  -0.088771  -0.221146  0  3.907173  0
C  C204  1  0.03106398  0.62142574  0.25105878  1  0.078457  0  -0.088779  -0.221231  0  3.906948  0
C  C205  1  0.59033777  0.96890101  0.91768724  1  0.163377  0  -0.08859  -0.220626  0  3.907705  0
C  C206  1  0.37850282  0.40961861  0.58441361  1  0.08741  0  -0.088815  -0.220842  0  3.907283  0
C  C207  1  0.96893418  0.37857355  0.25105861  1  0.078315  0  -0.08878  -0.22116  0  3.907137  0
C  C208  1  0.40966159  0.03109795  0.91768769  1  0.164949  0  -0.088706  -0.220774  0  3.907603  0
C  C209  1  0.62149677  0.59038029  0.58441357  1  0.087722  0  -0.088837  -0.220945  0  3.907185  0
C  C210  1  0.59317663  0.95968609  0.11927242  1  0.370893  0  0.125484  0.303555  0  3.994069  0
C  C211  1  0.04034160  0.63351753  0.45253444  1  0.320252  0  0.125616  0.30376  0  3.993283  0
C  C212  1  0.36651029  0.40687905  0.78590937  1  0.364321  0  0.125495  0.303397  0  3.993432  0
C  C213  1  0.40682488  0.04031476  0.11927211  1  0.37086  0  0.12557  0.303574  0  3.994027  0
C  C214  1  0.95965700  0.36648000  0.45253310  1  0.32015  0  0.125575  0.303754  0  3.993252  0
C  C215  1  0.63349076  0.59312191  0.78591048  1  0.363596  0  0.125595  0.303508  0  3.993596  0
C  C216  1  0.95963249  0.59312509  0.21409032  1  0.369981  0  0.125555  0.303407  0  3.993283  0
C  C217  1  0.63349141  0.04031489  0.88072887  1  0.31777  0  0.125517  0.303427  0  3.994206  0
C  C218  1  0.40682113  0.36647883  0.54746568  1  0.36172  0  0.125549  0.303582  0  3.993576  0
C  C219  1  0.04036825  0.40687527  0.21409068  1  0.370019  0  0.125551  0.303392  0  3.993453  0
C  C220  1  0.36650871  0.95968333  0.88072940  1  0.316197  0  0.125468  0.303174  0  3.994325  0
C  C221  1  0.59317782  0.63352073  0.54746648  1  0.361591  0  0.125554  0.303626  0  3.993501  0
C  C222  1  0.59967969  0.98525070  0.17188267  1  -0.072833  0  -0.095356  -0.238401  0  3.946084  0
C  C223  1  0.01478499  0.61443023  0.50514971  1  -0.001407  0  -0.095325  -0.239015  0  3.945887  0
C  C224  1  0.38557279  0.40037462  0.83852386  1  -0.035992  0  -0.095039  -0.238445  0  3.945845  0
C  C225  1  0.40032103  0.01475091  0.17188196  1  -0.072177  0  -0.095293  -0.238277  0  3.946043  0
C  C226  1  0.98521448  0.38556762  0.50514914  1  -0.002621  0  -0.095281  -0.239009  0  3.945944  0
C  C227  1  0.61442731  0.59962485  0.83852499  1  -0.036211  0  -0.095083  -0.238514  0  3.945783  0
C  C228  1  0.98519907  0.59962831  0.16147697  1  -0.073293  0  -0.095081  -0.238412  0  3.945835  0
C  C229  1  0.61442975  0.01474791  0.82811823  1  -0.011165  0  -0.095323  -0.238304  0  3.946037  0
C  C230  1  0.40035693  0.38556842  0.49485119  1  -0.036452  0  -0.095267  -0.23893  0  3.945863  0
C  C231  1  0.01480055  0.40037077  0.16147697  1  -0.072803  0  -0.095152  -0.238581  0  3.945884  0
C  C232  1  0.38556890  0.98524939  0.82811954  1  -0.011936  0  -0.095325  -0.238188  0  3.946034  0
C  C233  1  0.59964247  0.61443073  0.49485120  1  -0.035478  0  -0.095249  -0.238877  0  3.945742  0
C  C234  1  0.63422781  0.07801207  0.18477246  1  0.512925  0  0.035734  0.089606  0  3.997627  0
C  C235  1  0.92200565  0.55619291  0.51803983  1  0.469216  0  0.036598  0.090768  0  3.996836  0
C  C236  1  0.44378040  0.36579858  0.85139429  1  0.480437  0  0.036138  0.090429  0  3.997591  0
C  C237  1  0.36577228  0.92198895  0.18477179  1  0.512687  0  0.035676  0.089448  0  3.997593  0
C  C238  1  0.07799354  0.44380401  0.51803864  1  0.469519  0  0.036564  0.090694  0  3.996921  0
C  C239  1  0.55621942  0.63419995  0.85139512  1  0.480518  0  0.036109  0.090409  0  3.997657  0
C  C240  1  0.07798237  0.63420407  0.14860618  1  0.513198  0  0.036156  0.090417  0  3.997654  0
C  C241  1  0.55621447  0.92198656  0.81522923  1  0.468839  0  0.035742  0.089601  0  3.997636  0
C  C242  1  0.36581434  0.44380780  0.48196181  1  0.479705  0  0.036565  0.090693  0  3.996855  0
C  C243  1  0.92201779  0.36579690  0.14860643  1  0.513074  0  0.036154  0.090419  0  3.997611  0
C  C244  1  0.44378325  0.07801046  0.81522970  1  0.468334  0  0.035783  0.08957  0  3.997505  0
C  C245  1  0.63418508  0.55619132  0.48196135  1  0.479673  0  0.036551  0.090671  0  3.996859  0
C  C246  1  0.56417403  0.83119955  0.05919754  1  1.373342  0  0.248258  0.485068  0  4.08428  0
C  C247  1  0.16882560  0.73297897  0.39243058  1  1.366953  0  0.248087  0.484837  0  4.083352  0
C  C248  1  0.26700878  0.43581187  0.72582879  1  1.360889  0  0.24795  0.484391  0  4.085212  0
C  C249  1  0.43582672  0.16879966  0.05919731  1  1.373428  0  0.248279  0.485151  0  4.084319  0
C  C250  1  0.83117422  0.26702100  0.39243005  1  1.366934  0  0.2481  0.484798  0  4.083448  0
C  C251  1  0.73299237  0.56418902  0.72582939  1  1.360713  0  0.247958  0.484427  0  4.085372  0
C  C252  1  0.83119575  0.56418666  0.27417256  1  1.373366  0  0.248002  0.484443  0  4.085264  0
C  C253  1  0.73297300  0.16879901  0.94080294  1  1.370338  0  0.2483  0.4851  0  4.084396  0
C  C254  1  0.43584669  0.26701987  0.60757024  1  1.361422  0  0.248244  0.485088  0  4.083242  0
C  C255  1  0.16880091  0.43581049  0.27417321  1  1.373391  0  0.248059  0.48457  0  4.085077  0
C  C256  1  0.26702883  0.83120110  0.94080423  1  1.370235  0  0.248291  0.485126  0  4.08436  0
C  C257  1  0.56415215  0.73297976  0.60756960  1  1.361362  0  0.24811  0.484832  0  4.083444  0
C  C258  1  0.53827673  0.73080514  0.05767705  1  -0.03335  0  -0.01724  -0.03895  0  3.984106  0
C  C259  1  0.26920804  0.80751818  0.39088768  1  -0.031683  0  -0.017147  -0.038183  0  3.983343  0
C  C260  1  0.19250037  0.46168429  0.72427745  1  -0.052755  0  -0.016955  -0.037894  0  3.984053  0
C  C261  1  0.46172488  0.26919563  0.05767728  1  -0.032072  0  -0.017283  -0.03906  0  3.984115  0
C  C262  1  0.73079128  0.19247988  0.39088758  1  -0.031546  0  -0.01714  -0.038178  0  3.983375  0
C  C263  1  0.80749957  0.53831539  0.72427796  1  -0.052643  0  -0.016944  -0.037824  0  3.983972  0
C  C264  1  0.73081710  0.53831288  0.27572359  1  -0.033397  0  -0.016925  -0.037708  0  3.983901  0
C  C265  1  0.80747110  0.26919543  0.94232263  1  -0.031414  0  -0.017252  -0.038989  0  3.984124  0
C  C266  1  0.46168834  0.19247928  0.60911230  1  -0.055938  0  -0.017153  -0.038232  0  3.983368  0
C  C267  1  0.26918293  0.46168695  0.27572340  1  -0.033227  0  -0.016897  -0.037722  0  3.983815  0
C  C268  1  0.19253037  0.73080503  0.94232545  1  -0.030696  0  -0.017247  -0.039049  0  3.98423  0
C  C269  1  0.53831241  0.80752086  0.60911408  1  -0.055469  0  -0.017135  -0.038118  0  3.983268  0
C  C270  1  0.56029849  0.69949816  0.01211956  1  -0.051828  0  -0.080679  -0.084665  0  3.978727  0
C  C271  1  0.30049666  0.86086065  0.34533331  1  -0.056901  0  -0.080717  -0.085267  0  3.978123  0
C  C272  1  0.13911153  0.43960156  0.67873933  1  -0.038061  0  -0.080535  -0.085142  0  3.979126  0
C  C273  1  0.43970321  0.30050256  0.01211944  1  -0.051866  0  -0.080658  -0.084648  0  3.978691  0
C  C274  1  0.69950238  0.13913770  0.34533319  1  -0.057058  0  -0.080729  -0.085217  0  3.977949  0
C  C275  1  0.86088703  0.56039591  0.67873942  1  -0.038183  0  -0.080585  -0.085226  0  3.979083  0
C  C276  1  0.69950858  0.56039267  0.32126330  1  -0.053737  0  -0.080611  -0.085314  0  3.978759  0
C  C277  1  0.86079975  0.30050085  0.98788047  1  -0.053442  0  -0.080705  -0.084733  0  3.978813  0
C  C278  1  0.43963800  0.13913876  0.65466782  1  -0.037114  0  -0.080708  -0.085203  0  3.978177  0
C  C279  1  0.30049102  0.43960756  0.32126305  1  -0.053928  0  -0.080632  -0.085329  0  3.978917  0
C  C280  1  0.13920044  0.69949846  0.98788254  1  -0.054806  0  -0.080711  -0.084741  0  3.978866  0
C  C281  1  0.56036458  0.86086195  0.65466808  1  -0.037058  0  -0.080745  -0.085282  0  3.97794  0
C  C282  1  0.54444858  0.60883389  0.00840231  1  -0.036126  0  -0.090283  -0.134978  0  3.986605  0
C  C283  1  0.39115743  0.93570344  0.34163890  1  -0.042889  0  -0.090183  -0.134722  0  3.986047  0
C  C284  1  0.06426713  0.45541183  0.67505503  1  0.006668  0  -0.09017  -0.135047  0  3.986722  0
C  C285  1  0.45555347  0.39116647  0.00840265  1  -0.03563  0  -0.090262  -0.134913  0  3.986595  0
C  C286  1  0.60884137  0.06429396  0.34163880  1  -0.04232  0  -0.090208  -0.134759  0  3.985996  0
C  C287  1  0.93572927  0.54458416  0.67505464  1  0.006286  0  -0.090258  -0.135168  0  3.986782  0
C  C288  1  0.60885372  0.54458100  0.32494730  1  -0.036969  0  -0.090226  -0.135036  0  3.986704  0
C  C289  1  0.93561348  0.39116415  0.99159847  1  -0.039071  0  -0.090237  -0.134831  0  3.986581  0
C  C290  1  0.45545727  0.06429810  0.65836180  1  0.005638  0  -0.090208  -0.134771  0  3.986026  0
C  C291  1  0.39114466  0.45541803  0.32494698  1  -0.036939  0  -0.090248  -0.135093  0  3.986762  0
C  C292  1  0.06438600  0.60883586  0.99159898  1  -0.040508  0  -0.090298  -0.134997  0  3.986649  0
C  C293  1  0.54454763  0.93570634  0.65836213  1  0.006863  0  -0.090185  -0.134712  0  3.985941  0
C  C294  1  0.50590935  0.54713012  0.05028934  1  0.034295  0  2.3e-05  0.08081  0  3.999341  0
C  C295  1  0.45284386  0.95883855  0.38353481  1  0.018966  0  -0.000119  0.080695  0  3.999715  0
C  C296  1  0.04114361  0.49396525  0.71695525  1  -0.005076  0  -0.000267  0.080805  0  3.998803  0
C  C297  1  0.49409349  0.45287185  0.05028970  1  -0.011306  0  3.8e-05  0.080815  0  3.999319  0
C  C298  1  0.54715382  0.04115995  0.38353476  1  -0.009419  0  -9.6e-05  0.08068  0  3.999742  0
C  C299  1  0.95885307  0.50603044  0.71695558  1  -0.047148  0  -0.000236  0.080773  0  3.999005  0
C  C300  1  0.54717713  0.50602941  0.28304674  1  0.036619  0  -0.000247  0.080754  0  3.999043  0
C  C301  1  0.95877763  0.45287043  0.94971183  1  0.019143  0  2e-06  0.080739  0  3.999412  0
C  C302  1  0.49401017  0.04116343  0.61646429  1  -0.04837  0  -0.000131  0.080619  0  3.999723  0
C  C303  1  0.45282384  0.49397068  0.28304716  1  -0.009578  0  -0.000246  0.080769  0  3.999003  0
C  C304  1  0.04122071  0.54712831  0.94971231  1  -0.008248  0  -1.3e-05  0.080775  0  3.999307  0
C  C305  1  0.50599646  0.95884051  0.61646507  1  -0.004478  0  -0.000104  0.080686  0  3.999752  0
C  C306  1  0.48025912  0.57766639  0.09475406  1  -0.101364  0  -0.089592  -0.128597  0  3.974739  0
C  C307  1  0.42231424  0.90267366  0.42800839  1  -0.094732  0  -0.089336  -0.128421  0  3.973812  0
C  C308  1  0.09733593  0.51959467  0.76142108  1  -0.07662  0  -0.089225  -0.127883  0  3.973277  0
C  C309  1  0.51974278  0.42233408  0.09475475  1  -0.101382  0  -0.08957  -0.128526  0  3.974646  0
C  C310  1  0.57768422  0.09732645  0.42800797  1  -0.094924  0  -0.089336  -0.128414  0  3.973684  0
C  C311  1  0.90266214  0.48040324  0.76142145  1  -0.076122  0  -0.089194  -0.127802  0  3.973455  0
C  C312  1  0.57773982  0.48040231  0.23858124  1  -0.100213  0  -0.089185  -0.127766  0  3.973264  0
C  C313  1  0.90259130  0.42233644  0.90524753  1  -0.098726  0  -0.089505  -0.128481  0  3.974621  0
C  C314  1  0.51964553  0.09732977  0.57199226  1  -0.075687  0  -0.08933  -0.128413  0  3.973835  0
C  C315  1  0.42225992  0.51959782  0.23858134  1  -0.100613  0  -0.089184  -0.127817  0  3.973252  0
C  C316  1  0.09740910  0.57766632  0.90524760  1  -0.099736  0  -0.089586  -0.128587  0  3.974782  0
C  C317  1  0.48035926  0.90267361  0.57199224  1  -0.076808  0  -0.08937  -0.128492  0  3.973828  0
C  C318  1  0.49643976  0.66824180  0.09881856  1  -0.046888  0  -0.087412  -0.097581  0  3.973227  0
C  C319  1  0.33174803  0.82825981  0.43204773  1  -0.042739  0  -0.087404  -0.097601  0  3.972913  0
C  C320  1  0.17179009  0.50347938  0.76544335  1  -0.033801  0  -0.087608  -0.098215  0  3.973488  0
C  C321  1  0.50356153  0.33175807  0.09881879  1  -0.048234  0  -0.087435  -0.09764  0  3.97334  0
C  C322  1  0.66825173  0.17174021  0.43204728  1  -0.043556  0  -0.0874  -0.09759  0  3.972858  0
C  C323  1  0.82820883  0.49652010  0.76544303  1  -0.033806  0  -0.087614  -0.098257  0  3.973521  0
C  C324  1  0.66831060  0.49651807  0.23455773  1  -0.047204  0  -0.087697  -0.098444  0  3.973492  0
C  C325  1  0.82819717  0.33175899  0.90118191  1  -0.040869  0  -0.087419  -0.097554  0  3.973173  0
C  C326  1  0.50349000  0.17174134  0.56795336  1  -0.031422  0  -0.087422  -0.097626  0  3.972927  0
C  C327  1  0.33168925  0.50348076  0.23455751  1  -0.047445  0  -0.087636  -0.09826  0  3.97344  0
C  C328  1  0.17180091  0.66824004  0.90118353  1  -0.042554  0  -0.087353  -0.09747  0  3.973229  0
C  C329  1  0.49651168  0.82826031  0.56795326  1  -0.03152  0  -0.087387  -0.09758  0  3.972701  0
N  N330  1  0.66198833  0.14645469  0.14908324  1  -1.282113  0  -0.345937  -0.25893  0  3.6002  0
N  N331  1  0.85354431  0.51549486  0.48236067  1  -1.285795  0  -0.346988  -0.260423  0  3.600513  0
N  N332  1  0.48445016  0.33801860  0.81571237  1  -1.28054  0  -0.346927  -0.260448  0  3.600794  0
N  N333  1  0.33801027  0.85354542  0.14908371  1  -1.282088  0  -0.345922  -0.258912  0  3.600229  0
N  N334  1  0.14645511  0.48450427  0.48235984  1  -1.286148  0  -0.347002  -0.260396  0  3.600649  0
N  N335  1  0.51555119  0.66198205  0.81571443  1  -1.280477  0  -0.346861  -0.260396  0  3.600745  0
N  N336  1  0.14643139  0.66198369  0.18428688  1  -1.281882  0  -0.346917  -0.260461  0  3.600741  0
N  N337  1  0.51553381  0.85354517  0.85091884  1  -1.284682  0  -0.345996  -0.259034  0  3.600407  0
N  N338  1  0.33804780  0.48450158  0.51764141  1  -1.28  0  -0.347051  -0.260435  0  3.600843  0
N  N339  1  0.85356845  0.33801637  0.18428794  1  -1.281909  0  -0.346922  -0.260426  0  3.600732  0
N  N340  1  0.48446445  0.14645251  0.85091932  1  -1.284495  0  -0.346065  -0.259089  0  3.600407  0
N  N341  1  0.66195146  0.51549889  0.51764088  1  -1.280002  0  -0.347013  -0.260347  0  3.600782  0
N  N342  1  0.56079920  0.86686879  0.10715944  1  -1.273517  0  -0.390859  -0.375315  0  3.527092  0
N  N343  1  0.13317089  0.69393993  0.44040561  1  -1.233668  0  -0.390638  -0.374433  0  3.525732  0
N  N344  1  0.30608474  0.43928274  0.77378950  1  -1.273175  0  -0.390557  -0.374208  0  3.527332  0
N  N345  1  0.43920198  0.13313239  0.10715918  1  -1.273614  0  -0.390867  -0.375343  0  3.527015  0
N  N346  1  0.86682835  0.30605820  0.44040509  1  -1.233811  0  -0.390651  -0.374422  0  3.525732  0
N  N347  1  0.69391634  0.56071821  0.77379014  1  -1.273086  0  -0.390562  -0.374285  0  3.527453  0
N  N348  1  0.86680404  0.56072251  0.22621104  1  -1.274152  0  -0.3907  -0.374407  0  3.527111  0
N  N349  1  0.69392954  0.13313200  0.89284145  1  -1.235393  0  -0.39086  -0.375265  0  3.527048  0
N  N350  1  0.43922813  0.30605729  0.55959561  1  -1.270533  0  -0.390681  -0.374493  0  3.525867  0
N  N351  1  0.13319528  0.43927925  0.22621173  1  -1.274006  0  -0.390642  -0.374325  0  3.527068  0
N  N352  1  0.30606926  0.86686633  0.89284273  1  -1.235308  0  -0.390772  -0.375073  0  3.527074  0
N  N353  1  0.56077201  0.69394349  0.55959572  1  -1.270713  0  -0.390699  -0.37448  0  3.525901  0
O  O354  1  0.70666036  0.32855444  0.09577624  1  -1.159393  0  -0.324817  -0.541526  0  2.31146  0
O  O355  1  0.67148490  0.37811643  0.42915457  1  -1.174792  0  -0.324861  -0.54138  0  2.312384  0
O  O356  1  0.62177883  0.29332700  0.76242534  1  -1.162848  0  -0.32476  -0.54088  0  2.310837  0
O  O357  1  0.29333954  0.67144681  0.09577621  1  -1.159402  0  -0.324868  -0.541608  0  2.311378  0
O  O358  1  0.32851667  0.62188540  0.42915561  1  -1.174736  0  -0.324841  -0.541385  0  2.312301  0
O  O359  1  0.37821975  0.70667282  0.76242525  1  -1.162774  0  -0.324821  -0.540941  0  2.310882  0
O  O360  1  0.32845074  0.70667339  0.23757569  1  -1.161684  0  -0.324748  -0.540864  0  2.310928  0
O  O361  1  0.37810612  0.67144685  0.90422472  1  -1.173729  0  -0.324835  -0.541543  0  2.311476  0
O  O362  1  0.29337433  0.62188798  0.57084452  1  -1.163415  0  -0.324827  -0.541426  0  2.312397  0
O  O363  1  0.67154787  0.29332910  0.23757535  1  -1.161647  0  -0.324737  -0.540803  0  2.31096  0
O  O364  1  0.62189386  0.32855270  0.90422484  1  -1.17376  0  -0.324843  -0.541553  0  2.311459  0
O  O365  1  0.70662267  0.37811110  0.57084344  1  -1.163331  0  -0.324835  -0.541362  0  2.312429  0
O  O366  1  0.76545366  0.46522819  0.13738877  1  -1.214502  0  -0.321904  -0.58039  0  2.260385  0
O  O367  1  0.53479023  0.30011794  0.47077599  1  -1.213279  0  -0.322013  -0.580503  0  2.260029  0
O  O368  1  0.69981687  0.23467828  0.80403932  1  -1.210575  0  -0.321936  -0.580255  0  2.259361  0
O  O369  1  0.23454626  0.53477182  0.13738828  1  -1.214518  0  -0.321879  -0.58034  0  2.260521  0
O  O370  1  0.46521343  0.69988541  0.47077542  1  -1.213656  0  -0.322045  -0.580553  0  2.25998  0
O  O371  1  0.30018329  0.76532115  0.80404168  1  -1.210374  0  -0.321951  -0.580352  0  2.259373  0
O  O372  1  0.46513410  0.76531849  0.19595852  1  -1.212846  0  -0.321885  -0.580249  0  2.259535  0
O  O373  1  0.30022196  0.53477281  0.86261337  1  -1.213557  0  -0.321934  -0.580369  0  2.26034  0
O  O374  1  0.23467518  0.69988342  0.52922397  1  -1.210394  0  -0.322106  -0.580587  0  2.259838  0
O  O375  1  0.53486528  0.23468324  0.19596019  1  -1.212723  0  -0.321878  -0.58017  0  2.259537  0
O  O376  1  0.69977870  0.46522730  0.86261430  1  -1.213494  0  -0.322014  -0.580485  0  2.260456  0
O  O377  1  0.76532406  0.30011707  0.52922238  1  -1.210457  0  -0.322027  -0.580353  0  2.259984  0
O  O378  1  0.59097549  0.87965739  0.01967548  1  -1.137741  0  -0.2737  -0.458396  0  2.165127  0
O  O379  1  0.12035602  0.71129051  0.35291703  1  -1.129512  0  -0.273783  -0.458763  0  2.165902  0
O  O380  1  0.28865265  0.40895313  0.68632604  1  -1.129952  0  -0.273903  -0.458681  0  2.166051  0
O  O381  1  0.40902368  0.12034222  0.01967562  1  -1.137757  0  -0.273743  -0.458452  0  2.165251  0
O  O382  1  0.87964327  0.28870881  0.35291609  1  -1.129533  0  -0.273763  -0.458718  0  2.165929  0
O  O383  1  0.71134823  0.59104806  0.68632746  1  -1.129901  0  -0.273889  -0.458663  0  2.16623  0
O  O384  1  0.87969824  0.59104547  0.31367450  1  -1.138432  0  -0.273863  -0.458635  0  2.166146  0
O  O385  1  0.71131835  0.12034233  0.98032423  1  -1.13169  0  -0.273739  -0.45842  0  2.165294  0
O  O386  1  0.40906194  0.28870333  0.64708343  1  -1.131284  0  -0.273859  -0.458855  0  2.165822  0
O  O387  1  0.12029870  0.40895138  0.31367441  1  -1.138474  0  -0.273929  -0.458743  0  2.166073  0
O  O388  1  0.28868141  0.87965862  0.98032515  1  -1.131761  0  -0.273758  -0.458457  0  2.165111  0
O  O389  1  0.59093753  0.71129565  0.64708353  1  -1.131258  0  -0.273762  -0.458721  0  2.165846  0
