# generated using pymatgen
data_CdH26C42(N2O)4
_symmetry_space_group_name_H-M   'P 1'
_cell_length_a   18.23062903
_cell_length_b   18.17481923
_cell_length_c   20.59333958
_cell_angle_alpha   85.45187977
_cell_angle_beta   83.68981132
_cell_angle_gamma   63.63166400
_symmetry_Int_Tables_number   1
_chemical_formula_structural   CdH26C42(N2O)4
_chemical_formula_sum   'Cd6 H156 C252 N48 O24'
_cell_volume   6072.84396719
_cell_formula_units_Z   6
loop_
 _symmetry_equiv_pos_site_id
 _symmetry_equiv_pos_as_xyz
  1  'x, y, z'
loop_
 _atom_site_type_symbol
 _atom_site_label
 _atom_site_symmetry_multiplicity
 _atom_site_fract_x
 _atom_site_fract_y
 _atom_site_fract_z
 _atom_site_occupancy
 _atom_site_pbe_bader_charge
 _atom_site_pbe_bader_spin_density
 _atom_site_pbe_cm5_charge
 _atom_site_pbe_ddec_charge
 _atom_site_pbe_ddec_spin_density
 _atom_site_pbe_ddec_sum_bond_order
 _atom_site_pbe_magmom
Cd  Cd0  1  0.42486520  0.17277171  0.71619137  1  1.264245  0  0.766972  0.838367  0  2.242058  0
Cd  Cd1  1  0.57513801  0.82722581  0.28380813  1  1.264206  0  0.767001  0.838361  0  2.242098  0
Cd  Cd2  1  0.61402305  0.59170229  0.72070323  1  1.265971  0  0.768607  0.850027  0  2.210903  0
Cd  Cd3  1  0.38597332  0.40830198  0.27929599  1  1.265863  0  0.768616  0.850092  0  2.210878  0
Cd  Cd4  1  0.97261352  0.21417337  0.26258023  1  1.25916  0  0.767778  0.847846  0  2.236576  0
Cd  Cd5  1  0.02738860  0.78582660  0.73742018  1  1.259126  0  0.767754  0.847756  0  2.236683  0
H  H6  1  0.71744099  0.98462992  0.71845299  1  0.113948  0  0.100885  0.110088  0  1.015415  0
H  H7  1  0.28255731  0.01537496  0.28154698  1  0.114107  0  0.100852  0.110065  0  1.015448  0
H  H8  1  0.81660033  0.72364057  0.69613866  1  0.124326  0  0.102034  0.110812  0  1.025216  0
H  H9  1  0.18340567  0.27636311  0.30386063  1  0.124275  0  0.102027  0.110775  0  1.025292  0
H  H10  1  0.55542845  0.87351423  0.70380377  1  0.102036  0  0.103323  0.106803  0  1.033521  0
H  H11  1  0.44457698  0.12648453  0.29619591  1  0.101929  0  0.103319  0.106722  0  1.033545  0
H  H12  1  0.48763005  0.40225014  0.75158823  1  0.11365  0  0.102306  0.110898  0  1.019694  0
H  H13  1  0.51236598  0.59774615  0.24840865  1  0.113353  0  0.102252  0.11078  0  1.019749  0
H  H14  1  0.31980139  0.65873327  0.73746274  1  0.115806  0  0.105372  0.11314  0  1.013217  0
H  H15  1  0.68020293  0.34126424  0.26253859  1  0.115811  0  0.105361  0.113172  0  1.013151  0
H  H16  1  0.23127641  0.47566957  0.73329742  1  0.104613  0  0.104386  0.111551  0  1.011881  0
H  H17  1  0.76871776  0.52433592  0.26670243  1  0.104737  0  0.104406  0.111487  0  1.011963  0
H  H18  1  0.24680680  0.31231058  0.66744129  1  0.198858  0  0.137922  0.112392  0  1.033363  0
H  H19  1  0.75319504  0.68768879  0.33255724  1  0.19876  0  0.137911  0.112345  0  1.033424  0
H  H20  1  0.37131327  0.00887368  0.69143081  1  0.118825  0  0.109065  0.129105  0  1.028935  0
H  H21  1  0.62868664  0.99112630  0.30856690  1  0.118938  0  0.109053  0.129044  0  1.029017  0
H  H22  1  0.28546559  0.93357340  0.68233641  1  0.088445  0  0.09921  0.099424  0  1.003249  0
H  H23  1  0.71453791  0.06642349  0.31766552  1  0.08843  0  0.099206  0.099423  0  1.003223  0
H  H24  1  0.14184994  0.00892154  0.65384657  1  0.088252  0  0.093037  0.092526  0  1.037705  0
H  H25  1  0.85815243  0.99107413  0.34615361  1  0.088297  0  0.093063  0.092583  0  1.037679  0
H  H26  1  0.07789831  0.15974013  0.63334619  1  0.0385  0  0.095273  0.097977  0  1.056469  0
H  H27  1  0.92210187  0.84025677  0.36665364  1  0.038218  0  0.095291  0.097962  0  1.056524  0
H  H28  1  0.02068117  0.27551822  0.69044446  1  0.087318  0  0.109328  0.123869  0  1.036092  0
H  H29  1  0.97931463  0.72448482  0.30955442  1  0.087274  0  0.109312  0.123922  0  1.036047  0
H  H30  1  0.90138947  0.51738890  0.60220565  1  0.086456  0  0.113387  0.127394  0  1.050857  0
H  H31  1  0.09861183  0.48261294  0.39779180  1  0.086499  0  0.113361  0.127361  0  1.05087  0
H  H32  1  0.16619216  0.38473702  0.58505751  1  0.076973  0  0.108799  0.117696  0  1.057361  0
H  H33  1  0.83380830  0.61526172  0.41494168  1  0.076979  0  0.10881  0.117725  0  1.057313  0
H  H34  1  0.81324318  0.53276607  0.68897583  1  0.212747  0  0.138168  0.121561  0  1.040959  0
H  H35  1  0.18675397  0.46723268  0.31102029  1  0.212671  0  0.138202  0.121609  0  1.040842  0
H  H36  1  0.65690056  0.36938679  0.74866797  1  0.155962  0  0.108888  0.134293  0  1.020655  0
H  H37  1  0.34310015  0.63060764  0.25133245  1  0.155957  0  0.108897  0.134291  0  1.020586  0
H  H38  1  0.72307867  0.21752229  0.72988751  1  0.051421  0  0.102262  0.104878  0  0.991926  0
H  H39  1  0.27692508  0.78247278  0.27011112  1  0.051531  0  0.102263  0.104913  0  0.991905  0
H  H40  1  0.86578690  0.14809617  0.68018233  1  0.022301  0  0.097994  0.098079  0  1.01125  0
H  H41  1  0.13421630  0.85190013  0.31981676  1  0.022384  0  0.098034  0.098131  0  1.01119  0
H  H42  1  0.94802448  0.22531936  0.64754025  1  0.066097  0  0.097231  0.097126  0  1.060765  0
H  H43  1  0.05197599  0.77468184  0.35245926  1  0.066072  0  0.097244  0.097139  0  1.060852  0
H  H44  1  0.17293570  0.47925864  0.53858705  1  0.12257  0  0.124856  0.085949  0  1.050153  0
H  H45  1  0.82706340  0.52074192  0.46141507  1  0.122852  0  0.124841  0.085945  0  1.050142  0
H  H46  1  0.01640743  0.77090000  0.47728826  1  0.043418  0  0.099028  0.104377  0  1.011626  0
H  H47  1  0.98359469  0.22909750  0.52271377  1  0.043366  0  0.098983  0.10438  0  1.011459  0
H  H48  1  0.86215865  0.84285155  0.49890310  1  0.053212  0  0.096724  0.094025  0  1.019277  0
H  H49  1  0.13784291  0.15714719  0.50109648  1  0.053073  0  0.096745  0.094066  0  1.019267  0
H  H50  1  0.78760615  0.76852175  0.55664836  1  0.045441  0  0.103059  0.105289  0  0.990567  0
H  H51  1  0.21239322  0.23147945  0.44335029  1  0.045377  0  0.103044  0.105239  0  0.990604  0
H  H52  1  0.85714355  0.62632094  0.59308899  1  0.081467  0  0.10188  0.113241  0  1.050363  0
H  H53  1  0.14285501  0.37368211  0.40690962  1  0.081421  0  0.101887  0.113229  0  1.050387  0
H  H54  1  0.53267150  0.26595189  0.64599492  1  0.184328  0  0.14061  0.115962  0  0.998128  0
H  H55  1  0.46732816  0.73404868  0.35400715  1  0.184375  0  0.14058  0.115939  0  0.998146  0
H  H56  1  0.41146557  0.09871597  0.56100531  1  0.098803  0  0.108503  0.12455  0  0.997698  0
H  H57  1  0.58853573  0.90128585  0.43899408  1  0.098719  0  0.108496  0.124579  0  0.997637  0
H  H58  1  0.43974338  0.06325750  0.44236993  1  0.094026  0  0.1023  0.105909  0  1.001675  0
H  H59  1  0.56025574  0.93674802  0.55762798  1  0.093992  0  0.102309  0.105926  0  1.001779  0
H  H60  1  0.52774542  0.10837812  0.36790855  1  0.077146  0  0.103975  0.105697  0  1.017403  0
H  H61  1  0.47225509  0.89162677  0.63209169  1  0.077112  0  0.103991  0.105704  0  1.017358  0
H  H62  1  0.59330382  0.18958196  0.40661283  1  0.08389  0  0.107337  0.120083  0  0.996721  0
H  H63  1  0.40669558  0.81042293  0.59338703  1  0.083991  0  0.107288  0.120045  0  0.996746  0
H  H64  1  0.70837255  0.15658340  0.47886491  1  0.117079  0  0.118048  0.134787  0  1.012371  0
H  H65  1  0.29162520  0.84342147  0.52113803  1  0.117015  0  0.118045  0.134823  0  1.012529  0
H  H66  1  0.78031030  0.35273892  0.48786634  1  0.144559  0  0.112491  0.130727  0  1.051147  0
H  H67  1  0.21969130  0.64726475  0.51213339  1  0.144572  0  0.112461  0.13066  0  1.05118  0
H  H68  1  0.53812348  0.38533505  0.56535956  1  0.100121  0  0.118223  0.138682  0  0.995267  0
H  H69  1  0.46187952  0.61467168  0.43464226  1  0.100775  0  0.118305  0.138782  0  0.995229  0
H  H70  1  0.84637433  0.30076354  0.38936851  1  0.196809  0  0.142207  0.114526  0  1.006259  0
H  H71  1  0.15362752  0.69923582  0.61063148  1  0.196785  0  0.142204  0.114522  0  1.006356  0
H  H72  1  0.05341571  0.01546613  0.34721523  1  0.088653  0  0.107677  0.12445  0  1.009819  0
H  H73  1  0.94658174  0.98453445  0.65278414  1  0.089012  0  0.107673  0.124454  0  1.009806  0
H  H74  1  0.04170205  0.89651556  0.41177352  1  0.041631  0  0.094243  0.087807  0  1.031678  0
H  H75  1  0.95829594  0.10348502  0.58822482  1  0.041484  0  0.094228  0.087794  0  1.031691  0
H  H76  1  0.92688493  0.92105489  0.49625380  1  0.073469  0  0.102156  0.100613  0  1.018345  0
H  H77  1  0.07311334  0.07894384  0.50374707  1  0.073439  0  0.102152  0.100586  0  1.01836  0
H  H78  1  0.81879698  0.06096013  0.51898955  1  0.068257  0  0.10901  0.120096  0  0.995899  0
H  H79  1  0.18119990  0.93903921  0.48100995  1  0.068068  0  0.109022  0.120098  0  0.99589  0
H  H80  1  0.66608436  0.72256117  0.14936482  1  0.176785  0  0.142306  0.1134  0  0.995093  0
H  H81  1  0.33391582  0.27743695  0.85063493  1  0.176851  0  0.142332  0.113395  0  0.995149  0
H  H82  1  0.56158951  0.01515831  0.20779344  1  0.127933  0  0.10898  0.129243  0  1.026066  0
H  H83  1  0.43840793  0.98484103  0.79220650  1  0.12798  0  0.108966  0.129223  0  1.025943  0
H  H84  1  0.58048212  0.11638347  0.12498754  1  0.047399  0  0.101049  0.101473  0  1.009257  0
H  H85  1  0.41951918  0.88361465  0.87501355  1  0.047543  0  0.101083  0.101565  0  1.009317  0
H  H86  1  0.64928869  0.07284221  0.01549590  1  0.102423  0  0.095686  0.097926  0  1.040547  0
H  H87  1  0.35071231  0.92715407  0.98450389  1  0.102283  0  0.095704  0.09797  0  1.04056  0
H  H88  1  0.70715797  0.92631789  0.98411658  1  0.069385  0  0.103089  0.113752  0  1.004481  0
H  H89  1  0.29284359  0.07367839  0.01588461  1  0.069374  0  0.103097  0.113741  0  1.004401  0
H  H90  1  0.59990382  0.44847586  0.64661552  1  0.169441  0  0.137889  0.107077  0  1.024693  0
H  H91  1  0.40009999  0.55152904  0.35338440  1  0.169277  0  0.137889  0.107169  0  1.024602  0
H  H92  1  0.63277599  0.69872502  0.56512334  1  0.082237  0  0.111584  0.131175  0  0.996174  0
H  H93  1  0.36722531  0.30127682  0.43487411  1  0.082407  0  0.111585  0.131152  0  0.996073  0
H  H94  1  0.67554857  0.71294993  0.44710483  1  0.053948  0  0.095896  0.093244  0  1.038373  0
H  H95  1  0.32445247  0.28705374  0.55289350  1  0.054031  0  0.095905  0.093259  0  1.038347  0
H  H96  1  0.69778076  0.60651913  0.36905431  1  0.068916  0  0.097825  0.101146  0  1.055048  0
H  H97  1  0.30221670  0.39348514  0.63094432  1  0.068931  0  0.097817  0.101122  0  1.055025  0
H  H98  1  0.68577119  0.47864178  0.40606138  1  0.088091  0  0.104668  0.118117  0  1.015248  0
H  H99  1  0.31422710  0.52136189  0.59393673  1  0.088079  0  0.104681  0.118145  0  1.015207  0
H  H100  1  0.69227800  0.67789456  0.81455824  1  0.133211  0  0.14157  0.107492  0  1.003223  0
H  H101  1  0.30772302  0.32210541  0.18544131  1  0.133138  0  0.141579  0.107523  0  1.003207  0
H  H102  1  0.57860511  0.47248203  0.85571981  1  0.16805  0  0.107787  0.133436  0  1.01893  0
H  H103  1  0.42139784  0.52751609  0.14428160  1  0.168148  0  0.10777  0.133433  0  1.018866  0
H  H104  1  0.56922318  0.41525416  0.97018390  1  0.085239  0  0.100448  0.103813  0  1.016508  0
H  H105  1  0.43077675  0.58474703  0.02981664  1  0.085197  0  0.100414  0.103796  0  1.016548  0
H  H106  1  0.61180973  0.46149745  0.06191644  1  0.091235  0  0.102109  0.10372  0  1.010727  0
H  H107  1  0.38818773  0.53850557  0.93808567  1  0.091253  0  0.102104  0.103676  0  1.010749  0
H  H108  1  0.66888587  0.56419111  0.04510704  1  0.078794  0  0.107222  0.118425  0  0.99823  0
H  H109  1  0.33111323  0.43581070  0.95489305  1  0.078762  0  0.10722  0.118436  0  0.998251  0
H  H110  1  0.62443609  0.72504872  0.01736403  1  0.131061  0  0.126449  0.1513  0  0.976172  0
H  H111  1  0.37556522  0.27495187  0.98263642  1  0.13102  0  0.126455  0.151282  0  0.976155  0
H  H112  1  0.83338036  0.77696128  0.02002535  1  0.08984  0  0.120819  0.140922  0  0.985062  0
H  H113  1  0.16662121  0.22303747  0.97997374  1  0.089882  0  0.12082  0.140919  0  0.984998  0
H  H114  1  0.83169091  0.62020204  0.87358242  1  0.124998  0  0.121725  0.144436  0  0.995181  0
H  H115  1  0.16831039  0.37979732  0.12641763  1  0.125024  0  0.121723  0.144437  0  0.995195  0
H  H116  1  0.09877050  0.01864794  0.21289602  1  0.208547  0  0.138208  0.119378  0  1.012529  0
H  H117  1  0.90123135  0.98135141  0.78710397  1  0.208557  0  0.138216  0.11939  0  1.012554  0
H  H118  1  0.79760379  0.19862107  0.22869492  1  0.127403  0  0.106108  0.131802  0  1.041762  0
H  H119  1  0.20239448  0.80137765  0.77130789  1  0.127383  0  0.106123  0.131774  0  1.041835  0
H  H120  1  0.70156146  0.15036901  0.18844029  1  0.09927  0  0.102492  0.103038  0  1.002725  0
H  H121  1  0.29843764  0.84963032  0.81156288  1  0.099299  0  0.102467  0.103024  0  1.002676  0
H  H122  1  0.75513303  0.01666520  0.13621818  1  0.082979  0  0.09297  0.092302  0  1.047716  0
H  H123  1  0.24486552  0.98333537  0.86378254  1  0.083016  0  0.092964  0.092318  0  1.047637  0
H  H124  1  0.90501787  0.92436804  0.12437940  1  0.064575  0  0.09668  0.102253  0  1.039852  0
H  H125  1  0.09498013  0.07563253  0.87562185  1  0.064722  0  0.096674  0.102257  0  1.039823  0
H  H126  1  0.99958258  0.83801157  0.19882943  1  0.120951  0  0.11428  0.130489  0  1.024115  0
H  H127  1  0.00041487  0.16198776  0.80117294  1  0.121065  0  0.114305  0.130507  0  1.024027  0
H  H128  1  0.22395919  0.67884198  0.08864272  1  0.112193  0  0.116132  0.133979  0  1.010338  0
H  H129  1  0.77603824  0.32115366  0.91135940  1  0.112199  0  0.116138  0.133996  0  1.010312  0
H  H130  1  0.16664302  0.93288800  0.10960619  1  0.097913  0  0.118157  0.137638  0  0.988032  0
H  H131  1  0.83335797  0.06710705  0.89039368  1  0.097804  0  0.118131  0.137601  0  0.988029  0
H  H132  1  0.20816136  0.58376302  0.15547789  1  0.088196  0  0.133801  0.09972  0  1.002279  0
H  H133  1  0.79183801  0.41623569  0.84452579  1  0.088167  0  0.1338  0.099729  0  1.002225  0
H  H134  1  0.96958842  0.51858770  0.20046854  1  0.08493  0  0.112959  0.129027  0  0.971621  0
H  H135  1  0.03040985  0.48141226  0.79953128  1  0.084926  0  0.112953  0.129038  0  0.971637  0
H  H136  1  0.82560012  0.63207540  0.20603465  1  0.090784  0  0.099917  0.109628  0  1.022574  0
H  H137  1  0.17439814  0.36792458  0.79396225  1  0.090819  0  0.099913  0.109594  0  1.02256  0
H  H138  1  0.80092413  0.77650304  0.18585775  1  0.080146  0  0.099267  0.102894  0  1.012934  0
H  H139  1  0.19907441  0.22349755  0.81414005  1  0.080173  0  0.099209  0.102807  0  1.01304  0
H  H140  1  0.91462364  0.81488979  0.16013281  1  0.046537  0  0.097063  0.102043  0  1.061826  0
H  H141  1  0.08537463  0.18511140  0.83986692  1  0.046525  0  0.097066  0.102047  0  1.061833  0
H  H142  1  0.33451487  0.83073667  0.13334099  1  0.12925  0  0.140191  0.108743  0  0.966517  0
H  H143  1  0.66548422  0.16926392  0.86665773  1  0.129215  0  0.140201  0.108731  0  0.966528  0
H  H144  1  0.49554134  0.72431773  0.92120344  1  0.055224  0  0.100629  0.108317  0  1.00846  0
H  H145  1  0.50445417  0.27568224  0.07879470  1  0.055095  0  0.100649  0.108355  0  1.008456  0
H  H146  1  0.43491901  0.67794449  0.83871690  1  0.125946  0  0.098037  0.112665  0  1.041282  0
H  H147  1  0.56507814  0.32205302  0.16128124  1  0.125976  0  0.097999  0.112587  0  1.041322  0
H  H148  1  0.29721072  0.68331081  0.86128268  1  0.076542  0  0.100083  0.098804  0  1.016698  0
H  H149  1  0.70278369  0.31668914  0.13871654  1  0.076455  0  0.100081  0.098783  0  1.016775  0
H  H150  1  0.21271820  0.73606607  0.96598172  1  0.076621  0  0.099072  0.106637  0  1.033671  0
H  H151  1  0.78727922  0.26393080  0.03401935  1  0.076737  0  0.099022  0.106572  0  1.033797  0
H  H152  1  0.87163496  0.76259303  0.82338199  1  0.163936  0  0.1394  0.107868  0  1.008918  0
H  H153  1  0.12836744  0.23740509  0.17661900  1  0.163823  0  0.139418  0.107913  0  1.008851  0
H  H154  1  0.16270017  0.67852916  0.86585271  1  0.094996  0  0.107668  0.127584  0  1.019052  0
H  H155  1  0.83729923  0.32147325  0.13414975  1  0.0949  0  0.107685  0.127615  0  1.018992  0
H  H156  1  0.21773922  0.59334020  0.96714923  1  0.059226  0  0.091675  0.089377  0  1.055003  0
H  H157  1  0.78226181  0.40665977  0.03285177  1  0.059237  0  0.091677  0.089405  0  1.055018  0
H  H158  1  0.12889029  0.55375965  0.04676825  1  0.089562  0  0.091816  0.091605  0  1.04385  0
H  H159  1  0.87111183  0.44623786  0.95323232  1  0.0896  0  0.091815  0.091601  0  1.043882  0
H  H160  1  0.98097330  0.59969941  0.03136780  1  0.103256  0  0.102791  0.11498  0  1.011901  0
H  H161  1  0.01902882  0.40029933  0.96863366  1  0.103242  0  0.102802  0.114975  0  1.011905  0
C  C162  1  0.55691701  0.02095066  0.71296383  1  1.548343  0  0.180155  0.55285  0  4.242545  0
C  C163  1  0.44308758  0.97904749  0.28703499  1  1.548243  0  0.180241  0.552998  0  4.242445  0
C  C164  1  0.62901830  0.93820292  0.70933483  1  -0.022987  0  -0.022846  -0.031838  0  3.996792  0
C  C165  1  0.37098797  0.06179644  0.29066764  1  -0.023002  0  -0.022903  -0.032104  0  3.996936  0
C  C166  1  0.70849099  0.93032038  0.71216873  1  -0.04121  0  -0.077112  -0.09777  0  3.928478  0
C  C167  1  0.29151200  0.06968265  0.28783527  1  -0.040959  0  -0.077118  -0.097751  0  3.928445  0
C  C168  1  0.77602976  0.85318456  0.70746405  1  -0.052956  0  -0.028404  -0.044784  0  4.003818  0
C  C169  1  0.22397158  0.14681720  0.29254457  1  -0.053541  0  -0.028335  -0.044768  0  4.003753  0
C  C170  1  0.86101258  0.84410564  0.71333731  1  1.556632  0  0.180828  0.54851  0  4.260896  0
C  C171  1  0.13899012  0.15589554  0.28666685  1  1.556464  0  0.180874  0.548584  0  4.26073  0
C  C172  1  0.76373407  0.78351324  0.70015500  1  -0.060815  0  -0.081519  -0.112894  0  3.950622  0
C  C173  1  0.23626670  0.21648980  0.29984630  1  -0.060166  0  -0.081518  -0.112849  0  3.950688  0
C  C174  1  0.68420854  0.79071304  0.69890826  1  -0.027185  0  -0.029709  -0.052582  0  4.019833  0
C  C175  1  0.31579249  0.20928941  0.30108918  1  -0.027255  0  -0.029688  -0.052466  0  4.01959  0
C  C176  1  0.67019946  0.71606570  0.69437459  1  1.551019  0  0.181382  0.544399  0  4.275149  0
C  C177  1  0.32980651  0.28393433  0.30561961  1  1.55046  0  0.181356  0.544317  0  4.275339  0
C  C178  1  0.61720033  0.86820789  0.70382532  1  -0.062975  0  -0.077677  -0.101457  0  3.942273  0
C  C179  1  0.38280291  0.13179208  0.29617644  1  -0.062979  0  -0.077651  -0.101306  0  3.942208  0
C  C180  1  0.37854691  0.34082935  0.74193374  1  1.533793  0  0.182294  0.541112  0  4.273557  0
C  C181  1  0.62144807  0.65917181  0.25807020  1  1.533754  0  0.182321  0.541261  0  4.273608  0
C  C182  1  0.36124585  0.42940769  0.74368002  1  -0.065573  0  -0.027305  -0.044295  0  4.013458  0
C  C183  1  0.63874885  0.57059409  0.25632342  1  -0.064838  0  -0.027433  -0.044585  0  4.013651  0
C  C184  1  0.42555150  0.45054664  0.74749676  1  -0.025038  0  -0.081572  -0.108095  0  3.942898  0
C  C185  1  0.57444456  0.54945333  0.25250132  1  -0.02485  0  -0.081445  -0.107796  0  3.94261  0
C  C186  1  0.41081617  0.53302737  0.74471630  1  -0.066527  0  -0.025463  -0.039238  0  4.010317  0
C  C187  1  0.58918539  0.46697015  0.25528286  1  -0.066507  0  -0.025436  -0.039259  0  4.010299  0
C  C188  1  0.48107834  0.55472873  0.74369841  1  1.542905  0  0.18606  0.547568  0  4.246583  0
C  C189  1  0.51892294  0.44526692  0.25630333  1  1.542899  0  0.18608  0.547571  0  4.24643  0
C  C190  1  0.33076946  0.59463620  0.73981105  1  -0.042553  0  -0.078251  -0.108379  0  3.938609  0
C  C191  1  0.66923157  0.40536378  0.26018898  1  -0.042508  0  -0.078281  -0.108458  0  3.938616  0
C  C192  1  0.26590273  0.57411698  0.73633168  1  0.010096  0  -0.023727  -0.036713  0  4.003136  0
C  C193  1  0.73409802  0.42588360  0.26366930  1  0.010448  0  -0.023802  -0.036864  0  4.003259  0
C  C194  1  0.18029371  0.64020076  0.72984723  1  1.557167  0  0.181965  0.54286  0  4.276469  0
C  C195  1  0.81970760  0.35980230  0.27015111  1  1.556771  0  0.181992  0.542812  0  4.276424  0
C  C196  1  0.28157637  0.49143705  0.73763598  1  -0.037483  0  -0.078208  -0.104838  0  3.935867  0
C  C197  1  0.71841916  0.50856535  0.26236637  1  -0.03821  0  -0.078116  -0.104542  0  3.935896  0
C  C198  1  0.24333010  0.25499066  0.66292798  1  0.995038  0  0.159028  0.133045  0  3.924623  0
C  C199  1  0.75667228  0.74500747  0.33707058  1  0.995075  0  0.159051  0.133184  0  3.924773  0
C  C200  1  0.27040967  0.12616143  0.67127949  1  0.406416  0  0.085956  0.143379  0  4.04554  0
C  C201  1  0.72958996  0.87383795  0.32871732  1  0.406376  0  0.085999  0.143387  0  4.045859  0
C  C202  1  0.30730908  0.04069907  0.68034933  1  -0.025289  0  -0.087849  -0.149135  0  3.955923  0
C  C203  1  0.69269110  0.95929907  0.31964798  1  -0.025348  0  -0.087873  -0.149141  0  3.956079  0
C  C204  1  0.25940019  0.00001636  0.67429457  1  0.035816  0  -0.098598  -0.08941  0  4.03559  0
C  C205  1  0.74059945  0.99998175  0.32570766  1  0.03585  0  -0.098585  -0.089319  0  4.035464  0
C  C206  1  0.17740674  0.04285938  0.65842667  1  -0.107748  0  -0.100276  -0.085828  0  4.035249  0
C  C207  1  0.82259289  0.95713874  0.34157362  1  -0.1078  0  -0.100269  -0.085936  0  4.035277  0
C  C208  1  0.14042971  0.12794741  0.64771185  1  0.000641  0  -0.105595  -0.181259  0  4.038354  0
C  C209  1  0.85956801  0.87205130  0.35229150  1  0.001075  0  -0.105684  -0.181285  0  4.038576  0
C  C210  1  0.18777634  0.16924255  0.65500441  1  0.239651  0  0.089824  0.091433  0  3.984313  0
C  C211  1  0.81222330  0.83075557  0.34499539  1  0.239265  0  0.089847  0.091522  0  3.984487  0
C  C212  1  0.09970216  0.32276749  0.63605603  1  0.316492  0  0.105789  0.225571  0  4.038952  0
C  C213  1  0.90029747  0.67723064  0.36394280  1  0.316131  0  0.105755  0.225563  0  4.03899  0
C  C214  1  0.02389317  0.32550016  0.65971124  1  0.063055  0  -0.096642  -0.272516  0  3.952615  0
C  C215  1  0.97610535  0.67449921  0.34028519  1  0.063523  0  -0.096642  -0.272659  0  3.952459  0
C  C216  1  0.95337433  0.39649854  0.64684877  1  0.313753  0  0.105  0.226983  0  4.028415  0
C  C217  1  0.04662557  0.60350022  0.35314757  1  0.313181  0  0.10503  0.227144  0  4.028217  0
C  C218  1  0.95777976  0.46465478  0.61331485  1  0.092292  0  -0.094703  -0.271239  0  3.920448  0
C  C219  1  0.04221960  0.53534521  0.38668048  1  0.092748  0  -0.094698  -0.271309  0  3.920477  0
C  C220  1  0.03431331  0.46304453  0.59332687  1  0.281634  0  0.110549  0.232493  0  4.006841  0
C  C221  1  0.96568633  0.53695483  0.40667090  1  0.281367  0  0.110552  0.232545  0  4.00692  0
C  C222  1  0.10577519  0.39022435  0.60313651  1  0.081216  0  -0.094065  -0.274814  0  3.927019  0
C  C223  1  0.89422499  0.60977501  0.39686218  1  0.081187  0  -0.094024  -0.274794  0  3.927181  0
C  C224  1  0.81012550  0.47438453  0.69089624  1  0.987723  0  0.161197  0.14179  0  3.90716  0
C  C225  1  0.18987192  0.52561484  0.30909932  1  0.987929  0  0.161263  0.141893  0  3.907105  0
C  C226  1  0.76613549  0.38131267  0.70927410  1  0.367579  0  0.083409  0.138852  0  4.054012  0
C  C227  1  0.23386332  0.61868607  0.29072526  1  0.367701  0  0.083346  0.138681  0  4.053943  0
C  C228  1  0.72002587  0.33746361  0.72743237  1  0.025564  0  -0.094173  -0.159897  0  3.969069  0
C  C229  1  0.27997321  0.66253452  0.27256700  1  0.025521  0  -0.094177  -0.159779  0  3.969102  0
C  C230  1  0.75748207  0.25339668  0.71658686  1  -0.102874  0  -0.103427  -0.100653  0  4.05054  0
C  C231  1  0.24251976  0.74660022  0.28341281  1  -0.102767  0  -0.103445  -0.100724  0  4.050642  0
C  C232  1  0.83863698  0.21390692  0.68809226  1  0.028366  0  -0.10325  -0.09283  0  4.051586  0
C  C233  1  0.16136457  0.78609060  0.31190642  1  0.028154  0  -0.103287  -0.092901  0  4.051504  0
C  C234  1  0.88562650  0.25664354  0.67010055  1  -0.028611  0  -0.104211  -0.175899  0  4.028184  0
C  C235  1  0.11437204  0.74335704  0.32989822  1  -0.028731  0  -0.104208  -0.175868  0  4.028114  0
C  C236  1  0.84874066  0.34064015  0.68189332  1  0.261189  0  0.089315  0.096162  0  3.972134  0
C  C237  1  0.15125539  0.65935982  0.31810379  1  0.261299  0  0.089396  0.096205  0  3.972005  0
C  C238  1  0.11457852  0.53346601  0.53705626  1  1.001758  0  0.149845  0.136152  0  3.941772  0
C  C239  1  0.88542085  0.46653396  0.46294344  1  1.001498  0  0.149826  0.136146  0  3.941757  0
C  C240  1  0.02273248  0.65644787  0.52020705  1  0.44805  0  0.083683  0.145583  0  4.069388  0
C  C241  1  0.97726742  0.34354965  0.47978985  1  0.44825  0  0.083667  0.145539  0  4.069295  0
C  C242  1  0.98149539  0.73925228  0.50118597  1  -0.063178  0  -0.0956  -0.154361  0  3.999965  0
C  C243  1  0.01850591  0.26074708  0.49881359  1  -0.06319  0  -0.095615  -0.154369  0  3.999554  0
C  C244  1  0.89649420  0.77850558  0.51374592  1  -4.7e-05  0  -0.100837  -0.09558  0  4.044827  0
C  C245  1  0.10350764  0.22149380  0.48625067  1  -5.2e-05  0  -0.100812  -0.095645  0  4.044703  0
C  C246  1  0.85396717  0.73610205  0.54586961  1  0.032285  0  -0.092076  -0.066333  0  4.00601  0
C  C247  1  0.14603193  0.26389978  0.45412660  1  0.032525  0  -0.09205  -0.066219  0  4.005921  0
C  C248  1  0.89407864  0.65362050  0.56604467  1  -0.050358  0  -0.094649  -0.163371  0  3.982403  0
C  C249  1  0.10591935  0.34638133  0.43395165  1  -0.050381  0  -0.094674  -0.163425  0  3.982446  0
C  C250  1  0.97940794  0.61317354  0.55192019  1  0.287218  0  0.094191  0.100738  0  3.931104  0
C  C251  1  0.02059141  0.38682522  0.44807668  1  0.286863  0  0.094238  0.100811  0  3.931204  0
C  C252  1  0.52434124  0.23570744  0.60589313  1  1.000298  0  0.162594  0.140778  0  3.90165  0
C  C253  1  0.47565924  0.76429252  0.39410792  1  1.000332  0  0.162582  0.140795  0  3.901432  0
C  C254  1  0.48748245  0.16336715  0.54982701  1  0.417492  0  0.087918  0.140198  0  4.056381  0
C  C255  1  0.51251748  0.83663528  0.45017247  1  0.417103  0  0.087916  0.140267  0  4.056285  0
C  C256  1  0.45066720  0.11811102  0.52753304  1  -0.044842  0  -0.088311  -0.151913  0  3.969283  0
C  C257  1  0.54933355  0.88189080  0.47246592  1  -0.044436  0  -0.088361  -0.152042  0  3.969258  0
C  C258  1  0.46676539  0.09887327  0.46172187  1  -0.016732  0  -0.092462  -0.087757  0  4.015219  0
C  C259  1  0.53323374  0.90113224  0.53827700  1  -0.01686  0  -0.092467  -0.087839  0  4.015468  0
C  C260  1  0.51788285  0.12404751  0.41905371  1  -0.070317  0  -0.090315  -0.074741  0  4.011295  0
C  C261  1  0.48211655  0.87595739  0.58094566  1  -0.070227  0  -0.090296  -0.074625  0  4.01127  0
C  C262  1  0.55547177  0.16878012  0.44043979  1  0.009016  0  -0.096379  -0.171437  0  4.017931  0
C  C263  1  0.44452872  0.83122354  0.55956005  1  0.008902  0  -0.096316  -0.171393  0  4.017948  0
C  C264  1  0.53980304  0.18717017  0.50653538  1  0.267254  0  0.089139  0.087294  0  4.005848  0
C  C265  1  0.46019608  0.81283410  0.49346455  1  0.267457  0  0.089196  0.087297  0  4.005803  0
C  C266  1  0.61898577  0.26648679  0.52586894  1  0.326807  0  0.10706  0.224471  0  4.046878  0
C  C267  1  0.38101282  0.73351868  0.47413533  1  0.326553  0  0.107112  0.224545  0  4.046788  0
C  C268  1  0.69465703  0.21806831  0.49284508  1  0.012785  0  -0.087281  -0.263185  0  3.922695  0
C  C269  1  0.30534156  0.78193592  0.50716025  1  0.013493  0  -0.087329  -0.263287  0  3.922853  0
C  C270  1  0.75185207  0.24988051  0.47821982  1  0.360575  0  0.106637  0.221485  0  4.03542  0
C  C271  1  0.24814787  0.75012189  0.52178306  1  0.360076  0  0.106655  0.221427  0  4.035545  0
C  C272  1  0.73404062  0.32935207  0.49546771  1  0.016186  0  -0.086927  -0.259437  0  3.909158  0
C  C273  1  0.26596208  0.67065034  0.50453636  1  0.016746  0  -0.086861  -0.259316  0  3.909046  0
C  C274  1  0.65670740  0.37715287  0.52611196  1  0.32891  0  0.104636  0.220069  0  4.042855  0
C  C275  1  0.34329557  0.62285018  0.47388962  1  0.328694  0  0.104615  0.220142  0  4.042784  0
C  C276  1  0.59852117  0.34687604  0.54194001  1  0.017078  0  -0.089333  -0.270047  0  3.936844  0
C  C277  1  0.40148072  0.65312945  0.45806394  1  0.016033  0  -0.089472  -0.270272  0  3.936936  0
C  C278  1  0.86869373  0.23508922  0.39946769  1  0.985424  0  0.168985  0.151019  0  3.887675  0
C  C279  1  0.13130813  0.76491012  0.60053424  1  0.985407  0  0.168982  0.150979  0  3.887635  0
C  C280  1  0.94086052  0.10316139  0.39574343  1  0.417378  0  0.090072  0.147101  0  4.049246  0
C  C281  1  0.05913831  0.89683856  0.60425973  1  0.417368  0  0.089985  0.146897  0  4.049526  0
C  C282  1  0.00168474  0.02392548  0.38287096  1  -0.013202  0  -0.087682  -0.150318  0  3.96816  0
C  C283  1  0.99831408  0.97607447  0.61713025  1  -0.01367  0  -0.08764  -0.150246  0  3.968134  0
C  C284  1  0.99441863  0.95914583  0.41922719  1  -0.033682  0  -0.099347  -0.098428  0  4.044272  0
C  C285  1  0.00557936  0.04085352  0.58077221  1  -0.033432  0  -0.099421  -0.098548  0  4.044248  0
C  C286  1  0.92899465  0.97292746  0.46727020  1  -0.037589  0  -0.091625  -0.077666  0  4.026092  0
C  C287  1  0.07100279  0.02707188  0.53273022  1  -0.037618  0  -0.091623  -0.077603  0  4.026135  0
C  C288  1  0.86767891  0.05167646  0.48044633  1  0.020966  0  -0.095052  -0.169149  0  4.018122  0
C  C289  1  0.13231991  0.94832351  0.51955343  1  0.021112  0  -0.095008  -0.169067  0  4.018056  0
C  C290  1  0.87426108  0.11662821  0.44354146  1  0.291814  0  0.091668  0.087385  0  3.984764  0
C  C291  1  0.12573774  0.88337175  0.55645976  1  0.29184  0  0.091688  0.08742  0  3.984723  0
C  C292  1  0.65692863  0.78500474  0.13690181  1  0.98584  0  0.165173  0.138342  0  3.920286  0
C  C293  1  0.34307238  0.21499277  0.86309790  1  0.985851  0  0.165107  0.138339  0  3.920432  0
C  C294  1  0.62540516  0.91467073  0.14216082  1  0.42499  0  0.090286  0.147942  0  4.035345  0
C  C295  1  0.37459338  0.08532738  0.85783957  1  0.425042  0  0.090325  0.148078  0  4.035202  0
C  C296  1  0.59392135  0.99665781  0.15973770  1  -0.055803  0  -0.085333  -0.145265  0  3.943642  0
C  C297  1  0.40607553  0.00334153  0.84026229  1  -0.05578  0  -0.085329  -0.145261  0  3.943468  0
C  C298  1  0.60427917  0.05191542  0.11320141  1  0.034849  0  -0.095052  -0.089759  0  4.018408  0
C  C299  1  0.39571992  0.94808270  0.88679844  1  0.034618  0  -0.095081  -0.089842  0  4.018461  0
C  C300  1  0.64472445  0.02685209  0.05076744  1  -0.105943  0  -0.095259  -0.079788  0  4.023368  0
C  C301  1  0.35527574  0.97314603  0.94923279  1  -0.105642  0  -0.095309  -0.079913  0  4.023359  0
C  C302  1  0.67695972  0.94533778  0.03269751  1  -0.027065  0  -0.103254  -0.18085  0  4.03509  0
C  C303  1  0.32304157  0.05465911  0.96730319  1  -0.027299  0  -0.103276  -0.180802  0  4.034816  0
C  C304  1  0.66664679  0.89009361  0.07954890  1  0.290842  0  0.089252  0.088452  0  4.010822  0
C  C305  1  0.33335286  0.10990573  0.92045227  1  0.29087  0  0.089236  0.08837  0  4.010673  0
C  C306  1  0.61353271  0.48464696  0.60687211  1  1.012187  0  0.160323  0.137743  0  3.91062  0
C  C307  1  0.38647054  0.51535671  0.39312697  1  1.012309  0  0.160225  0.137644  0  3.910578  0
C  C308  1  0.63644751  0.58009097  0.55173999  1  0.400152  0  0.08886  0.148419  0  4.042102  0
C  C309  1  0.36355188  0.41991393  0.44825744  1  0.400463  0  0.088803  0.148442  0  4.041999  0
C  C310  1  0.64537382  0.65095914  0.53096377  1  -0.04384  0  -0.085191  -0.138723  0  3.951393  0
C  C311  1  0.35462721  0.34904453  0.46903407  1  -0.044172  0  -0.085123  -0.138597  0  3.951291  0
C  C312  1  0.66913647  0.65791899  0.46504717  1  0.002392  0  -0.102884  -0.104824  0  4.045655  0
C  C313  1  0.33086264  0.34208530  0.53495081  1  0.002467  0  -0.102929  -0.104978  0  4.045667  0
C  C314  1  0.68228821  0.59713708  0.42067907  1  -0.030253  0  -0.103153  -0.105443  0  4.032522  0
C  C315  1  0.31771173  0.40286535  0.57932090  1  -0.030389  0  -0.103154  -0.105355  0  4.032343  0
C  C316  1  0.67483748  0.52543672  0.44077494  1  0.001849  0  -0.098109  -0.165983  0  4.005819  0
C  C317  1  0.32516190  0.47456571  0.55922412  1  0.001956  0  -0.098078  -0.16599  0  4.005601  0
C  C318  1  0.65299729  0.51781128  0.50716563  1  0.269161  0  0.091242  0.091837  0  3.99328  0
C  C319  1  0.34700156  0.48219361  0.49283283  1  0.269007  0  0.091252  0.091893  0  3.993005  0
C  C320  1  0.67503144  0.63714432  0.84708946  1  1.023528  0  0.16587  0.141392  0  3.914315  0
C  C321  1  0.32497014  0.36285565  0.15291100  1  1.02369  0  0.165896  0.141409  0  3.914321  0
C  C322  1  0.62925865  0.54987133  0.88714690  1  0.341345  0  0.087171  0.14038  0  4.055225  0
C  C323  1  0.37073935  0.45013048  0.11285330  1  0.341641  0  0.087143  0.140276  0  4.055301  0
C  C324  1  0.59830543  0.49141726  0.89687697  1  -0.013093  0  -0.09015  -0.15515  0  3.951176  0
C  C325  1  0.40169450  0.50858270  0.10312365  1  -0.013546  0  -0.09018  -0.155172  0  3.95124  0
C  C326  1  0.59351335  0.46039748  0.96038728  1  -0.087146  0  -0.095778  -0.091179  0  4.027462  0
C  C327  1  0.40648741  0.53960309  0.03961468  1  -0.086594  0  -0.095793  -0.091276  0  4.027621  0
C  C328  1  0.61783907  0.48701865  0.01308108  1  -0.04128  0  -0.091912  -0.079789  0  4.020211  0
C  C329  1  0.38215923  0.51298499  0.98692043  1  -0.041625  0  -0.091897  -0.079623  0  4.020111  0
C  C330  1  0.64951530  0.54453115  0.00419662  1  -0.025933  0  -0.096738  -0.171523  0  4.022672  0
C  C331  1  0.35048436  0.45547066  0.99580294  1  -0.026055  0  -0.0967  -0.171564  0  4.022621  0
C  C332  1  0.65522875  0.57471747  0.94033579  1  0.319442  0  0.090121  0.084425  0  4.014051  0
C  C333  1  0.34477117  0.42528250  0.05966386  1  0.319332  0  0.09014  0.084463  0  4.01401  0
C  C334  1  0.72481168  0.66768327  0.94330127  1  0.417388  0  0.106853  0.217301  0  4.036327  0
C  C335  1  0.27519016  0.33231609  0.05669775  1  0.417482  0  0.106849  0.217303  0  4.036236  0
C  C336  1  0.68610146  0.71521814  0.99795853  1  -0.008043  0  -0.07471  -0.245383  0  3.897474  0
C  C337  1  0.31389985  0.28478369  0.00203989  1  -0.008591  0  -0.074677  -0.245277  0  3.897357  0
C  C338  1  0.72600028  0.75436341  0.02484101  1  0.321913  0  0.107098  0.21475  0  4.042579  0
C  C339  1  0.27400074  0.24563656  0.97515853  1  0.322206  0  0.107122  0.214786  0  4.042515  0
C  C340  1  0.80295678  0.74628385  0.99836887  1  0.025477  0  -0.078286  -0.247435  0  3.926725  0
C  C341  1  0.19704480  0.25371613  0.00163110  1  0.025528  0  -0.078303  -0.247469  0  3.926819  0
C  C342  1  0.83956041  0.69926948  0.94322285  1  0.35206  0  0.104022  0.213296  0  4.044159  0
C  C343  1  0.16043952  0.30073049  0.05677729  1  0.352  0  0.103972  0.21322  0  4.044249  0
C  C344  1  0.80167702  0.65890569  0.91550188  1  -0.009782  0  -0.078042  -0.249301  0  3.908688  0
C  C345  1  0.19832536  0.34109121  0.08449822  1  -0.009742  0  -0.078008  -0.249311  0  3.90865  0
C  C346  1  0.03708921  0.02955529  0.20365316  1  0.955352  0  0.155963  0.122598  0  3.912833  0
C  C347  1  0.96291071  0.97044345  0.79634657  1  0.955403  0  0.155971  0.122613  0  3.912729  0
C  C348  1  0.90406215  0.08598174  0.20233568  1  0.313905  0  0.085268  0.146324  0  4.037028  0
C  C349  1  0.09593667  0.91401697  0.79766805  1  0.313889  0  0.085213  0.146263  0  4.036981  0
C  C350  1  0.81972063  0.13832615  0.20806997  1  0.000657  0  -0.088975  -0.150357  0  3.938003  0
C  C351  1  0.18027846  0.86167196  0.79193231  1  0.001141  0  -0.088998  -0.150346  0  3.938028  0
C  C352  1  0.76752756  0.11098932  0.18488655  1  -0.032559  0  -0.093847  -0.083111  0  4.02165  0
C  C353  1  0.23247043  0.88901001  0.81511625  1  -0.032982  0  -0.093826  -0.083122  0  4.021492  0
C  C354  1  0.79801296  0.03466683  0.15523626  1  -0.023255  0  -0.095945  -0.075916  0  4.022071  0
C  C355  1  0.20198503  0.96533250  0.84476605  1  -0.023263  0  -0.095937  -0.075884  0  4.022001  0
C  C356  1  0.88174513  0.98212530  0.14913909  1  -0.022459  0  -0.106606  -0.184501  0  4.044351  0
C  C357  1  0.11825287  0.01787527  0.85086120  1  -0.022686  0  -0.106628  -0.18457  0  4.044403  0
C  C358  1  0.93391272  0.00799638  0.17471853  1  0.272989  0  0.086905  0.090312  0  4.000689  0
C  C359  1  0.06608638  0.99200295  0.82528367  1  0.273107  0  0.086924  0.090391  0  4.000726  0
C  C360  1  0.07615566  0.89371582  0.15533216  1  0.352779  0  0.102748  0.218088  0  4.04163  0
C  C361  1  0.92384507  0.10628107  0.84466859  1  0.352739  0  0.102686  0.218151  0  4.041645  0
C  C362  1  0.05519737  0.82846768  0.16812860  1  -0.041984  0  -0.091516  -0.26522  0  3.935493  0
C  C363  1  0.94480118  0.17153165  0.83187414  1  -0.041965  0  -0.091494  -0.265203  0  3.935531  0
C  C364  1  0.10753056  0.75119938  0.14343570  1  0.318151  0  0.107303  0.224376  0  4.021975  0
C  C365  1  0.89246853  0.24879872  0.85656707  1  0.317998  0  0.107248  0.224255  0  4.021985  0
C  C366  1  0.18229940  0.73845825  0.10830369  1  0.030373  0  -0.08661  -0.258987  0  3.913073  0
C  C367  1  0.81769916  0.26154108  0.89169954  1  0.03045  0  -0.086522  -0.258837  0  3.912971  0
C  C368  1  0.20402788  0.80346478  0.09887427  1  0.333351  0  0.104526  0.220535  0  4.041959  0
C  C369  1  0.79597451  0.19653086  0.90113028  1  0.333313  0  0.104489  0.220446  0  4.041924  0
C  C370  1  0.15096634  0.88181425  0.12117449  1  0.036503  0  -0.091156  -0.271855  0  3.939311  0
C  C371  1  0.84903549  0.11818264  0.87882615  1  0.036657  0  -0.091122  -0.271811  0  3.939199  0
C  C372  1  0.14237348  0.60245565  0.16022901  1  1.052787  0  0.150746  0.12957  0  3.957454  0
C  C373  1  0.85762589  0.39754306  0.83977467  1  1.052859  0  0.150862  0.129728  0  3.957132  0
C  C374  1  0.02334137  0.60356954  0.17753956  1  0.345236  0  0.081661  0.137497  0  4.076956  0
C  C375  1  0.97665637  0.39643163  0.82246314  1  0.34604  0  0.081615  0.137523  0  4.077077  0
C  C376  1  0.95788699  0.58260634  0.19122486  1  -0.016612  0  -0.086997  -0.143915  0  3.961211  0
C  C377  1  0.04211017  0.41739486  0.80877303  1  -0.017014  0  -0.08697  -0.143975  0  3.961371  0
C  C378  1  0.87815325  0.64576683  0.19387754  1  -0.034834  0  -0.100756  -0.101145  0  4.022648  0
C  C379  1  0.12184447  0.35423437  0.80612079  1  -0.035191  0  -0.100738  -0.101056  0  4.022777  0
C  C380  1  0.86389229  0.72826488  0.18245732  1  -0.001383  0  -0.101161  -0.083438  0  4.026646  0
C  C381  1  0.13610679  0.27173572  0.81753897  1  -0.001395  0  -0.101111  -0.083334  0  4.026748  0
C  C382  1  0.92820821  0.75048829  0.16850377  1  -0.018668  0  -0.107028  -0.183813  0  4.031426  0
C  C383  1  0.07179116  0.24951168  0.83149497  1  -0.018651  0  -0.107043  -0.183838  0  4.031346  0
C  C384  1  0.00826699  0.68719319  0.16686223  1  0.265831  0  0.086637  0.08733  0  3.989008  0
C  C385  1  0.99173184  0.31280675  0.83313996  1  0.265781  0  0.086553  0.087237  0  3.988903  0
C  C386  1  0.34157793  0.80586338  0.08550165  1  0.978371  0  0.147884  0.117617  0  3.968291  0
C  C387  1  0.65842117  0.19413721  0.91449707  1  0.978382  0  0.147885  0.117702  0  3.968309  0
C  C388  1  0.38838200  0.75524640  0.99044209  1  0.42121  0  0.080151  0.134471  0  4.085173  0
C  C389  1  0.61161461  0.24475356  0.00955594  1  0.420762  0  0.080061  0.134443  0  4.085185  0
C  C390  1  0.43478403  0.72610231  0.93118252  1  -0.030434  0  -0.091107  -0.14834  0  3.982212  0
C  C391  1  0.56521120  0.27389827  0.06881512  1  -0.0304  0  -0.091044  -0.14835  0  3.982065  0
C  C392  1  0.40085235  0.70012900  0.88566492  1  -0.07553  0  -0.09999  -0.102736  0  4.009841  0
C  C393  1  0.59914343  0.29987036  0.11433226  1  -0.075682  0  -0.099975  -0.102638  0  4.009765  0
C  C394  1  0.32181344  0.70355653  0.89846695  1  -0.03055  0  -0.094041  -0.080897  0  4.024278  0
C  C395  1  0.67818316  0.29644096  0.10153319  1  -0.030315  0  -0.094057  -0.08101  0  4.024505  0
C  C396  1  0.27412515  0.73272878  0.95683992  1  -0.027045  0  -0.10136  -0.175936  0  4.028035  0
C  C397  1  0.72587393  0.26726810  0.04316099  1  -0.026966  0  -0.101339  -0.17581  0  4.028084  0
C  C398  1  0.30916651  0.75754858  0.00238222  1  0.25693  0  0.086767  0.086901  0  4.009264  0
C  C399  1  0.69083120  0.24244891  0.99761927  1  0.257277  0  0.086756  0.086914  0  4.00914  0
C  C400  1  0.92239462  0.73366635  0.85411294  1  1.008892  0  0.161988  0.138498  0  3.919898  0
C  C401  1  0.07760695  0.26633238  0.14588809  1  1.008882  0  0.161996  0.138451  0  3.919767  0
C  C402  1  0.04161359  0.68609713  0.89238411  1  0.369619  0  0.088477  0.151062  0  4.039354  0
C  C403  1  0.95838826  0.31390099  0.10761742  1  0.369459  0  0.088431  0.151021  0  4.039329  0
C  C404  1  0.12403194  0.66179609  0.90218555  1  0.057389  0  -0.089678  -0.145194  0  3.952409  0
C  C405  1  0.87597018  0.33820143  0.09781453  1  0.057498  0  -0.089598  -0.145067  0  3.952227  0
C  C406  1  0.15349642  0.61445385  0.95841852  1  -0.027059  0  -0.106827  -0.10561  0  4.044087  0
C  C407  1  0.84650378  0.38554549  0.04158260  1  -0.027024  0  -0.106898  -0.105767  0  4.04406  0
C  C408  1  0.10280866  0.59191225  0.00399941  1  -0.091998  0  -0.105094  -0.088209  0  4.038549  0
C  C409  1  0.89719208  0.40808710  0.99600068  1  -0.091985  0  -0.105119  -0.088249  0  4.038524  0
C  C410  1  0.02008435  0.61683877  0.99577668  1  -0.02541  0  -0.102722  -0.174694  0  4.024114  0
C  C411  1  0.97991693  0.38315690  0.00422264  1  -0.025378  0  -0.102758  -0.174706  0  4.024207  0
C  C412  1  0.99095908  0.66409766  0.93924779  1  0.254611  0  0.088803  0.089754  0  4.009163  0
C  C413  1  0.00904274  0.33589801  0.06075098  1  0.254602  0  0.088846  0.089825  0  4.00912  0
N  N414  1  0.30256674  0.18204641  0.67599008  1  -1.214025  0  -0.340563  -0.33234  0  3.430076  0
N  N415  1  0.69743591  0.81795112  0.32400655  1  -1.214063  0  -0.340561  -0.33237  0  3.430299  0
N  N416  1  0.17276341  0.25197302  0.64889902  1  -1.270005  0  -0.22453  -0.061026  0  3.731332  0
N  N417  1  0.82723650  0.74802572  0.35110168  1  -1.269751  0  -0.224547  -0.061139  0  3.731456  0
N  N418  1  0.74435935  0.46479833  0.71340195  1  -1.209251  0  -0.342377  -0.351929  0  3.418097  0
N  N419  1  0.25563944  0.53519919  0.28659652  1  -1.209306  0  -0.342488  -0.352073  0  3.418225  0
N  N420  1  0.87522539  0.40235243  0.67072152  1  -1.251883  0  -0.223003  -0.05828  0  3.719724  0
N  N421  1  0.12477093  0.59764818  0.32927261  1  -1.252077  0  -0.223023  -0.058303  0  3.71974  0
N  N422  1  0.10658223  0.60502319  0.51223464  1  -1.202665  0  -0.340723  -0.362232  0  3.259217  0
N  N423  1  0.89341823  0.39497556  0.48776456  1  -1.202779  0  -0.340708  -0.36224  0  3.259151  0
N  N424  1  0.04073572  0.53251648  0.56220833  1  -1.229545  0  -0.21699  -0.060759  0  3.661353  0
N  N425  1  0.95926364  0.46748226  0.43778951  1  -1.228932  0  -0.216965  -0.060746  0  3.661387  0
N  N426  1  0.47951771  0.19500356  0.61099045  1  -1.206006  0  -0.339688  -0.322654  0  3.445217  0
N  N427  1  0.52048385  0.80499518  0.38900961  1  -1.206053  0  -0.339645  -0.322637  0  3.445067  0
N  N428  1  0.56246859  0.23336620  0.54407566  1  -1.250431  0  -0.226939  -0.065708  0  3.74634  0
N  N429  1  0.43752971  0.76663867  0.45592577  1  -1.250593  0  -0.226958  -0.065695  0  3.746214  0
N  N430  1  0.93454736  0.17841049  0.36941706  1  -1.189103  0  -0.339515  -0.319508  0  3.422614  0
N  N431  1  0.06545505  0.82158885  0.63058579  1  -1.189015  0  -0.339492  -0.319381  0  3.422554  0
N  N432  1  0.82868850  0.20230152  0.44463570  1  -1.294782  0  -0.222403  -0.058596  0  3.713941  0
N  N433  1  0.17131087  0.79769843  0.55536595  1  -1.2944  0  -0.2224  -0.058555  0  3.713854  0
N  N434  1  0.62159177  0.84704703  0.17639274  1  -1.188117  0  -0.337228  -0.314917  0  3.439924  0
N  N435  1  0.37840648  0.15295047  0.82360675  1  -1.188164  0  -0.337223  -0.315016  0  3.440064  0
N  N436  1  0.68593390  0.80670962  0.07782499  1  -1.260312  0  -0.229954  -0.072634  0  3.764171  0
N  N437  1  0.31406821  0.19328789  0.92217510  1  -1.26019  0  -0.229922  -0.072598  0  3.764167  0
N  N438  1  0.61191959  0.55696587  0.61314642  1  -1.192617  0  -0.341781  -0.324798  0  3.428846  0
N  N439  1  0.38808200  0.44303780  0.38685234  1  -1.192731  0  -0.341717  -0.324838  0  3.4289  0
N  N440  1  0.63826076  0.45735640  0.54435262  1  -1.272322  0  -0.228257  -0.061697  0  3.741517  0
N  N441  1  0.36174083  0.54264726  0.45564759  1  -1.272449  0  -0.228236  -0.061799  0  3.741451  0
N  N442  1  0.64141754  0.59140129  0.83024658  1  -1.193269  0  -0.337201  -0.322131  0  3.436706  0
N  N443  1  0.35858239  0.40859992  0.16975299  1  -1.193326  0  -0.337219  -0.322112  0  3.436714  0
N  N444  1  0.68495788  0.63003312  0.91282402  1  -1.265416  0  -0.229104  -0.070713  0  3.759462  0
N  N445  1  0.31504342  0.36996624  0.08717602  1  -1.265333  0  -0.229105  -0.070714  0  3.7595  0
N  N446  1  0.97039589  0.09714842  0.21931703  1  -1.183002  0  -0.335862  -0.326544  0  3.432528  0
N  N447  1  0.02960403  0.90284907  0.78068618  1  -1.183076  0  -0.335802  -0.326424  0  3.432342  0
N  N448  1  0.01942017  0.97275214  0.17670173  1  -1.237526  0  -0.225662  -0.06385  0  3.730148  0
N  N449  1  0.98057947  0.02724598  0.82329855  1  -1.237674  0  -0.225694  -0.064027  0  3.730298  0
N  N450  1  0.10762479  0.55267367  0.17302501  1  -1.19075  0  -0.344112  -0.365783  0  3.232529  0
N  N451  1  0.89237295  0.44732749  0.82698012  1  -1.190849  0  -0.344126  -0.365865  0  3.232524  0
N  N452  1  0.08648728  0.68500513  0.15561723  1  -1.225381  0  -0.226657  -0.075652  0  3.715439  0
N  N453  1  0.91351099  0.31499358  0.84438558  1  -1.225277  0  -0.226645  -0.075651  0  3.715209  0
N  N454  1  0.40660629  0.78550316  0.04341443  1  -1.167297  0  -0.352363  -0.371051  0  3.230807  0
N  N455  1  0.59339143  0.21449929  0.95658187  1  -1.167234  0  -0.352293  -0.371012  0  3.230853  0
N  N456  1  0.28011169  0.79046279  0.06411454  1  -1.235309  0  -0.233524  -0.078743  0  3.736949  0
N  N457  1  0.71988904  0.20953286  0.93588774  1  -1.235446  0  -0.233507  -0.078835  0  3.737006  0
N  N458  1  0.99624539  0.72983897  0.84038494  1  -1.197105  0  -0.335678  -0.32353  0  3.417864  0
N  N459  1  0.00375564  0.27016099  0.15961703  1  -1.196981  0  -0.335675  -0.323569  0  3.41793  0
N  N460  1  0.91499849  0.69565262  0.91318096  1  -1.263485  0  -0.231428  -0.072479  0  3.751787  0
N  N461  1  0.08500307  0.30434490  0.08681918  1  -1.263455  0  -0.231398  -0.072365  0  3.751695  0
O  O462  1  0.48801548  0.02746252  0.69724084  1  -1.174792  0  -0.343156  -0.577347  0  2.192083  0
O  O463  1  0.51198773  0.97253252  0.30276173  1  -1.174913  0  -0.343138  -0.577296  0  2.192033  0
O  O464  1  0.56654221  0.08102990  0.73121662  1  -1.158619  0  -0.349505  -0.557034  0  2.129594  0
O  O465  1  0.43346156  0.91897134  0.26877868  1  -1.15859  0  -0.34955  -0.557058  0  2.129605  0
O  O466  1  0.87135949  0.90571303  0.72630674  1  -1.193485  0  -0.353249  -0.596831  0  2.14334  0
O  O467  1  0.12864814  0.09428698  0.27369070  1  -1.193332  0  -0.353329  -0.596927  0  2.142991  0
O  O468  1  0.91944489  0.77104499  0.70774982  1  -1.146539  0  -0.340988  -0.548116  0  2.230606  0
O  O469  1  0.08055697  0.22895435  0.29225212  1  -1.146459  0  -0.341028  -0.548147  0  2.23079  0
O  O470  1  0.73051397  0.64861687  0.67856968  1  -1.205593  0  -0.341111  -0.582843  0  2.175322  0
O  O471  1  0.26949117  0.35138253  0.32142512  1  -1.205433  0  -0.341096  -0.582832  0  2.175471  0
O  O472  1  0.59673099  0.72414626  0.70940640  1  -1.14591  0  -0.343999  -0.552524  0  2.192699  0
O  O473  1  0.40327388  0.27585499  0.29058734  1  -1.145549  0  -0.34404  -0.552585  0  2.192763  0
O  O474  1  0.45252754  0.28592061  0.74313190  1  -1.17337  0  -0.33768  -0.552885  0  2.164943  0
O  O475  1  0.54746883  0.71408239  0.25687227  1  -1.173481  0  -0.33768  -0.552948  0  2.164987  0
O  O476  1  0.31809078  0.32438841  0.73756984  1  -1.195541  0  -0.340411  -0.592812  0  2.221756  0
O  O477  1  0.68190503  0.67561090  0.26243511  1  -1.195348  0  -0.340452  -0.592866  0  2.221759  0
O  O478  1  0.55310121  0.49584768  0.74870764  1  -1.190881  0  -0.337225  -0.580197  0  2.2368  0
O  O479  1  0.44690197  0.50414617  0.25128869  1  -1.190983  0  -0.337197  -0.580155  0  2.236828  0
O  O480  1  0.46766529  0.62963602  0.73593425  1  -1.15582  0  -0.335786  -0.546515  0  2.153078  0
O  O481  1  0.53233930  0.37035716  0.26407122  1  -1.155725  0  -0.335824  -0.546554  0  2.15281  0
O  O482  1  0.16481020  0.71093049  0.75128504  1  -1.17534  0  -0.341715  -0.577309  0  2.279892  0
O  O483  1  0.83518809  0.28906944  0.24871963  1  -1.175224  0  -0.341712  -0.577327  0  2.279825  0
O  O484  1  0.12907158  0.62526135  0.70405540  1  -1.171485  0  -0.344185  -0.555545  0  2.067884  0
O  O485  1  0.87093248  0.37474422  0.29593668  1  -1.171561  0  -0.344212  -0.555492  0  2.067832  0
