# generated using pymatgen
data_LaH34C38(NO6)2
_symmetry_space_group_name_H-M   'P 1'
_cell_length_a   10.25928461
_cell_length_b   17.39198354
_cell_length_c   19.42848413
_cell_angle_alpha   90.00162026
_cell_angle_beta   90.00099754
_cell_angle_gamma   89.98696928
_symmetry_Int_Tables_number   1
_chemical_formula_structural   LaH34C38(NO6)2
_chemical_formula_sum   'La4 H136 C152 N8 O48'
_cell_volume   3466.61091053
_cell_formula_units_Z   4
loop_
 _symmetry_equiv_pos_site_id
 _symmetry_equiv_pos_as_xyz
  1  'x, y, z'
loop_
 _atom_site_type_symbol
 _atom_site_label
 _atom_site_symmetry_multiplicity
 _atom_site_fract_x
 _atom_site_fract_y
 _atom_site_fract_z
 _atom_site_occupancy
 _atom_site_pbe_bader_charge
 _atom_site_pbe_bader_spin_density
 _atom_site_pbe_cm5_charge
 _atom_site_pbe_ddec_charge
 _atom_site_pbe_ddec_spin_density
 _atom_site_pbe_ddec_sum_bond_order
 _atom_site_pbe_magmom
La  La0  1  0.03902069  0.24996950  0.25001761  1  2.269462  0.000117  1.384066  1.931935  -4e-06  2.372412  0.0
La  La1  1  0.46098857  0.75000972  0.75001845  1  2.269371  0.00903  1.384046  1.931938  0.020234  2.372135  0.009
La  La2  1  0.96099711  0.75003609  0.74997453  1  2.269548  0.000114  1.384079  1.931911  -9e-06  2.372516  0.0
La  La3  1  0.53901949  0.24997863  0.24997986  1  2.2695  0.009028  1.383947  1.931831  0.02022  2.37231  0.009
H  H4  1  0.97215501  0.05204778  0.29732957  1  0.162847  -0.000862  0.126445  0.119031  -0.000725  1.041363  0.0
H  H5  1  0.52786017  0.94794549  0.79732649  1  0.162842  0.00086  0.126475  0.119085  0.0007  1.041359  0.0
H  H6  1  0.97190734  0.44785677  0.20262863  1  0.164863  0.001016  0.126471  0.119156  0.000819  1.041135  0.0
H  H7  1  0.52804249  0.55204602  0.70268430  1  0.163864  0.001017  0.126419  0.119164  0.000822  1.041144  0.0
H  H8  1  0.02785110  0.94796184  0.70266874  1  0.162918  -0.000863  0.126409  0.119059  -0.000727  1.041421  0.0
H  H9  1  0.47218103  0.05202561  0.20267800  1  0.163128  0.000861  0.126429  0.119002  0.000701  1.041478  0.0
H  H10  1  0.02811826  0.55215687  0.79734086  1  0.164632  0.001018  0.126381  0.118857  0.000822  1.041296  0.0
H  H11  1  0.47199384  0.44794865  0.29732894  1  0.163277  0.001017  0.126454  0.119198  0.000819  1.04079  0.0
H  H12  1  0.63067287  0.13276288  0.46926051  1  0.077321  -0.000205  0.09919  0.098769  -0.000139  1.052516  0.0
H  H13  1  0.86931361  0.86724519  0.96927879  1  0.077502  0.000209  0.099224  0.098911  0.000115  1.052369  0.0
H  H14  1  0.63063131  0.36725688  0.03077009  1  0.07627  0.000343  0.09915  0.098724  0.000256  1.052884  0.0
H  H15  1  0.86937350  0.63275012  0.53073372  1  0.076762  0.000341  0.099241  0.098768  0.00028  1.052709  0.0
H  H16  1  0.36929814  0.86727722  0.53073677  1  0.07695  -0.000205  0.099114  0.098744  -0.000139  1.052471  0.0
H  H17  1  0.13063010  0.13279721  0.03071747  1  0.077394  0.000209  0.099106  0.098685  0.000115  1.052553  0.0
H  H18  1  0.36931534  0.63272285  0.96924469  1  0.077235  0.000344  0.099169  0.098859  0.000257  1.052292  0.0
H  H19  1  0.13059558  0.36721178  0.46926408  1  0.076809  0.000341  0.09917  0.098698  0.00028  1.05294  0.0
H  H20  1  0.18508572  0.07935972  0.52264789  1  0.082508  -0.000567  0.101486  0.105168  -0.000423  1.059653  0.0
H  H21  1  0.31492220  0.92063624  0.02264091  1  0.082778  0.000575  0.101529  0.105259  0.000393  1.059565  0.0
H  H22  1  0.18502299  0.42055938  0.97736330  1  0.08296  0.000672  0.101739  0.10561  0.000509  1.059524  0.0
H  H23  1  0.31506361  0.57945024  0.47738966  1  0.083652  0.000667  0.101364  0.105004  0.000505  1.059503  0.0
H  H24  1  0.81490674  0.92064185  0.47734940  1  0.082435  -0.000568  0.101467  0.105151  -0.000423  1.059552  0.0
H  H25  1  0.68505563  0.07937625  0.97735277  1  0.082571  0.000576  0.101547  0.105262  0.000393  1.059588  0.0
H  H26  1  0.81502406  0.57942034  0.02261494  1  0.083678  0.000673  0.101573  0.10517  0.000512  1.059619  0.0
H  H27  1  0.68497856  0.42052833  0.52261792  1  0.082853  0.000668  0.101603  0.105296  0.000502  1.059515  0.0
H  H28  1  0.88398135  0.97631442  0.39487717  1  0.105871  -0.000772  0.098629  0.102422  -0.000783  1.058245  0.0
H  H29  1  0.61599888  0.02369812  0.89487800  1  0.106097  0.000777  0.098707  0.102526  0.000738  1.058306  0.0
H  H30  1  0.88375440  0.52360459  0.10506620  1  0.107351  0.000848  0.098752  0.102549  0.000785  1.058312  0.0
H  H31  1  0.61620405  0.47630594  0.60511467  1  0.105875  0.000851  0.098832  0.102509  0.00078  1.058207  0.0
H  H32  1  0.11600233  0.02369693  0.60512062  1  0.105988  -0.000771  0.098651  0.102464  -0.000782  1.058333  0.0
H  H33  1  0.38400917  0.97629425  0.10512186  1  0.106416  0.000776  0.098736  0.102621  0.000736  1.058208  0.0
H  H34  1  0.11628583  0.47639525  0.89489763  1  0.10684  0.000847  0.098741  0.102539  0.000784  1.058435  0.0
H  H35  1  0.38384300  0.52368873  0.39489856  1  0.106206  0.00085  0.098764  0.102527  0.000782  1.058216  0.0
H  H36  1  0.99445009  0.24908015  0.43731162  1  0.094664  -2.7e-05  0.105567  0.101033  -8.9e-05  1.046503  0.0
H  H37  1  0.50554319  0.75091193  0.93727878  1  0.094069  3.3e-05  0.105655  0.101278  1.3e-05  1.046303  0.0
H  H38  1  0.99446040  0.25088522  0.06267665  1  0.094382  3.5e-05  0.105594  0.101084  1.4e-05  1.046627  0.0
H  H39  1  0.50553665  0.74909522  0.56270347  1  0.094127  3e-05  0.105564  0.101134  8.3e-05  1.046577  0.0
H  H40  1  0.00556967  0.75090302  0.56269286  1  0.094585  -2.7e-05  0.105534  0.101053  -8.8e-05  1.046385  0.0
H  H41  1  0.49445123  0.24905859  0.06269946  1  0.094619  3.4e-05  0.105634  0.101151  1.3e-05  1.0464  0.0
H  H42  1  0.00554083  0.74913705  0.93728409  1  0.093533  3.4e-05  0.105534  0.101057  1.4e-05  1.046513  0.0
H  H43  1  0.49448407  0.25093050  0.43729432  1  0.094196  3e-05  0.105546  0.101027  8.3e-05  1.046479  0.0
H  H44  1  0.68882750  0.11013506  0.59262011  1  0.012581  -0.000298  0.091876  0.086234  -0.00028  1.032441  0.0
H  H45  1  0.81110714  0.88986074  0.09263036  1  0.012369  0.000299  0.091985  0.086491  0.000262  1.032335  0.0
H  H46  1  0.68876859  0.38995876  0.90743760  1  0.012149  0.000423  0.091971  0.086492  0.000346  1.032379  0.0
H  H47  1  0.81117597  0.61007949  0.40740136  1  0.012362  0.000424  0.091927  0.086444  0.000355  1.032529  0.0
H  H48  1  0.31109867  0.88992862  0.40739107  1  0.012001  -0.000298  0.091976  0.086566  -0.00028  1.032329  0.0
H  H49  1  0.18878297  0.11016901  0.90735714  1  0.012374  0.000299  0.091784  0.086173  0.000262  1.032499  0.0
H  H50  1  0.31110690  0.61004742  0.09257512  1  0.013259  0.000421  0.092051  0.086674  0.000344  1.032446  0.0
H  H51  1  0.18873560  0.38986056  0.59260622  1  0.012217  0.000425  0.091911  0.086408  0.000356  1.032445  0.0
H  H52  1  0.26146108  0.14827837  0.41965599  1  0.117686  -0.000725  0.128305  0.116712  -0.000389  1.007549  0.0
H  H53  1  0.23854573  0.85171558  0.91963609  1  0.117806  0.000743  0.128334  0.116794  0.000313  1.00748  0.0
H  H54  1  0.26135693  0.35162573  0.08037931  1  0.117139  0.000757  0.128598  0.11723  0.000329  1.007004  0.0
H  H55  1  0.23871715  0.64837211  0.58041361  1  0.117678  0.00074  0.128588  0.117182  0.00038  1.007018  0.0
H  H56  1  0.73854892  0.85171573  0.58034696  1  0.117655  -0.000724  0.128332  0.116709  -0.000388  1.007546  0.0
H  H57  1  0.76145648  0.14827507  0.08035862  1  0.117989  0.000742  0.128363  0.116821  0.000313  1.007491  0.0
H  H58  1  0.73868426  0.64837641  0.91961077  1  0.117169  0.000759  0.128589  0.117226  0.000329  1.006923  0.0
H  H59  1  0.76132308  0.35161796  0.41959242  1  0.117032  0.00074  0.128613  0.117346  0.00038  1.006877  0.0
H  H60  1  0.89933136  0.15972275  0.63844980  1  0.066794  -0.000388  0.095387  0.089952  -0.000383  1.01485  0.0
H  H61  1  0.60060765  0.84026305  0.13842954  1  0.066299  0.000509  0.095423  0.090062  0.000493  1.014979  0.0
H  H62  1  0.89927460  0.34034236  0.86156927  1  0.066758  0.000567  0.095502  0.090169  0.000522  1.015155  0.0
H  H63  1  0.60065195  0.65969325  0.36156722  1  0.066843  0.00052  0.095509  0.090126  0.000472  1.015081  0.0
H  H64  1  0.10060748  0.84032713  0.36156601  1  0.066434  -0.000389  0.09539  0.089993  -0.000384  1.015002  0.0
H  H65  1  0.39929806  0.15974428  0.86154046  1  0.066098  0.000509  0.095333  0.089953  0.000492  1.014773  0.0
H  H66  1  0.10060576  0.65969315  0.13841103  1  0.066854  0.000567  0.095342  0.089959  0.000522  1.015246  0.0
H  H67  1  0.39928691  0.34028072  0.63844447  1  0.066436  0.00052  0.095514  0.090193  0.000472  1.014806  0.0
H  H68  1  0.05039446  0.23158602  0.56078023  1  0.056468  -0.000157  0.094574  0.090713  -0.000185  1.022809  0.0
H  H69  1  0.44956496  0.76840658  0.06074406  1  0.055052  0.000165  0.094611  0.090683  0.000109  1.022731  0.0
H  H70  1  0.05037284  0.26841835  0.93919930  1  0.056732  0.000211  0.094497  0.090718  0.000146  1.022824  0.0
H  H71  1  0.44957025  0.73158889  0.43923170  1  0.0565  0.000206  0.094558  0.090752  0.000213  1.022541  0.0
H  H72  1  0.94957947  0.76843625  0.43923455  1  0.055683  -0.000157  0.094549  0.090694  -0.000186  1.022739  0.0
H  H73  1  0.55037974  0.23158694  0.93922337  1  0.056707  0.000166  0.094618  0.090829  0.000109  1.022733  0.0
H  H74  1  0.94955431  0.73161657  0.06075578  1  0.056977  0.00021  0.09468  0.090879  0.000145  1.022678  0.0
H  H75  1  0.55041051  0.26841556  0.56077485  1  0.056678  0.000206  0.094618  0.090812  0.000213  1.022554  0.0
H  H76  1  0.82707760  0.13007749  0.20125286  1  0.624682  0.000598  0.2925  0.372366  0.000681  0.980992  0.0
H  H77  1  0.67293065  0.86990230  0.70126212  1  0.624621  -0.000603  0.292521  0.372459  -0.000712  0.980825  0.0
H  H78  1  0.82701908  0.36996201  0.29870293  1  0.624303  0.000596  0.292629  0.372616  0.000723  0.980724  0.0
H  H79  1  0.67298834  0.63004337  0.79872123  1  0.624112  0.000596  0.292691  0.372643  0.000717  0.98072  0.0
H  H80  1  0.17293144  0.86991373  0.79873979  1  0.624589  0.000599  0.292503  0.372407  0.000681  0.980929  0.0
H  H81  1  0.32706766  0.13009237  0.29874340  1  0.624651  -0.000602  0.292508  0.37249  -0.000712  0.980804  0.0
H  H82  1  0.17299092  0.63003668  0.70129693  1  0.624167  0.000596  0.292699  0.372675  0.000722  0.980668  0.0
H  H83  1  0.32704603  0.36996395  0.20127296  1  0.624215  0.000597  0.292644  0.372592  0.000717  0.980727  0.0
H  H84  1  0.95421933  0.09995273  0.16068843  1  0.625264  0.000125  0.301467  0.388226  8.9e-05  0.936789  0.0
H  H85  1  0.54579739  0.90000849  0.66068280  1  0.624834  -0.000105  0.301456  0.388232  -7.6e-05  0.936799  0.0
H  H86  1  0.95407734  0.40007553  0.33931593  1  0.616122  0.000118  0.301419  0.38828  8.1e-05  0.93678  0.0
H  H87  1  0.54594696  0.59990588  0.83933176  1  0.616165  0.000139  0.301401  0.388317  9.7e-05  0.936651  0.0
H  H88  1  0.04580822  0.90005229  0.83930782  1  0.625114  0.000125  0.301483  0.388335  8.9e-05  0.936655  0.0
H  H89  1  0.45420774  0.09998619  0.33931706  1  0.625349  -0.000105  0.301466  0.388229  -7.6e-05  0.936792  0.0
H  H90  1  0.04593364  0.59991857  0.66068599  1  0.616319  0.000118  0.301416  0.388346  8.1e-05  0.936701  0.0
H  H91  1  0.45410495  0.40011064  0.16068508  1  0.615896  0.000139  0.301408  0.388321  9.7e-05  0.93667  0.0
H  H92  1  0.03873474  0.55558993  0.51527725  1  0.648221  0.000358  0.303948  0.349316  0.000988  0.99343  0.0
H  H93  1  0.46129830  0.44439774  0.01528214  1  0.64815  0.000361  0.303949  0.349528  0.000991  0.993117  0.0
H  H94  1  0.03863282  0.94437671  0.98472060  1  0.648146  0.000239  0.303986  0.349471  0.00073  0.992997  0.0
H  H95  1  0.46137214  0.05562051  0.48472779  1  0.648173  -0.000236  0.304002  0.349506  -0.000744  0.992947  0.0
H  H96  1  0.96126649  0.44439554  0.48474370  1  0.648513  0.000358  0.304103  0.349838  0.000988  0.992707  0.0
H  H97  1  0.53871561  0.55559694  0.98472904  1  0.6482  0.00036  0.303897  0.349369  0.000991  0.993193  0.0
H  H98  1  0.96136159  0.05562831  0.01527977  1  0.64817  0.000239  0.303999  0.349451  0.000729  0.993049  0.0
H  H99  1  0.53864372  0.94437014  0.51527206  1  0.648343  -0.000236  0.304037  0.349619  -0.000743  0.992819  0.0
H  H100  1  0.13269576  0.46085774  0.29805579  1  0.129759  0.00041  0.113891  0.116868  0.00045  1.032393  0.0
H  H101  1  0.36733355  0.53901207  0.79804335  1  0.130121  0.000409  0.113842  0.116616  0.000446  1.032542  0.0
H  H102  1  0.13310820  0.03916876  0.20177188  1  0.129235  4.5e-05  0.113928  0.116706  9.1e-05  1.032127  0.0
H  H103  1  0.36700284  0.96087730  0.70180633  1  0.130336  -4.6e-05  0.113838  0.116677  -0.000105  1.03238  0.0
H  H104  1  0.86734252  0.53911508  0.70196929  1  0.129669  0.000411  0.113864  0.116682  0.000451  1.032337  0.0
H  H105  1  0.63281585  0.46095326  0.20193437  1  0.129462  0.00041  0.113616  0.116375  0.000446  1.032971  0.0
H  H106  1  0.86691837  0.96084488  0.79822335  1  0.129396  4.5e-05  0.113893  0.116684  9.1e-05  1.032081  0.0
H  H107  1  0.63302568  0.03913116  0.29821978  1  0.129794  -4.6e-05  0.11386  0.116507  -0.000105  1.032181  0.0
H  H108  1  0.27645757  0.50705354  0.20501479  1  0.094572  -8.1e-05  0.103893  0.102207  -8.8e-05  1.021924  0.0
H  H109  1  0.22344599  0.49284603  0.70503381  1  0.096575  -8.2e-05  0.103614  0.101826  -9.4e-05  1.022218  0.0
H  H110  1  0.27726756  0.99308519  0.29470299  1  0.096963  8.1e-05  0.103934  0.102312  -7.9e-05  1.022284  0.0
H  H111  1  0.22282400  0.00695413  0.79473428  1  0.09812  -7.7e-05  0.103762  0.102062  7.7e-05  1.022267  0.0
H  H112  1  0.72360020  0.49293136  0.79501853  1  0.0942  -8.1e-05  0.103953  0.102456  -8.7e-05  1.021869  0.0
H  H113  1  0.77672485  0.50713081  0.29493105  1  0.095516  -8.3e-05  0.103658  0.101677  -9.3e-05  1.022655  0.0
H  H114  1  0.72274635  0.00691523  0.70529017  1  0.097003  8.1e-05  0.103923  0.102257  -7.9e-05  1.022145  0.0
H  H115  1  0.77722011  0.99307216  0.20529182  1  0.097743  -7.7e-05  0.103832  0.102148  7.6e-05  1.022309  0.0
H  H116  1  0.18204202  0.67748701  0.40432379  1  0.080012  0.000124  0.102314  0.105209  0.000116  1.045041  0.0
H  H117  1  0.31764655  0.32249151  0.90442189  1  0.078924  0.00013  0.102079  0.104944  -7e-06  1.045432  0.0
H  H118  1  0.18202861  0.82238668  0.09569469  1  0.080552  6e-06  0.102305  0.105262  -0.000107  1.045157  0.0
H  H119  1  0.31793191  0.17760937  0.59568836  1  0.080136  -1e-06  0.102306  0.105282  -2.3e-05  1.045104  0.0
H  H120  1  0.81788904  0.32249214  0.59570437  1  0.08066  0.000123  0.102361  0.105193  0.000117  1.045057  0.0
H  H121  1  0.68227085  0.67752272  0.09560164  1  0.079152  0.000129  0.102133  0.104923  -7e-06  1.045332  0.0
H  H122  1  0.81794630  0.17762007  0.90430413  1  0.080573  6e-06  0.102353  0.105333  -0.000107  1.045044  0.0
H  H123  1  0.68204496  0.82236691  0.40429399  1  0.079631  -1e-06  0.102332  0.105294  -2.3e-05  1.044981  0.0
H  H124  1  0.32723681  0.72295594  0.31117213  1  0.05087  3.9e-05  0.099987  0.096328  -7.8e-05  1.017073  0.0
H  H125  1  0.17223340  0.27707821  0.81133257  1  0.049499  2.5e-05  0.099805  0.095861  -0.0001  1.017092  0.0
H  H126  1  0.32785993  0.77708574  0.18866349  1  0.049539  9.8e-05  0.099958  0.096287  -1.3e-05  1.016681  0.0
H  H127  1  0.17209183  0.22291276  0.68865739  1  0.049511  5.7e-05  0.099965  0.096417  6.3e-05  1.016622  0.0
H  H128  1  0.67266987  0.27705484  0.68885964  1  0.05067  3.9e-05  0.099905  0.096131  -7.9e-05  1.017163  0.0
H  H129  1  0.82768595  0.72294924  0.18868427  1  0.049468  2.5e-05  0.099928  0.095945  -9.9e-05  1.017183  0.0
H  H130  1  0.67209842  0.22291009  0.81133739  1  0.049632  9.8e-05  0.099948  0.09634  -1.3e-05  1.016586  0.0
H  H131  1  0.82789478  0.77707616  0.31131982  1  0.049543  5.6e-05  0.100061  0.096483  6.2e-05  1.016506  0.0
H  H132  1  0.37796794  0.63667785  0.21164322  1  0.042716  0.000599  0.098964  0.090831  0.0005  1.01594  0.0
H  H133  1  0.12167361  0.36330360  0.71174404  1  0.041625  0.00061  0.098866  0.090836  0.000519  1.016047  0.0
H  H134  1  0.37900819  0.86350076  0.28802767  1  0.04222  0.000174  0.099086  0.091163  0.000167  1.015687  0.0
H  H135  1  0.12100031  0.13651419  0.78803594  1  0.042355  -0.000154  0.099034  0.091161  -0.000171  1.015489  0.0
H  H136  1  0.62199917  0.36334213  0.78839010  1  0.041843  0.000602  0.098998  0.090954  0.000503  1.0161  0.0
H  H137  1  0.87838416  0.63670487  0.28823986  1  0.041739  0.000609  0.098895  0.090777  0.000516  1.016062  0.0
H  H138  1  0.62097453  0.13649161  0.71197116  1  0.042172  0.000174  0.099076  0.091173  0.000166  1.015542  0.0
H  H139  1  0.87901651  0.86350348  0.21196391  1  0.042253  -0.000153  0.099077  0.091166  -0.00017  1.015506  0.0
C  C140  1  0.80903423  0.19138679  0.44592315  1  -0.049477  -0.000207  -0.019753  -0.04889  -0.000256  3.969467  0.0
C  C141  1  0.69095737  0.80860672  0.94591976  1  -0.049388  0.000604  -0.01984  -0.048994  0.000558  3.969114  0.0
C  C142  1  0.80900439  0.30859993  0.05407827  1  -0.053726  0.000631  -0.019827  -0.049463  0.000581  3.970219  0.0
C  C143  1  0.69100116  0.69139921  0.55407560  1  -0.053696  0.000313  -0.019932  -0.049635  0.00034  3.970314  0.0
C  C144  1  0.19097480  0.80862399  0.55407722  1  -0.048787  -0.000207  -0.019846  -0.049186  -0.000256  3.969704  0.0
C  C145  1  0.30902339  0.19138623  0.05407135  1  -0.048763  0.000605  -0.019769  -0.048873  0.000559  3.969463  0.0
C  C146  1  0.19097149  0.69141774  0.94591335  1  -0.049622  0.000629  -0.019836  -0.04921  0.000579  3.969706  0.0
C  C147  1  0.30900495  0.30860753  0.44592168  1  -0.053474  0.000314  -0.019883  -0.049465  0.000341  3.970348  0.0
C  C148  1  0.01457515  0.05332697  0.34858685  1  0.34048  -0.024133  0.027961  -0.053996  -0.023333  3.922977  -0.005
C  C149  1  0.48542649  0.94668593  0.84858194  1  0.340267  0.024091  0.028028  -0.054  0.022587  3.922835  0.005
C  C150  1  0.01437314  0.44658829  0.15138637  1  0.340481  0.024144  0.028292  -0.053032  0.022636  3.922368  0.005
C  C151  1  0.48560475  0.55333252  0.65143410  1  0.340163  0.024221  0.028546  -0.053467  0.022704  3.922384  0.005
C  C152  1  0.98542218  0.94668552  0.65140889  1  0.340283  -0.024179  0.028019  -0.054189  -0.023373  3.923174  -0.005
C  C153  1  0.51458936  0.05330414  0.15141843  1  0.340398  0.024084  0.028222  -0.053667  0.022579  3.922684  0.005
C  C154  1  0.98566025  0.55341673  0.84858621  1  0.339193  0.024167  0.028369  -0.05272  0.02264  3.922198  0.005
C  C155  1  0.51444328  0.44665870  0.34857605  1  0.341082  0.024188  0.028289  -0.053421  0.022672  3.922006  0.005
C  C156  1  0.72237149  0.15352585  0.49021343  1  -0.096533  -0.000428  -0.088919  -0.091418  -0.000507  3.962337  0.0
C  C157  1  0.77760786  0.84647312  0.99023289  1  -0.096647  0.000504  -0.088975  -0.091648  0.000579  3.962599  0.0
C  C158  1  0.72231878  0.34649085  0.00980981  1  -0.090349  0.000681  -0.088894  -0.09099  0.000748  3.963143  0.0
C  C159  1  0.77766295  0.65351548  0.50978749  1  -0.091645  0.000597  -0.088944  -0.091026  0.000649  3.962713  0.0
C  C160  1  0.27760927  0.84650447  0.50978334  1  -0.096939  -0.000429  -0.088697  -0.090985  -0.000508  3.962328  0.0
C  C161  1  0.22233878  0.15354915  0.00976748  1  -0.096707  0.000503  -0.088966  -0.09148  0.000578  3.962707  0.0
C  C162  1  0.27762299  0.65351245  0.99020188  1  -0.096758  0.000684  -0.088835  -0.091318  0.00075  3.962147  0.0
C  C163  1  0.22231294  0.34645965  0.49020671  1  -0.090727  0.000596  -0.088903  -0.091059  0.000647  3.962969  0.0
C  C164  1  0.02470703  0.02000316  0.47049461  1  0.017311  -0.090926  -0.015317  0.063565  -0.09226  4.011849  -0.051
C  C165  1  0.47527214  0.98001257  0.97048321  1  0.072525  0.089327  -0.015218  0.063849  0.089783  4.012053  0.051
C  C166  1  0.02466373  0.47995329  0.02950496  1  0.01814  0.090248  -0.014962  0.064041  0.089392  4.010854  0.05
C  C167  1  0.47536976  0.52001472  0.52953787  1  0.074045  0.089116  -0.0152  0.06351  0.089547  4.011691  0.05
C  C168  1  0.97528738  0.98000992  0.52951245  1  0.072225  -0.08957  -0.015235  0.063842  -0.092233  4.012121  -0.051
C  C169  1  0.52471252  0.02000108  0.02950841  1  0.018441  0.090651  -0.015134  0.06388  0.089778  4.011925  0.051
C  C170  1  0.97537844  0.52003390  0.97046247  1  0.074712  0.088923  -0.015223  0.06351  0.089342  4.011371  0.05
C  C171  1  0.52467046  0.47996903  0.47048103  1  0.019531  0.090435  -0.014915  0.063622  0.089581  4.011158  0.05
C  C172  1  0.13439521  0.06959518  0.47444767  1  0.038555  -0.040875  -0.093932  -0.159854  -0.043592  4.015938  -0.021
C  C173  1  0.36559773  0.93041435  0.97443658  1  0.039271  0.040792  -0.093787  -0.159746  0.042447  4.01567  0.021
C  C174  1  0.13431639  0.43032016  0.02556067  1  0.041589  0.040684  -0.093646  -0.159871  0.042467  4.015318  0.021
C  C175  1  0.36573159  0.56965635  0.52559529  1  0.038623  0.040903  -0.09313  -0.15842  0.042576  4.014502  0.021
C  C176  1  0.86559628  0.93041157  0.52555579  1  0.038643  -0.040897  -0.093884  -0.159839  -0.043613  4.015611  -0.021
C  C177  1  0.63438498  0.06959584  0.02555761  1  0.037888  0.040826  -0.093827  -0.15974  0.042485  4.015774  0.021
C  C178  1  0.86572578  0.56966013  0.97441654  1  0.037919  0.040829  -0.093324  -0.158819  0.042503  4.014685  0.021
C  C179  1  0.63430766  0.43031992  0.47441537  1  0.038056  0.040864  -0.09368  -0.15922  0.042541  4.015287  0.021
C  C180  1  0.96759662  0.01327103  0.40401934  1  -0.054732  -0.045141  -0.091761  -0.159242  -0.0474  3.992309  -0.023
C  C181  1  0.53238488  0.98674411  0.90401724  1  -0.054741  0.044977  -0.091735  -0.15937  0.046073  3.99296  0.023
C  C182  1  0.96742708  0.48665942  0.09594809  1  -0.056465  0.044964  -0.091204  -0.159032  0.045987  3.992005  0.023
C  C183  1  0.53255934  0.51326922  0.59599204  1  -0.055725  0.04496  -0.091363  -0.158609  0.046016  3.991891  0.023
C  C184  1  0.03239194  0.98674089  0.59597743  1  -0.054476  -0.045107  -0.09174  -0.159313  -0.047371  3.993102  -0.023
C  C185  1  0.46761440  0.01325631  0.09598210  1  -0.054903  0.044947  -0.091813  -0.159573  0.046043  3.992668  0.023
C  C186  1  0.03261412  0.51333813  0.90402139  1  -0.056194  0.044912  -0.091098  -0.158927  0.045955  3.992355  0.023
C  C187  1  0.46748478  0.48672200  0.40402017  1  -0.055351  0.045013  -0.091223  -0.158778  0.046066  3.991599  0.023
C  C188  1  0.92711831  0.21960381  0.47184529  1  0.022571  -0.000389  -0.082132  -0.093116  -0.000554  3.957274  0.0
C  C189  1  0.57286826  0.78038709  0.97182668  1  0.023006  0.000613  -0.082044  -0.093123  0.000644  3.956839  0.0
C  C190  1  0.92710247  0.28037919  0.02815007  1  0.022995  0.000586  -0.082305  -0.093159  0.000615  3.957669  0.0
C  C191  1  0.57287789  0.71961336  0.52816755  1  0.02267  0.000449  -0.082024  -0.092937  0.000572  3.957522  0.0
C  C192  1  0.07288780  0.78039488  0.52815251  1  0.02289  -0.00039  -0.082118  -0.093228  -0.000555  3.957089  0.0
C  C193  1  0.42711056  0.21959666  0.02815773  1  0.022543  0.000613  -0.082195  -0.093283  0.000644  3.95728  0.0
C  C194  1  0.07286756  0.71965286  0.97182508  1  0.023085  0.000589  -0.082083  -0.09309  0.000617  3.957474  0.0
C  C195  1  0.42712236  0.28039914  0.47183231  1  0.022494  0.000446  -0.081977  -0.092748  0.00057  3.957335  0.0
C  C196  1  0.75500188  0.14179468  0.55902633  1  0.050165  -0.000337  -0.099316  -0.09607  -0.000536  4.025246  0.0
C  C197  1  0.74495412  0.85820348  0.05903568  1  0.024137  0.000444  -0.099704  -0.096628  0.000571  4.026217  0.0
C  C198  1  0.75494361  0.35825580  0.94100937  1  0.020219  0.000493  -0.099279  -0.096221  0.000639  4.025481  0.0
C  C199  1  0.74501859  0.64176687  0.44098202  1  0.048758  0.000432  -0.099287  -0.096166  0.000614  4.025547  0.0
C  C200  1  0.24495061  0.85824887  0.44097508  1  0.02301  -0.000341  -0.099655  -0.096758  -0.000536  4.025782  0.0
C  C201  1  0.25496621  0.14181535  0.94095697  1  0.049369  0.00044  -0.099144  -0.095807  0.000571  4.025546  0.0
C  C202  1  0.24495917  0.64175555  0.05900284  1  0.022316  0.000491  -0.099664  -0.096641  0.000638  4.026274  0.0
C  C203  1  0.25493197  0.35820193  0.55901680  1  0.04794  0.000433  -0.099139  -0.096007  0.000614  4.02521  0.0
C  C204  1  0.17961213  0.10869949  0.41810995  1  0.315396  -0.025426  0.025098  -0.054896  -0.024165  3.924559  -0.005
C  C205  1  0.32038391  0.89130936  0.91809387  1  0.314787  0.025399  0.025108  -0.055096  0.023396  3.924228  0.005
C  C206  1  0.17950149  0.39120578  0.08190448  1  0.313042  0.025513  0.024991  -0.054897  0.023377  3.923097  0.005
C  C207  1  0.32054341  0.60876163  0.58195095  1  0.31524  0.025396  0.024954  -0.055575  0.023377  3.923445  0.005
C  C208  1  0.82038618  0.89130554  0.58189402  1  0.315464  -0.025382  0.025076  -0.054962  -0.024124  3.924391  -0.005
C  C209  1  0.67961245  0.10869394  0.08190341  1  0.314976  0.025397  0.025099  -0.055079  0.023392  3.924393  0.005
C  C210  1  0.82053971  0.60878428  0.91807118  1  0.3159  0.025383  0.025021  -0.055255  0.023351  3.92322  0.005
C  C211  1  0.67949585  0.39121981  0.41805920  1  0.316743  0.02541  0.024965  -0.055549  0.023391  3.923576  0.005
C  C212  1  0.87345548  0.16945280  0.58468132  1  -0.099958  -0.000397  -0.090595  -0.078713  -0.000542  4.007725  0.0
C  C213  1  0.62649840  0.83054102  0.08467393  1  -0.072551  0.000538  -0.090316  -0.078457  0.000674  4.007781  0.0
C  C214  1  0.87339736  0.33059104  0.91533132  1  -0.070724  0.000554  -0.090895  -0.07933  0.000705  4.008658  0.0
C  C215  1  0.62655038  0.66942562  0.41533131  1  -0.098311  0.000502  -0.09066  -0.079063  0.000646  4.007995  0.0
C  C216  1  0.12650870  0.83058328  0.41532472  1  -0.071444  -0.000394  -0.090529  -0.078752  -0.000543  4.007965  0.0
C  C217  1  0.37342680  0.16946688  0.91530894  1  -0.098509  0.000543  -0.090591  -0.078882  0.000674  4.007845  0.0
C  C218  1  0.12651322  0.66943871  0.08465412  1  -0.071269  0.000554  -0.090334  -0.078535  0.000704  4.008083  0.0
C  C219  1  0.37341089  0.33055353  0.58467369  1  -0.098209  0.000502  -0.09076  -0.079203  0.000646  4.007733  0.0
C  C220  1  0.95837213  0.20919403  0.54113584  1  -0.078737  -0.000398  -0.094135  -0.083412  -0.000572  4.00708  0.0
C  C221  1  0.54159889  0.79080584  0.04112049  1  -0.077785  0.000499  -0.094356  -0.083487  0.00058  4.006757  0.0
C  C222  1  0.95833662  0.29081430  0.95885909  1  -0.078712  0.000501  -0.093973  -0.083308  0.000583  4.00709  0.0
C  C223  1  0.54162127  0.70919630  0.45888034  1  -0.078261  0.000492  -0.094375  -0.083645  0.000631  4.00693  0.0
C  C224  1  0.04160765  0.79082306  0.45886710  1  -0.078368  -0.000399  -0.094069  -0.08318  -0.000572  4.006724  0.0
C  C225  1  0.45835750  0.20918941  0.95886341  1  -0.079078  0.0005  -0.094113  -0.083391  0.000581  4.007194  0.0
C  C226  1  0.04159930  0.70921947  0.04110989  1  -0.079251  0.000501  -0.094572  -0.083908  0.000584  4.007373  0.0
C  C227  1  0.45836729  0.29080757  0.54112209  1  -0.078525  0.000493  -0.094425  -0.083782  0.000631  4.007013  0.0
C  C228  1  0.77549188  0.20065127  0.37115402  1  1.581739  -0.000238  0.229446  0.61968  -0.000489  4.189829  0.0
C  C229  1  0.72452563  0.79934325  0.87114763  1  1.581303  0.000359  0.22945  0.619449  0.000582  4.189956  0.0
C  C230  1  0.77546020  0.29930543  0.12884914  1  1.580925  0.000302  0.229622  0.620073  0.000524  4.189232  0.0
C  C231  1  0.72455649  0.70068178  0.62884136  1  1.581637  0.000353  0.229655  0.62002  0.000638  4.189876  0.0
C  C232  1  0.22453665  0.79934282  0.62884584  1  1.581953  -0.000237  0.229465  0.619693  -0.000489  4.19007  0.0
C  C233  1  0.27548048  0.20064625  0.12883936  1  1.582279  0.000359  0.229401  0.619474  0.000582  4.190236  0.0
C  C234  1  0.22455858  0.70069672  0.87114968  1  1.581417  0.000302  0.229637  0.619944  0.000524  4.189856  0.0
C  C235  1  0.27546619  0.29932209  0.37115489  1  1.582055  0.000353  0.229587  0.619923  0.000638  4.189643  0.0
C  C236  1  0.17247196  0.51884391  0.30041817  1  -0.067112  0.014476  -0.074386  -0.082642  0.014081  3.916379  0.008
C  C237  1  0.32745508  0.48105532  0.80042143  1  -0.06623  0.014736  -0.074901  -0.082756  0.014339  3.916912  0.008
C  C238  1  0.17279129  0.98114316  0.19946949  1  -0.064664  0.007315  -0.074217  -0.082288  0.007008  3.916615  0.004
C  C239  1  0.32728362  0.01888213  0.69949230  1  -0.065062  -0.007079  -0.074257  -0.082189  -0.00695  3.916604  -0.004
C  C240  1  0.82754098  0.48113697  0.69961566  1  -0.066141  0.014527  -0.074531  -0.082603  0.014131  3.916211  0.008
C  C241  1  0.67265045  0.51892325  0.19957070  1  -0.064213  0.014659  -0.074688  -0.082685  0.014266  3.917601  0.008
C  C242  1  0.82721871  0.01886531  0.80052728  1  -0.064145  0.007301  -0.074363  -0.082395  0.006994  3.916735  0.004
C  C243  1  0.67274491  0.98112174  0.30052197  1  -0.064064  -0.007047  -0.074342  -0.081995  -0.006918  3.916313  -0.004
C  C244  1  0.07133938  0.53730358  0.41628593  1  1.471597  0.029902  0.233379  0.569131  0.033479  4.093899  0.02
C  C245  1  0.42860982  0.46262989  0.91627839  1  1.470475  0.030405  0.23367  0.570069  0.034017  4.091923  0.021
C  C246  1  0.07138831  0.96264355  0.08369958  1  1.4724  0.015339  0.234066  0.570747  0.017332  4.092599  0.011
C  C247  1  0.42863031  0.03736417  0.58371712  1  1.471989  -0.014941  0.234184  0.57095  -0.017291  4.092479  -0.01
C  C248  1  0.92865308  0.46267384  0.58374584  1  1.471091  0.029994  0.233395  0.56904  0.033571  4.09397  0.02
C  C249  1  0.57141480  0.53735559  0.08371941  1  1.471883  0.030256  0.233527  0.56993  0.033858  4.092311  0.021
C  C250  1  0.92860707  0.03736607  0.91629667  1  1.472515  0.015336  0.234264  0.571196  0.017328  4.092125  0.011
C  C251  1  0.57137190  0.96262992  0.41629303  1  1.47259  -0.01488  0.234124  0.57073  -0.017223  4.092099  -0.01
C  C252  1  0.14669087  0.56655819  0.35730778  1  -0.070541  0.007408  -0.027706  -0.075745  0.007852  4.024  0.003
C  C253  1  0.35319214  0.43336703  0.85734821  1  -0.070667  0.007528  -0.027965  -0.076826  0.007998  4.025117  0.003
C  C254  1  0.14682414  0.93337484  0.14263882  1  -0.069094  0.002828  -0.027756  -0.076382  0.003023  4.024604  0.001
C  C255  1  0.35319927  0.06663308  0.64265275  1  -0.069942  -0.00269  -0.027725  -0.076444  -0.002963  4.02469  -0.001
C  C256  1  0.85330159  0.43342268  0.64271523  1  -0.070239  0.007432  -0.027833  -0.076031  0.007884  4.024162  0.003
C  C257  1  0.64685978  0.56662073  0.14265731  1  -0.071401  0.007493  -0.027837  -0.076701  0.007956  4.025137  0.003
C  C258  1  0.85316247  0.06663823  0.85735846  1  -0.069967  0.002823  -0.027702  -0.076422  0.003017  4.024832  0.001
C  C259  1  0.64681854  0.93335699  0.35734916  1  -0.070114  -0.002677  -0.027713  -0.076378  -0.002946  4.024213  -0.001
C  C260  1  0.25450010  0.54478861  0.24817857  1  -0.068867  -0.002239  -0.086803  -0.07356  -0.002238  3.973982  -0.003
C  C261  1  0.24535705  0.45513422  0.74820821  1  -0.067371  -0.002272  -0.086047  -0.072534  -0.002267  3.974395  -0.003
C  C262  1  0.25510208  0.95527890  0.25163524  1  -0.033368  -0.001386  -0.086602  -0.073285  -0.001453  3.974325  -0.001
C  C263  1  0.24497253  0.04474350  0.75165429  1  -0.034307  0.001416  -0.086322  -0.07287  0.001418  3.974018  0.001
C  C264  1  0.74551673  0.45519801  0.75185577  1  -0.06921  -0.002248  -0.086614  -0.073409  -0.00225  3.974017  -0.003
C  C265  1  0.75475725  0.54484895  0.25177672  1  -0.065749  -0.002254  -0.086118  -0.072426  -0.002252  3.974583  -0.003
C  C266  1  0.74490988  0.04472153  0.74836461  1  -0.033561  -0.001383  -0.086504  -0.073118  -0.001451  3.973927  -0.001
C  C267  1  0.75506964  0.95527072  0.24836101  1  -0.034011  0.001408  -0.086357  -0.072957  0.001411  3.974275  0.001
C  C268  1  0.20240758  0.64057368  0.36039052  1  0.036815  0.012025  -0.087064  -0.100483  0.011879  3.97253  0.007
C  C269  1  0.29731274  0.35938846  0.86047492  1  0.040796  0.012277  -0.086582  -0.099636  0.012074  3.97225  0.007
C  C270  1  0.20255283  0.85934098  0.13957258  1  0.039346  0.004159  -0.086497  -0.09958  0.004028  3.972111  0.002
C  C271  1  0.29744027  0.14065592  0.63957029  1  0.039667  -0.003965  -0.08649  -0.099567  -0.003988  3.972154  -0.002
C  C272  1  0.79755466  0.35940490  0.63964485  1  0.037412  0.012072  -0.086867  -0.100016  0.011929  3.971778  0.007
C  C273  1  0.70267972  0.64061599  0.13953678  1  0.040924  0.012198  -0.08681  -0.099694  0.011997  3.97238  0.007
C  C274  1  0.79744061  0.14065657  0.86043037  1  0.039144  0.004158  -0.086615  -0.0997  0.004026  3.972179  0.002
C  C275  1  0.70255317  0.85932898  0.36042082  1  0.04008  -0.003938  -0.086502  -0.099459  -0.003962  3.971782  -0.002
C  C276  1  0.28405669  0.66580083  0.30794914  1  -0.079278  0.000244  -0.093567  -0.091981  0.000204  4.02299  -0.001
C  C277  1  0.21555573  0.33418950  0.80806097  1  -0.085898  0.000174  -0.093686  -0.091959  0.000114  4.022589  -0.001
C  C278  1  0.28452524  0.83420638  0.19191385  1  -0.086598  0.001333  -0.0935  -0.092148  0.001346  4.022544  0.0
C  C279  1  0.21546171  0.16579624  0.69190831  1  -0.086593  -0.00131  -0.093486  -0.092248  -0.001407  4.022493  0.0
C  C280  1  0.71589483  0.33419442  0.69209034  1  -0.079906  0.00024  -0.093655  -0.092096  0.000196  4.022261  -0.001
C  C281  1  0.78444063  0.66581897  0.19194507  1  -0.086752  0.000189  -0.093684  -0.092069  0.000128  4.022721  -0.001
C  C282  1  0.71545357  0.16578829  0.80808446  1  -0.086276  0.001334  -0.093415  -0.092139  0.001347  4.022276  0.0
C  C283  1  0.78453953  0.83420188  0.30808074  1  -0.08666  -0.001315  -0.093588  -0.092417  -0.001412  4.022571  0.0
C  C284  1  0.31144909  0.61769029  0.25201895  1  -0.005346  0.020282  -0.083704  -0.071859  0.02013  3.985209  0.012
C  C285  1  0.18824734  0.38227522  0.75210132  1  -0.004285  0.020673  -0.083804  -0.072082  0.020528  3.985124  0.012
C  C286  1  0.31216590  0.88240639  0.24775321  1  -0.038197  0.007306  -0.083275  -0.071547  0.007198  3.985223  0.004
C  C287  1  0.18785790  0.11760208  0.74776269  1  -0.038431  -0.006864  -0.083362  -0.071811  -0.006931  3.985041  -0.004
C  C288  1  0.68853654  0.38230898  0.74801848  1  -0.005387  0.02035  -0.083876  -0.072198  0.020198  3.985228  0.012
C  C289  1  0.81180165  0.61772348  0.24788876  1  -0.005612  0.020549  -0.083744  -0.071786  0.020408  3.984831  0.012
C  C290  1  0.68782266  0.11759518  0.75224459  1  -0.038324  0.007295  -0.083268  -0.071559  0.007188  3.984868  0.004
C  C291  1  0.81216088  0.88240869  0.25223974  1  -0.038457  -0.006822  -0.083388  -0.071838  -0.006889  3.98543  -0.004
N  N292  1  0.11951485  0.10113176  0.35572900  1  -0.705075  -0.115251  -0.14609  0.286936  -0.121295  3.890558  -0.101
N  N293  1  0.38048701  0.89887736  0.85571470  1  -0.705014  0.114927  -0.145966  0.287233  0.118087  3.890203  0.101
N  N294  1  0.11937498  0.39880570  0.14427251  1  -0.704695  0.114766  -0.14577  0.287211  0.117876  3.890726  0.101
N  N295  1  0.38062900  0.60113558  0.64431731  1  -0.705015  0.114899  -0.145847  0.287744  0.118034  3.890912  0.101
N  N296  1  0.88048833  0.89887556  0.64427600  1  -0.704936  -0.115257  -0.146214  0.286999  -0.121302  3.890582  -0.101
N  N297  1  0.61953079  0.10111731  0.14428052  1  -0.705091  0.114913  -0.146181  0.287093  0.118074  3.890896  0.101
N  N298  1  0.88065550  0.60119530  0.85570470  1  -0.70497  0.114719  -0.145889  0.287226  0.117825  3.890963  0.101
N  N299  1  0.61940830  0.39885219  0.35569233  1  -0.705517  0.114889  -0.145727  0.287689  0.118023  3.890881  0.101
O  O300  1  0.16585773  0.13957018  0.30038569  1  -0.714125  -0.039483  -0.307432  -0.571716  -0.040602  2.088414  -0.03
O  O301  1  0.33415994  0.86043138  0.80037825  1  -0.713674  0.039447  -0.307328  -0.571591  0.039445  2.088388  0.03
O  O302  1  0.16576663  0.36042892  0.19962398  1  -0.714052  0.039602  -0.306985  -0.571584  0.03959  2.088459  0.03
O  O303  1  0.33426444  0.63953371  0.69966001  1  -0.713488  0.039619  -0.307  -0.571745  0.039569  2.08864  0.03
O  O304  1  0.83415130  0.86043369  0.69961519  1  -0.714101  -0.039493  -0.3074  -0.571683  -0.040613  2.088616  -0.03
O  O305  1  0.66586079  0.13955179  0.19962212  1  -0.714067  0.039444  -0.307167  -0.571569  0.039441  2.088654  0.03
O  O306  1  0.83425800  0.63957552  0.80035992  1  -0.713801  0.039591  -0.30688  -0.571556  0.039579  2.088842  0.03
O  O307  1  0.66576311  0.36045579  0.30034602  1  -0.713606  0.039612  -0.306899  -0.57151  0.039562  2.08863  0.03
O  O308  1  0.86876543  0.21241645  0.32921413  1  -1.210924  -0.000215  -0.397163  -0.642114  -0.000173  2.321399  0.0
O  O309  1  0.63124199  0.78757326  0.82920553  1  -1.210956  0.00042  -0.397114  -0.64208  0.000208  2.321621  0.0
O  O310  1  0.86874255  0.28752088  0.17079044  1  -1.210417  0.000231  -0.397208  -0.64243  9.3e-05  2.321231  0.0
O  O311  1  0.63129788  0.71244986  0.67079492  1  -1.211231  0.000504  -0.397245  -0.64246  0.00035  2.321125  0.0
O  O312  1  0.13126115  0.78758397  0.67078830  1  -1.211121  -0.000215  -0.397159  -0.642113  -0.000173  2.321436  0.0
O  O313  1  0.36876510  0.21240761  0.17078146  1  -1.211512  0.000421  -0.397133  -0.642065  0.000209  2.321506  0.0
O  O314  1  0.13129182  0.71247954  0.82919552  1  -1.211049  0.000232  -0.397137  -0.642415  9.4e-05  2.3213  0.0
O  O315  1  0.36873844  0.28754826  0.32920854  1  -1.211188  0.000503  -0.39724  -0.642451  0.000349  2.321153  0.0
O  O316  1  0.65619361  0.19663297  0.35364920  1  -1.198793  0.00029  -0.373331  -0.619558  0.000273  2.250986  0.0
O  O317  1  0.84383796  0.80337535  0.85365744  1  -1.198493  0.00038  -0.373346  -0.61935  0.00028  2.250932  0.0
O  O318  1  0.65615508  0.30333105  0.14634201  1  -1.198593  0.000493  -0.373418  -0.619535  0.000301  2.250995  0.0
O  O319  1  0.84386411  0.69666247  0.64632961  1  -1.19874  -7e-05  -0.373383  -0.619385  -0.000166  2.251056  0.0
O  O320  1  0.34383686  0.80336055  0.64633778  1  -1.198938  0.00029  -0.373262  -0.619421  0.000273  2.251199  0.0
O  O321  1  0.15618472  0.19661817  0.14634757  1  -1.198989  0.000381  -0.373258  -0.619384  0.00028  2.251132  0.0
O  O322  1  0.34386663  0.69665384  0.85367020  1  -1.198932  0.000495  -0.373374  -0.619367  0.000302  2.251125  0.0
O  O323  1  0.15616929  0.30335118  0.35365172  1  -1.198966  -7e-05  -0.373391  -0.619422  -0.000167  2.251029  0.0
O  O324  1  0.92455642  0.12375143  0.20359003  1  -1.262301  0.001396  -0.612812  -0.812023  0.001448  2.109834  0.001
O  O325  1  0.57544996  0.87623821  0.70359850  1  -1.261915  -0.001225  -0.612773  -0.812128  -0.001386  2.109668  -0.001
O  O326  1  0.92449052  0.37624629  0.29641817  1  -1.252833  0.001398  -0.612741  -0.812349  0.001058  2.109619  0.001
O  O327  1  0.57552463  0.62374752  0.79643538  1  -1.252625  0.001553  -0.612793  -0.812372  0.001129  2.10966  0.001
O  O328  1  0.07545749  0.87625244  0.79640520  1  -1.262112  0.001395  -0.612826  -0.812118  0.001448  2.109682  0.001
O  O329  1  0.42454933  0.12375704  0.29640599  1  -1.262395  -0.001225  -0.612782  -0.812138  -0.001387  2.109687  -0.001
O  O330  1  0.07552241  0.62375701  0.70358066  1  -1.252782  0.001397  -0.612761  -0.812339  0.001057  2.109498  0.001
O  O331  1  0.42450877  0.37625060  0.20356859  1  -1.252622  0.001553  -0.612727  -0.812267  0.00113  2.109678  0.001
O  O332  1  0.07715182  0.58139625  0.47174888  1  -1.171855  0.007326  -0.319245  -0.467586  0.005257  2.383259  0.003
O  O333  1  0.42285469  0.41856489  0.97177366  1  -1.172288  0.007439  -0.319662  -0.46836  0.005291  2.382181  0.003
O  O334  1  0.07708252  0.91855357  0.02824955  1  -1.172052  0.003606  -0.319091  -0.467725  0.002327  2.382787  0.001
O  O335  1  0.42292071  0.08144085  0.52824856  1  -1.171786  -0.003488  -0.319144  -0.467781  -0.002349  2.382296  0.0
O  O336  1  0.92283285  0.41858750  0.52827208  1  -1.172452  0.007345  -0.319478  -0.468076  0.005273  2.382596  0.003
O  O337  1  0.57715531  0.58143955  0.02824164  1  -1.172164  0.007405  -0.31942  -0.467909  0.005263  2.382152  0.003
O  O338  1  0.92290409  0.08144686  0.97175442  1  -1.172157  0.003606  -0.319079  -0.467792  0.002328  2.382734  0.001
O  O339  1  0.57708150  0.91854117  0.47174666  1  -1.172243  -0.003476  -0.319035  -0.467729  -0.00234  2.382276  0.0
O  O340  1  0.01005192  0.47451896  0.41533009  1  -1.179372  0.011447  -0.283933  -0.51085  0.009558  2.246423  0.006
O  O341  1  0.48991578  0.52541447  0.91530871  1  -1.178511  0.011665  -0.28426  -0.511366  0.009758  2.244995  0.006
O  O342  1  0.01018621  0.02545955  0.08467295  1  -1.178823  0.005795  -0.283652  -0.510708  0.004777  2.245697  0.003
O  O343  1  0.48984512  0.97455223  0.58468163  1  -1.178763  -0.005609  -0.283758  -0.510979  -0.004731  2.245793  -0.003
O  O344  1  0.98994542  0.52545903  0.58469705  1  -1.178828  0.011482  -0.283953  -0.510683  0.009592  2.246117  0.006
O  O345  1  0.51013029  0.47456812  0.08470247  1  -1.179321  0.011604  -0.284143  -0.511306  0.009702  2.245292  0.006
O  O346  1  0.98982575  0.97455179  0.91532639  1  -1.17858  0.005791  -0.283785  -0.510999  0.004775  2.245672  0.003
O  O347  1  0.51018730  0.02544877  0.41532286  1  -1.178763  -0.005585  -0.283676  -0.510776  -0.004708  2.245876  -0.003
