# generated using pymatgen
data_Co5H100C61(N2O5)4
_symmetry_space_group_name_H-M   'P 1'
_cell_length_a   14.28460620
_cell_length_b   14.26186965
_cell_length_c   21.72444713
_cell_angle_alpha   89.99879490
_cell_angle_beta   99.91599956
_cell_angle_gamma   90.00145537
_symmetry_Int_Tables_number   1
_chemical_formula_structural   Co5H100C61(N2O5)4
_chemical_formula_sum   'Co10 H200 C122 N16 O40'
_cell_volume   4359.70109860
_cell_formula_units_Z   2
loop_
 _symmetry_equiv_pos_site_id
 _symmetry_equiv_pos_as_xyz
  1  'x, y, z'
loop_
 _atom_site_type_symbol
 _atom_site_label
 _atom_site_symmetry_multiplicity
 _atom_site_fract_x
 _atom_site_fract_y
 _atom_site_fract_z
 _atom_site_occupancy
 _atom_site_pbe_bader_charge
 _atom_site_pbe_bader_spin_density
 _atom_site_pbe_cm5_charge
 _atom_site_pbe_ddec_charge
 _atom_site_pbe_ddec_spin_density
 _atom_site_pbe_ddec_sum_bond_order
 _atom_site_pbe_magmom
Co  Co0  1  0.18843813  0.81824682  0.06384030  1  1.325654  2.625355  0.694578  0.928859  2.850584  2.555222  2.609
Co  Co1  1  0.84192264  0.16230456  0.06830722  1  1.314671  2.617183  0.683835  0.915928  2.835299  2.535718  2.601
Co  Co2  1  0.56743395  0.99090790  0.27670708  1  1.288819  2.590999  0.665764  0.895728  2.80643  2.530645  2.574
Co  Co3  1  0.59983756  0.11703255  0.41755424  1  1.341719  2.644668  0.68215  1.002228  2.867508  2.506468  2.628
Co  Co4  1  0.63001412  0.91060858  0.40640452  1  1.276063  2.63732  0.660645  0.913133  2.837773  2.466207  2.611
Co  Co5  1  0.81156278  0.31822915  0.93616581  1  1.325179  2.625395  0.694587  0.928742  2.850642  2.555104  2.609
Co  Co6  1  0.15808045  0.66231749  0.93169531  1  1.314779  2.61727  0.684054  0.91644  2.835449  2.535562  2.601
Co  Co7  1  0.43255876  0.49091129  0.72330492  1  1.288695  2.591129  0.665927  0.896056  2.806591  2.530732  2.574
Co  Co8  1  0.40016948  0.61702634  0.58244937  1  1.341945  2.644653  0.682126  1.002023  2.867499  2.506326  2.628
Co  Co9  1  0.36999173  0.41058721  0.59358891  1  1.276217  2.637306  0.660775  0.913321  2.837846  2.466633  2.611
H  H10  1  0.06113387  0.69642083  0.03497004  1  0.650892  0.000746  0.284755  0.372129  0.000736  0.980195  0.001
H  H11  1  0.03459181  0.76279933  0.97002624  1  0.643337  0.000256  0.284065  0.372778  0.000241  0.981801  0.001
H  H12  1  0.71768949  0.05303633  0.36034160  1  0.643929  0.001963  0.278989  0.379604  0.001729  0.969881  0.005
H  H13  1  0.30147927  0.43433470  0.04183886  1  0.040913  0.000156  0.087093  0.124253  5.9e-05  1.005523  0.0
H  H14  1  0.40590394  0.48099016  0.01923826  1  -0.002878  -9.6e-05  0.082962  0.112424  -0.000198  1.01101  0.0
H  H15  1  0.41380792  0.41927490  0.09101295  1  0.020691  0.000465  0.082937  0.111979  0.000179  1.039125  0.0
H  H16  1  0.49432434  0.55794046  0.15362622  1  0.007661  0.000681  0.081965  0.107731  0.000271  1.04122  0.0
H  H17  1  0.49391478  0.61764837  0.08179202  1  0.024674  0.000105  0.086172  0.120567  2.8e-05  0.999553  0.0
H  H18  1  0.44299451  0.67189491  0.14181518  1  0.057066  -0.000333  0.082251  0.110044  -0.000518  1.047581  0.0
H  H19  1  0.23156386  0.50983232  0.13011503  1  0.037078  0.000125  0.09098  0.128184  2.9e-05  1.012171  0.0
H  H20  1  0.34137086  0.49053599  0.18084530  1  0.005191  0.000801  0.084635  0.11516  0.000319  1.023492  0.0
H  H21  1  0.29095900  0.60522451  0.17270026  1  0.061764  0.000111  0.085954  0.120061  2e-05  1.021349  0.0
H  H22  1  0.35657934  0.82941154  0.85384631  1  0.032014  -0.000108  0.084414  0.114354  -0.000279  1.037682  0.0
H  H23  1  0.39312054  0.94730694  0.84411225  1  0.016589  0.00072  0.083855  0.110715  0.000291  1.038659  0.0
H  H24  1  0.23687753  0.05516710  0.94880525  1  0.029954  0.000209  0.087372  0.1238  7.5e-05  1.002803  0.0
H  H25  1  0.35635926  0.01901726  0.97486478  1  0.01282  1.2e-05  0.082989  0.110956  -0.000113  1.017272  0.0
H  H26  1  0.32573195  0.07943086  0.90275489  1  -0.007226  0.000827  0.084221  0.115147  0.000312  1.034287  0.0
H  H27  1  0.18310198  0.87917619  0.81800462  1  0.062774  0.000221  0.088747  0.122825  0.000109  1.024508  0.0
H  H28  1  0.13491953  0.97240957  0.85711633  1  0.01587  5.5e-05  0.088937  0.122978  -1.8e-05  1.013424  0.0
H  H29  1  0.22073805  0.99663336  0.80898257  1  0.029645  0.000507  0.085824  0.116951  0.000213  1.020538  0.0
H  H30  1  0.42866793  0.88889173  0.91661263  1  0.032073  6.8e-05  0.087766  0.123015  -1.6e-05  1.00319  0.0
H  H31  1  0.09989348  0.72849135  0.30352612  1  0.002574  0.000152  0.086079  0.116643  4.4e-05  1.005444  0.0
H  H32  1  0.19244436  0.70370824  0.26073319  1  0.030327  4.5e-05  0.085059  0.114364  1.2e-05  1.017113  0.0
H  H33  1  0.13024133  0.81128049  0.24892668  1  0.026833  0.000227  0.082723  0.11175  0.000124  1.02818  0.0
H  H34  1  0.00911283  0.57833168  0.26560714  1  0.007675  0.000499  0.085358  0.116421  0.000198  1.006765  0.0
H  H35  1  0.99126556  0.55060220  0.18435233  1  0.050495  1.4e-05  0.086192  0.116075  8e-06  1.044642  0.0
H  H36  1  0.10784606  0.55042272  0.22909028  1  0.046249  6.2e-05  0.086029  0.118431  6e-06  1.019372  0.0
H  H37  1  0.92769906  0.73559156  0.24731406  1  0.013216  0.000492  0.086731  0.117801  0.0002  1.028227  0.0
H  H38  1  0.95755263  0.81427609  0.19028568  1  0.033713  -0.00029  0.080156  0.106009  -0.000411  1.026772  0.0
H  H39  1  0.89910106  0.70667974  0.16637927  1  0.04381  3e-05  0.089579  0.126672  1.7e-05  1.006226  0.0
H  H40  1  0.07184921  0.32077393  0.29302218  1  0.021019  0.000127  0.085853  0.118585  3.3e-05  1.023451  0.0
H  H41  1  0.98737774  0.37871222  0.23596772  1  0.021982  5.1e-05  0.086037  0.119936  5e-06  1.019157  0.0
H  H42  1  0.97239113  0.25805648  0.25279300  1  0.013128  0.000203  0.086038  0.118056  7.9e-05  1.030664  0.0
H  H43  1  0.18629994  0.20340067  0.26159971  1  0.032429  3.2e-05  0.086815  0.116754  2.5e-05  1.02359  0.0
H  H44  1  0.08717702  0.13640597  0.22563988  1  0.030349  -9e-06  0.084835  0.113634  -5.9e-05  1.023958  0.0
H  H45  1  0.17791859  0.16774101  0.18234995  1  0.001641  -0.000133  0.084414  0.114706  -0.000178  1.008872  0.0
H  H46  1  0.19802549  0.37950301  0.23302022  1  0.025223  0.000712  0.082484  0.110435  0.000272  1.035074  0.0
H  H47  1  0.20093550  0.33822569  0.15596816  1  0.030374  9e-06  0.08586  0.119675  -7e-06  1.015205  0.0
H  H48  1  0.11662089  0.42395371  0.16828141  1  0.027023  6.5e-05  0.085493  0.114459  1.5e-05  1.037099  0.0
H  H49  1  0.47734377  0.23832699  0.16497686  1  0.017433  7.5e-05  0.08489  0.117177  -1.5e-05  1.005451  0.0
H  H50  1  0.36757250  0.20755087  0.18785379  1  0.040944  8.8e-05  0.08618  0.118308  -1.4e-05  1.021321  0.0
H  H51  1  0.38915097  0.32541610  0.16778762  1  0.029398  0.000835  0.08474  0.11552  0.000313  1.032703  0.0
H  H52  1  0.35540421  0.38370226  0.27407785  1  0.00694  0.000338  0.086113  0.115693  0.000165  1.02036  0.0
H  H53  1  0.32911941  0.26630468  0.29264861  1  0.015512  8.4e-05  0.087271  0.11886  2.3e-05  1.019276  0.0
H  H54  1  0.41647082  0.33083928  0.34400236  1  0.02392  -0.000162  0.0843  0.113228  -0.000403  1.029654  0.0
H  H55  1  0.60191696  0.33565188  0.24198019  1  0.032864  -3.3e-05  0.08603  0.116728  -0.000133  1.028043  0.0
H  H56  1  0.51219577  0.42291006  0.23792099  1  -0.018161  0.000728  0.083761  0.112161  0.000281  1.027013  0.0
H  H57  1  0.56856356  0.37840070  0.31183366  1  0.041104  0.000288  0.085244  0.118361  0.000152  1.019671  0.0
H  H58  1  0.29510166  0.08244399  0.29674376  1  0.052369  2.8e-05  0.08808  0.124134  -4e-05  1.013765  0.0
H  H59  1  0.30111265  0.97048247  0.26195108  1  0.030911  -0.000197  0.081163  0.11143  -0.000409  1.049634  0.0
H  H60  1  0.19924508  0.00192182  0.29441841  1  -0.014163  0.000801  0.086352  0.116715  0.000335  1.004801  0.0
H  H61  1  0.29249982  0.09358997  0.41511075  1  0.049645  -0.000101  0.086497  0.124427  -0.000166  1.005591  0.0
H  H62  1  0.20331467  0.00487686  0.40949234  1  -0.014059  0.000511  0.087593  0.121174  0.000212  0.995749  0.0
H  H63  1  0.31196780  0.99165404  0.46249359  1  -0.014027  -0.000153  0.080861  0.108273  -0.000231  1.020259  0.0
H  H64  1  0.33263202  0.82434877  0.33017047  1  0.023089  -0.000136  0.084173  0.119008  -0.000249  1.020675  0.0
H  H65  1  0.33297948  0.83160387  0.41189523  1  0.004027  -0.000297  0.081103  0.111159  -0.000489  1.030723  0.0
H  H66  1  0.22569023  0.84943763  0.35867763  1  0.043224  0.000469  0.087413  0.121519  0.000185  1.009519  0.0
H  H67  1  0.74500364  0.76102288  0.19899931  1  0.01904  -5.9e-05  0.087824  0.122576  -0.000145  1.01164  0.0
H  H68  1  0.71423847  0.64074810  0.18846049  1  0.02342  0.00069  0.083715  0.111337  0.000263  1.041428  0.0
H  H69  1  0.62391733  0.72809474  0.17696826  1  0.051388  0.000106  0.086279  0.122281  3.2e-05  1.013418  0.0
H  H70  1  0.76958957  0.65536822  0.36291178  1  0.025504  0.000252  0.089862  0.127128  8.8e-05  1.002978  0.0
H  H71  1  0.79665042  0.59637106  0.29560968  1  0.013163  0.000499  0.084885  0.114397  0.000195  1.014356  0.0
H  H72  1  0.83453338  0.71409778  0.31210029  1  0.011189  9.5e-05  0.088116  0.120476  -1.6e-05  1.014256  0.0
H  H73  1  0.59590408  0.62069366  0.33091875  1  0.023479  0.000148  0.085369  0.114008  4.5e-05  1.021454  0.0
H  H74  1  0.53385756  0.65320664  0.25555559  1  0.035807  5.1e-05  0.086274  0.117561  -4.2e-05  1.017986  0.0
H  H75  1  0.61834259  0.56063978  0.26336671  1  0.030785  0.000708  0.088805  0.12276  0.000299  1.013834  0.0
H  H76  1  0.83884380  0.93477378  0.65532138  1  0.010679  2.7e-05  0.087702  0.120158  -1.1e-05  1.022283  0.0
H  H77  1  0.72502196  0.89453206  0.61860372  1  0.043631  9e-05  0.085049  0.11978  -1e-05  1.019289  0.0
H  H78  1  0.82794780  0.86145544  0.58779249  1  0.06073  0.000311  0.090087  0.126541  0.000132  1.012692  0.0
H  H79  1  0.87806287  0.10117173  0.52740071  1  0.032738  9.5e-05  0.089331  0.127107  -1.7e-05  1.015793  0.0
H  H80  1  0.93084334  0.05133765  0.60047154  1  0.022474  0.000491  0.084488  0.114253  0.000174  1.010108  0.0
H  H81  1  0.91497606  0.98181965  0.53100657  1  0.074937  0.000439  0.09064  0.128122  0.000203  1.008248  0.0
H  H82  1  0.72999638  0.14978551  0.57093526  1  0.058174  5.4e-05  0.090235  0.131396  -9.8e-05  1.010221  0.0
H  H83  1  0.66906957  0.06622984  0.61022572  1  0.005397  3.8e-05  0.080779  0.111833  -0.000115  1.014171  0.0
H  H84  1  0.78465272  0.10459459  0.64496038  1  0.011981  0.000849  0.083451  0.114356  0.0003  1.028689  0.0
H  H85  1  0.87920984  0.39120878  0.35045041  1  0.021877  0.00081  0.085819  0.118846  0.00031  1.001416  0.0
H  H86  1  0.84680263  0.28413961  0.31020551  1  0.053687  3.1e-05  0.084319  0.112395  -1e-06  1.039092  0.0
H  H87  1  0.75914172  0.35171542  0.33957269  1  0.038715  8.3e-05  0.082829  0.114309  1.2e-05  1.014893  0.0
H  H88  1  0.88651374  0.39957965  0.46899411  1  0.028643  0.000174  0.083442  0.113732  3.4e-05  1.007742  0.0
H  H89  1  0.76487619  0.36521675  0.45709828  1  -0.008616  6e-05  0.079804  0.106222  6e-06  1.03187  0.0
H  H90  1  0.84981618  0.30163485  0.50990833  1  0.008161  0.000177  0.085447  0.119257  6.5e-05  1.006872  0.0
H  H91  1  0.00815360  0.30366878  0.42424905  1  0.007826  0.00041  0.084483  0.115529  0.00015  1.01964  0.0
H  H92  1  0.97866696  0.20534825  0.46740892  1  0.005181  8.5e-05  0.085824  0.117633  1.5e-05  1.006119  0.0
H  H93  1  0.97385286  0.19540200  0.38528343  1  0.062621  3.9e-05  0.086242  0.122382  1.7e-05  1.013247  0.0
H  H94  1  0.30453937  0.76390779  0.18236216  1  0.158242  0.002333  0.12523  0.102619  0.000692  1.028474  0.002
H  H95  1  0.45326376  0.81935918  0.25392585  1  0.146655  0.002167  0.125798  0.106183  0.000539  1.004077  0.002
H  H96  1  0.44609408  0.06673078  0.15282299  1  0.129551  0.002421  0.124483  0.099275  0.000723  1.008872  0.002
H  H97  1  0.30035777  0.00859818  0.07908172  1  0.109853  0.00268  0.127335  0.10589  0.000999  0.988441  0.002
H  H98  1  0.96899665  0.04034585  0.16487860  1  0.113148  0.002657  0.124999  0.10043  0.000792  0.999209  0.002
H  H99  1  0.10219980  0.92319460  0.16377866  1  0.117014  0.002792  0.123431  0.097837  0.000998  1.006757  0.002
H  H100  1  0.04915270  0.92668617  0.96962552  1  0.162621  0.002647  0.128597  0.108822  0.000798  1.004958  0.002
H  H101  1  0.91533118  0.03981550  0.97074926  1  0.143318  0.002665  0.128305  0.109527  0.000983  1.006745  0.002
H  H102  1  0.80485862  0.21477975  0.19523074  1  0.129214  0.002665  0.125316  0.100043  0.000885  1.020019  0.002
H  H103  1  0.69871845  0.15806305  0.26947474  1  0.149715  0.002762  0.128246  0.110964  0.000834  1.005428  0.002
H  H104  1  0.63023257  0.92190280  0.15889288  1  0.148545  0.002767  0.125129  0.104656  0.000804  1.000875  0.002
H  H105  1  0.73397050  0.98119418  0.08328452  1  0.131226  0.002694  0.126534  0.106937  0.000765  0.996776  0.002
H  H106  1  0.40156873  0.20888280  0.58354763  1  0.138161  0.00219  0.122826  0.101768  0.000786  1.037572  0.002
H  H107  1  0.49241575  0.09836152  0.52395631  1  0.128557  0.002611  0.125347  0.100833  0.000702  1.00091  0.002
H  H108  1  0.59074589  0.32491305  0.43400419  1  0.128694  0.002557  0.127975  0.10543  0.000889  1.001823  0.002
H  H109  1  0.49869372  0.43557595  0.49315409  1  0.111724  0.002337  0.123616  0.103918  0.000738  1.016573  0.002
H  H110  1  0.93884866  0.19638443  0.96503429  1  0.651174  0.000743  0.284784  0.372359  0.000735  0.979931  0.001
H  H111  1  0.96539861  0.26277252  0.02997255  1  0.643657  0.000254  0.28404  0.372842  0.00024  0.981697  0.001
H  H112  1  0.28232180  0.55299516  0.63965463  1  0.644281  0.001959  0.278864  0.379513  0.00173  0.970047  0.005
H  H113  1  0.69851644  0.93429526  0.95815494  1  0.041782  0.000156  0.087131  0.12427  5.8e-05  1.005181  0.0
H  H114  1  0.59408785  0.98094244  0.98076227  1  -0.002533  -9.6e-05  0.082969  0.112416  -0.000198  1.010727  0.0
H  H115  1  0.58618390  0.91924120  0.90898153  1  0.021244  0.000465  0.082889  0.111824  0.000179  1.039267  0.0
H  H116  1  0.50565579  0.05793195  0.84638481  1  0.00755  0.000681  0.082017  0.107726  0.000271  1.041271  0.0
H  H117  1  0.50608801  0.11761162  0.91822582  1  0.025103  0.000105  0.086171  0.120478  2.8e-05  0.999508  0.0
H  H118  1  0.55699955  0.17188241  0.85820691  1  0.057615  -0.000333  0.082307  0.109995  -0.000518  1.047585  0.0
H  H119  1  0.76841447  0.00981779  0.86987437  1  0.037346  0.000125  0.090882  0.128177  2.9e-05  1.012052  0.0
H  H120  1  0.65860551  0.99052103  0.81914829  1  0.004234  0.0008  0.084652  0.115192  0.000319  1.023342  0.0
H  H121  1  0.70901793  0.10521545  0.82729917  1  0.062272  0.000111  0.08595  0.120129  2e-05  1.021364  0.0
H  H122  1  0.64342964  0.32940231  0.14616241  1  0.0319  -0.000108  0.084406  0.114232  -0.000279  1.037907  0.0
H  H123  1  0.60688968  0.44730138  0.15588761  1  0.016572  0.00072  0.083834  0.110679  0.000291  1.038716  0.0
H  H124  1  0.76317146  0.55514433  0.05120719  1  0.029573  0.00021  0.087307  0.123724  7.5e-05  1.002798  0.0
H  H125  1  0.64368466  0.51901754  0.02514206  1  0.014044  1.2e-05  0.082966  0.110815  -0.000113  1.016997  0.0
H  H126  1  0.67431760  0.57942750  0.09725313  1  -0.00742  0.000827  0.084207  0.115054  0.000312  1.034251  0.0
H  H127  1  0.81689816  0.37915617  0.18201345  1  0.062788  0.000221  0.088599  0.122603  0.000109  1.024646  0.0
H  H128  1  0.86510617  0.47238081  0.14290243  1  0.015828  5.5e-05  0.088949  0.123046  -1.8e-05  1.013265  0.0
H  H129  1  0.77927753  0.49662052  0.19102965  1  0.029919  0.000506  0.085775  0.116854  0.000213  1.020349  0.0
H  H130  1  0.57134879  0.38887567  0.08338555  1  0.03207  6.8e-05  0.087793  0.122998  -1.6e-05  1.003154  0.0
H  H131  1  0.90009831  0.22849062  0.69647743  1  0.002725  0.000152  0.086041  0.116636  4.4e-05  1.005336  0.0
H  H132  1  0.80755682  0.20369888  0.73927086  1  0.030195  4.5e-05  0.085055  0.114266  1.2e-05  1.017177  0.0
H  H133  1  0.86975587  0.31127234  0.75107451  1  0.026986  0.000227  0.08268  0.111697  0.000124  1.028163  0.0
H  H134  1  0.99089121  0.07833974  0.73439528  1  0.007584  0.000499  0.085323  0.116365  0.000198  1.006907  0.0
H  H135  1  0.00873786  0.05059963  0.81564626  1  0.050436  1.4e-05  0.086191  0.116046  8e-06  1.044696  0.0
H  H136  1  0.89215806  0.05041590  0.77090747  1  0.046505  6.2e-05  0.086022  0.118434  6e-06  1.019399  0.0
H  H137  1  0.07229502  0.23560593  0.75268827  1  0.012741  0.000492  0.086796  0.117911  0.0002  1.028274  0.0
H  H138  1  0.04243966  0.31428086  0.80971767  1  0.033543  -0.00029  0.080143  0.106043  -0.000411  1.026846  0.0
H  H139  1  0.10089876  0.20668873  0.83362228  1  0.044048  3e-05  0.089599  0.126696  1.7e-05  1.006269  0.0
H  H140  1  0.92813116  0.82079043  0.70697466  1  0.02071  0.000127  0.085884  0.118585  3.3e-05  1.023475  0.0
H  H141  1  0.01261957  0.87873035  0.76401643  1  0.02245  5.1e-05  0.086079  0.120042  5e-06  1.019144  0.0
H  H142  1  0.02759635  0.75807552  0.74719217  1  0.013668  0.000203  0.085989  0.118088  8e-05  1.030755  0.0
H  H143  1  0.81370266  0.70343430  0.73838609  1  0.032495  3.2e-05  0.08684  0.116761  2.5e-05  1.023611  0.0
H  H144  1  0.91280985  0.63642693  0.77434921  1  0.030303  -9e-06  0.084863  0.113657  -5.9e-05  1.023966  0.0
H  H145  1  0.82206047  0.66775899  0.81763044  1  0.00149  -0.000134  0.084489  0.114755  -0.000178  1.008884  0.0
H  H146  1  0.80198960  0.87952631  0.76697884  1  0.024225  0.000713  0.082482  0.110389  0.000272  1.0352  0.0
H  H147  1  0.79906587  0.83824223  0.84402668  1  0.030753  9e-06  0.085892  0.119618  -7e-06  1.015176  0.0
H  H148  1  0.88339307  0.92397139  0.83171598  1  0.026805  6.5e-05  0.08558  0.11463  1.5e-05  1.037008  0.0
H  H149  1  0.52267239  0.73831930  0.83503577  1  0.017207  7.5e-05  0.084867  0.117053  -1.5e-05  1.005551  0.0
H  H150  1  0.63244084  0.70754108  0.81216033  1  0.040332  8.8e-05  0.086177  0.118256  -1.4e-05  1.021195  0.0
H  H151  1  0.61087497  0.82540021  0.83222768  1  0.029321  0.000835  0.084652  0.115318  0.000313  1.032676  0.0
H  H152  1  0.64461665  0.88370676  0.72594942  1  0.006978  0.000339  0.086044  0.11566  0.000165  1.020277  0.0
H  H153  1  0.67091160  0.76631745  0.70737498  1  0.015838  8.4e-05  0.087298  0.118946  2.3e-05  1.019413  0.0
H  H154  1  0.58356448  0.83085148  0.65601853  1  0.024078  -0.000162  0.084312  0.11324  -0.000402  1.029513  0.0
H  H155  1  0.39811063  0.83565753  0.75803562  1  0.033106  -3.3e-05  0.086005  0.116693  -0.000133  1.028159  0.0
H  H156  1  0.48784587  0.92290522  0.76209061  1  0.060258  0.000702  0.083818  0.112258  0.00028  1.027011  0.0
H  H157  1  0.43147424  0.87840381  0.68817719  1  0.041361  0.000287  0.085244  0.118384  0.000152  1.019484  0.0
H  H158  1  0.70491953  0.58246267  0.70325318  1  0.05197  2.8e-05  0.088042  0.124179  -4e-05  1.013553  0.0
H  H159  1  0.69889526  0.47049144  0.73803669  1  0.031451  -0.000197  0.081211  0.111434  -0.000409  1.049807  0.0
H  H160  1  0.80076435  0.50193583  0.70557186  1  -0.014039  0.000802  0.086395  0.116825  0.000336  1.004721  0.0
H  H161  1  0.70752375  0.59363073  0.58488769  1  0.048784  -0.000101  0.086558  0.124606  -0.000166  1.005694  0.0
H  H162  1  0.79670264  0.50492180  0.59051029  1  -0.01381  0.00051  0.087542  0.120993  0.000212  0.995911  0.0
H  H163  1  0.68806687  0.49170422  0.53749647  1  -0.013608  -0.000152  0.080794  0.108241  -0.00023  1.020281  0.0
H  H164  1  0.66740102  0.32437385  0.66982171  1  0.023819  -0.000136  0.084194  0.119053  -0.000249  1.019918  0.0
H  H165  1  0.66705870  0.33163156  0.58809560  1  0.002449  -0.000298  0.081139  0.111282  -0.000489  1.030662  0.0
H  H166  1  0.77433840  0.34948667  0.64131324  1  0.042714  0.000469  0.087389  0.121429  0.000185  1.009634  0.0
H  H167  1  0.25500096  0.26100456  0.80101032  1  0.019077  -5.8e-05  0.087909  0.122766  -0.000145  1.011587  0.0
H  H168  1  0.28575418  0.14072883  0.81153793  1  0.022768  0.000691  0.083757  0.111437  0.000263  1.041472  0.0
H  H169  1  0.37608581  0.22806336  0.82304395  1  0.051299  0.000106  0.086269  0.122137  3.2e-05  1.013387  0.0
H  H170  1  0.23040198  0.15533069  0.63710657  1  0.025476  0.000253  0.089863  0.127243  8.8e-05  1.002948  0.0
H  H171  1  0.20337249  0.09634682  0.70442224  1  0.012838  0.000498  0.084772  0.114227  0.000195  1.014767  0.0
H  H172  1  0.16546234  0.21405628  0.68792094  1  0.010895  9.5e-05  0.0882  0.120686  -1.6e-05  1.014284  0.0
H  H173  1  0.40408811  0.12067283  0.66909463  1  0.023941  0.000148  0.085357  0.11399  4.5e-05  1.021392  0.0
H  H174  1  0.46613607  0.15317866  0.74446073  1  0.035072  5.1e-05  0.086294  0.117582  -4.2e-05  1.017969  0.0
H  H175  1  0.38163404  0.06063235  0.73664481  1  0.031286  0.000708  0.088759  0.122705  0.000299  1.013606  0.0
H  H176  1  0.16112350  0.43478804  0.34467333  1  0.010437  2.7e-05  0.087689  0.120143  -1.1e-05  1.022255  0.0
H  H177  1  0.27493236  0.39452349  0.38137350  1  0.043507  8.9e-05  0.085025  0.119807  -1.1e-05  1.01932  0.0
H  H178  1  0.17200719  0.36145730  0.41218618  1  0.06013  0.000311  0.090088  0.126576  0.000133  1.012676  0.0
H  H179  1  0.12190757  0.60115008  0.47258423  1  0.033448  9.5e-05  0.089404  0.127202  -1.7e-05  1.015601  0.0
H  H180  1  0.06914588  0.55131560  0.39951669  1  0.022342  0.00049  0.08447  0.114155  0.000174  1.010045  0.0
H  H181  1  0.08499656  0.48179575  0.46897567  1  0.074843  0.000439  0.090657  0.128082  0.000203  1.008271  0.0
H  H182  1  0.26996024  0.64978372  0.42904422  1  0.057057  5.4e-05  0.090247  0.131204  -9.8e-05  1.010387  0.0
H  H183  1  0.33088518  0.56624138  0.38974595  1  0.00522  3.7e-05  0.080719  0.111708  -0.000115  1.014135  0.0
H  H184  1  0.21529648  0.60458257  0.35503177  1  0.011161  0.000849  0.083396  0.114226  0.0003  1.02872  0.0
H  H185  1  0.12078207  0.89117582  0.64952283  1  0.020878  0.000809  0.085819  0.118821  0.000309  1.001808  0.0
H  H186  1  0.15317550  0.78409846  0.68975936  1  0.054384  3.1e-05  0.084301  0.112438  -1e-06  1.039155  0.0
H  H187  1  0.24085000  0.85168796  0.66040798  1  0.039143  8.3e-05  0.082909  0.114521  1.2e-05  1.014589  0.0
H  H188  1  0.11347338  0.89958186  0.53100057  1  0.014273  0.000174  0.083467  0.113601  3.3e-05  1.007739  0.0
H  H189  1  0.23511513  0.86524479  0.54287664  1  -0.008916  6e-05  0.079811  0.106066  6e-06  1.032012  0.0
H  H190  1  0.15016589  0.80167225  0.49005952  1  0.007686  0.000177  0.085355  0.119195  6.5e-05  1.006884  0.0
H  H191  1  0.99185553  0.80366585  0.57572137  1  0.008354  0.000411  0.084473  0.115615  0.00015  1.019715  0.0
H  H192  1  0.02133143  0.70535438  0.53255059  1  0.004866  8.5e-05  0.085828  0.11769  1.5e-05  1.005933  0.0
H  H193  1  0.02614033  0.69538809  0.61467563  1  0.063572  3.9e-05  0.08635  0.122515  1.7e-05  1.013339  0.0
H  H194  1  0.69545463  0.26389379  0.81764438  1  0.157496  0.002333  0.125229  0.102728  0.000693  1.02853  0.002
H  H195  1  0.54673576  0.31934791  0.74607042  1  0.147042  0.002167  0.125814  0.106197  0.00054  1.00389  0.002
H  H196  1  0.55390117  0.56671297  0.84718412  1  0.129273  0.002423  0.12444  0.099182  0.000723  1.008997  0.002
H  H197  1  0.69963830  0.50857680  0.92092813  1  0.109752  0.002679  0.127383  0.105872  0.000999  0.988442  0.002
H  H198  1  0.03100369  0.54038320  0.83512484  1  0.113649  0.002657  0.12502  0.100434  0.000791  0.999182  0.002
H  H199  1  0.89782196  0.42318933  0.83621594  1  0.11675  0.002791  0.123431  0.09784  0.000998  1.006642  0.002
H  H200  1  0.95083431  0.42668282  0.03038074  1  0.162673  0.002648  0.128608  0.108809  0.000798  1.004762  0.002
H  H201  1  0.08465137  0.53983726  0.02926230  1  0.143595  0.002665  0.128276  0.109601  0.000983  1.006575  0.002
H  H202  1  0.19515347  0.71480400  0.80477301  1  0.129087  0.002665  0.125281  0.099916  0.000884  1.019955  0.002
H  H203  1  0.30127957  0.65807063  0.73052221  1  0.14946  0.002762  0.128241  0.111011  0.000834  1.00528  0.002
H  H204  1  0.36972803  0.42189662  0.84112196  1  0.149229  0.002769  0.125181  0.10466  0.000804  1.000935  0.002
H  H205  1  0.26599428  0.48121661  0.91672445  1  0.131069  0.002694  0.12665  0.107015  0.000765  0.996756  0.002
H  H206  1  0.59842261  0.70892409  0.41645293  1  0.138599  0.002191  0.122912  0.101889  0.000787  1.037406  0.002
H  H207  1  0.50755392  0.59839720  0.47604239  1  0.129045  0.002611  0.125287  0.100732  0.000702  1.000949  0.002
H  H208  1  0.40928857  0.82494476  0.56601622  1  0.128525  0.002557  0.128058  0.105532  0.000888  1.001953  0.002
H  H209  1  0.50134039  0.93560698  0.50686107  1  0.111511  0.002339  0.123643  0.104134  0.000739  1.016392  0.002
C  C210  1  0.29423419  0.62950945  0.04991954  1  1.568462  0.002051  0.2247  0.595729  0.001089  4.047509  0.001
C  C211  1  0.35625024  0.55978235  0.09349457  1  0.039117  0.012131  -0.019721  0.151566  0.006424  3.814241  0.01
C  C212  1  0.36990637  0.46815694  0.05928028  1  -0.048009  0.000763  -0.247532  -0.407652  0.000438  3.938213  0.0
C  C213  1  0.45258173  0.60469733  0.11918095  1  -0.083728  0.000706  -0.244926  -0.400212  0.000307  3.920924  0.0
C  C214  1  0.30165114  0.54038783  0.14754547  1  -0.084414  0.000511  -0.240156  -0.398708  0.000212  3.87006  0.0
C  C215  1  0.24700127  0.85936486  0.94138850  1  1.546572  -0.004461  0.229105  0.596529  -0.006571  4.038347  -0.003
C  C216  1  0.28039450  0.93401746  0.89888627  1  0.061966  0.012141  -0.018546  0.153617  0.006344  3.823405  0.01
C  C217  1  0.37010979  0.89753986  0.87702573  1  -0.065544  0.000772  -0.244123  -0.402685  0.000397  3.908171  0.0
C  C218  1  0.30076134  0.02739620  0.93347733  1  -0.032137  0.001252  -0.247376  -0.406339  0.000797  3.933331  0.001
C  C219  1  0.19989260  0.94606766  0.84236628  1  -0.084865  -0.000214  -0.239602  -0.400872  -0.000486  3.880606  0.0
C  C220  1  0.07819108  0.69920297  0.14205585  1  1.550511  0.001446  0.218394  0.578849  0.000142  4.066571  0.001
C  C221  1  0.04907379  0.69006602  0.20694376  1  0.068107  0.0057  -0.021206  0.148234  0.003001  3.829313  0.005
C  C222  1  0.12209168  0.73622067  0.25776280  1  -0.062262  0.000552  -0.246783  -0.407963  0.000354  3.952781  0.0
C  C223  1  0.03864510  0.58600775  0.22232912  1  -0.089467  0.000289  -0.244186  -0.407265  0.000121  3.919508  0.0
C  C224  1  0.95237159  0.73972810  0.20223971  1  -0.081153  0.000507  -0.242425  -0.400029  0.000151  3.903896  0.0
C  C225  1  0.01594896  0.26428105  0.13549160  1  1.549225  0.000509  0.219147  0.580311  -0.000188  4.060965  0.0
C  C226  1  0.08336669  0.28385128  0.19746419  1  0.051997  0.005665  -0.020419  0.152836  0.003031  3.824747  0.004
C  C227  1  0.02502094  0.31218333  0.24766187  1  -0.039506  0.00036  -0.244724  -0.404968  0.000195  3.901898  0.0
C  C228  1  0.13673548  0.19210980  0.21763314  1  -0.063914  -0.000128  -0.241007  -0.400331  -0.000359  3.912561  0.0
C  C229  1  0.15399353  0.36087518  0.18812352  1  -0.062739  0.001149  -0.249697  -0.415761  0.000646  3.947066  0.001
C  C230  1  0.50941796  0.19546561  0.29305608  1  1.570895  -0.002304  0.223147  0.585382  -0.004057  4.060647  -0.001
C  C231  1  0.46446245  0.28377098  0.25916672  1  0.041575  0.012583  -0.019224  0.152677  0.006599  3.818918  0.01
C  C232  1  0.42220309  0.26226383  0.19097683  1  -0.072963  0.00125  -0.245725  -0.401791  0.000768  3.918687  0.001
C  C233  1  0.38659258  0.31800617  0.29471270  1  -0.045962  -0.000488  -0.241075  -0.398454  -0.000808  3.896101  -0.001
C  C234  1  0.54162239  0.35968269  0.26303091  1  -0.042828  0.001054  -0.245285  -0.40893  0.00063  3.919234  0.0
C  C235  1  0.43030200  0.98651180  0.37204970  1  1.52451  0.009221  0.222092  0.581391  0.006288  4.049126  0.006
C  C236  1  0.32245677  0.96757335  0.36444319  1  0.063892  0.00993  -0.01803  0.152162  0.005393  3.809415  0.008
C  C237  1  0.27704645  0.00807267  0.30036924  1  -0.051535  0.000899  -0.240613  -0.390679  0.000365  3.874894  0.0
C  C238  1  0.28030070  0.01771616  0.41593616  1  -0.003713  0.00082  -0.245938  -0.400676  0.000323  3.929825  0.0
C  C239  1  0.30271125  0.86189688  0.36631026  1  -0.055977  0.000258  -0.245897  -0.397214  -9.6e-05  3.902716  0.0
C  C240  1  0.65638232  0.79427244  0.30021636  1  1.545112  -0.005132  0.225606  0.585261  -0.007176  4.058259  -0.004
C  C241  1  0.68301406  0.69907528  0.27468785  1  0.067178  0.011963  -0.017624  0.153409  0.006297  3.820123  0.01
C  C242  1  0.69188945  0.70808935  0.20566599  1  -0.072939  0.001172  -0.246417  -0.407728  0.000671  3.920131  0.001
C  C243  1  0.77655107  0.66410427  0.31374056  1  -0.030803  0.000823  -0.241693  -0.401525  0.000442  3.915541  0.0
C  C244  1  0.60264531  0.62969826  0.28165487  1  -0.085379  -0.000107  -0.238887  -0.399715  -0.000391  3.893508  0.0
C  C245  1  0.72342310  0.98008713  0.50655333  1  1.521717  0.006719  0.220292  0.57729  0.003812  4.018941  0.003
C  C246  1  0.78489237  0.00734068  0.56858997  1  0.066279  0.005767  -0.016384  0.158664  0.003202  3.818845  0.004
C  C247  1  0.79466780  0.91877674  0.60997380  1  -0.104203  0.000465  -0.241005  -0.409312  0.000215  3.888141  0.0
C  C248  1  0.88343896  0.03721620  0.55592879  1  -0.092533  0.001829  -0.240483  -0.404318  0.000978  3.89039  0.001
C  C249  1  0.73914021  0.08683268  0.60041452  1  -0.055359  0.001536  -0.247278  -0.403587  0.000776  3.912769  0.001
C  C250  1  0.79123136  0.18778185  0.40522805  1  1.569288  0.002255  0.216761  0.575238  0.001173  4.066094  0.001
C  C251  1  0.85639852  0.27511685  0.41151887  1  0.047976  0.006956  -0.019436  0.149447  0.003719  3.816341  0.005
C  C252  1  0.83375290  0.32868557  0.34904506  1  -0.115102  0.001051  -0.240925  -0.397141  0.000581  3.903164  0.001
C  C253  1  0.83823650  0.33894190  0.46501563  1  -0.02117  0.000613  -0.247304  -0.401731  0.000415  3.949239  0.0
C  C254  1  0.96061336  0.24273444  0.42266664  1  -0.055954  0.000246  -0.24237  -0.402344  8.4e-05  3.918029  0.0
C  C255  1  0.33777953  0.83076141  0.17557334  1  0.543998  -0.008273  0.055929  0.055054  -0.010697  3.913335  -0.002
C  C256  1  0.41910591  0.86118138  0.21457644  1  0.383597  -0.012878  0.052481  0.042777  -0.014886  3.921389  -0.005
C  C257  1  0.41528847  0.99810888  0.15851623  1  0.440122  -0.012809  0.050588  0.036566  -0.015213  3.929092  -0.005
C  C258  1  0.33433054  0.96701299  0.11882809  1  0.529476  -0.007323  0.053164  0.036748  -0.0096  3.927981  -0.001
C  C259  1  0.98670316  0.01350036  0.12138725  1  0.530648  -0.007867  0.050301  0.040255  -0.010178  3.942814  -0.002
C  C260  1  0.06027615  0.95021997  0.12077054  1  0.447885  -0.008277  0.047802  0.036511  -0.010072  3.94266  -0.003
C  C261  1  0.03131688  0.95163207  0.01343807  1  0.478621  -0.010747  0.060908  0.071272  -0.013219  3.873893  -0.004
C  C262  1  0.95681567  0.01394344  0.01411061  1  0.504096  -0.008913  0.061731  0.069051  -0.010989  3.871456  -0.003
C  C263  1  0.76453325  0.14989797  0.18705813  1  0.478214  -0.013795  0.056999  0.054727  -0.015963  3.89264  -0.006
C  C264  1  0.70561497  0.11892658  0.22747227  1  0.493036  -0.009605  0.05664  0.057658  -0.011903  3.887646  -0.003
C  C265  1  0.66827343  0.98824159  0.16620565  1  0.433096  -0.010472  0.047961  0.038165  -0.012643  3.933004  -0.003
C  C266  1  0.72638318  0.01969535  0.12548346  1  0.479338  -0.011585  0.049734  0.032482  -0.014197  3.935456  -0.004
C  C267  1  0.44398402  0.23412951  0.54988791  1  0.463632  -0.007512  0.051142  0.039343  -0.009975  3.91065  0.0
C  C268  1  0.49374015  0.17391766  0.51734772  1  0.49951  -0.01976  0.057137  0.053857  -0.023127  3.925839  -0.008
C  C269  1  0.54833770  0.29959341  0.46768497  1  0.432269  -0.016415  0.055528  0.042935  -0.019034  3.918379  -0.007
C  C270  1  0.49802023  0.36001912  0.49995573  1  0.522371  -0.0082  0.049596  0.038311  -0.01109  3.919233  -0.001
C  C271  1  0.70577313  0.12948936  0.95008071  1  1.56818  0.002041  0.224599  0.595501  0.001082  4.04823  0.001
C  C272  1  0.64375125  0.05976560  0.90651334  1  0.039217  0.01213  -0.019679  0.151318  0.006423  3.814838  0.01
C  C273  1  0.63008939  0.96812544  0.94071627  1  -0.05016  0.000763  -0.24758  -0.407441  0.000438  3.937699  0.0
C  C274  1  0.54741792  0.10466984  0.88083303  1  -0.084422  0.000706  -0.244996  -0.399889  0.000307  3.920943  0.0
C  C275  1  0.69832859  0.04037839  0.85245241  1  -0.084124  0.00051  -0.240087  -0.398822  0.000212  3.869815  0.0
C  C276  1  0.75302189  0.35934788  0.05862187  1  1.546423  -0.004468  0.229145  0.59628  -0.006567  4.038579  -0.003
C  C277  1  0.71962820  0.43399757  0.10112302  1  0.063308  0.012138  -0.01879  0.153702  0.006344  3.823276  0.01
C  C278  1  0.62990357  0.39753733  0.12297610  1  -0.065816  0.000774  -0.244043  -0.402503  0.000398  3.908358  0.0
C  C279  1  0.69928277  0.52738324  0.06653310  1  -0.033395  0.001253  -0.247272  -0.406066  0.000797  3.932852  0.001
C  C280  1  0.80012043  0.44605291  0.15764727  1  -0.08537  -0.000215  -0.239294  -0.400608  -0.000487  3.880091  0.0
C  C281  1  0.92179791  0.19919201  0.85794181  1  1.550908  0.001441  0.218328  0.57882  0.000141  4.06612  0.001
C  C282  1  0.95092637  0.19005997  0.79305345  1  0.068022  0.005702  -0.021112  0.148306  0.003002  3.829267  0.005
C  C283  1  0.87790383  0.23621580  0.74224015  1  -0.062431  0.000552  -0.246721  -0.4078  0.000354  3.952586  0.0
C  C284  1  0.96135982  0.08600597  0.77766961  1  -0.089682  0.00029  -0.244149  -0.407174  0.000121  3.919653  0.0
C  C285  1  0.04762186  0.23973690  0.79776526  1  -0.080654  0.000507  -0.24252  -0.400256  0.000151  3.904191  0.0
C  C286  1  0.98402445  0.76429742  0.86449787  1  1.548603  0.000517  0.219129  0.58034  -0.000181  4.06038  0.0
C  C287  1  0.91662137  0.78387283  0.80252483  1  0.05224  0.005663  -0.0205  0.152918  0.003029  3.824137  0.004
C  C288  1  0.97497558  0.81220516  0.75232864  1  -0.040563  0.000361  -0.244653  -0.405067  0.000196  3.901989  0.0
C  C289  1  0.86325265  0.69212645  0.78235394  1  -0.063768  -0.000128  -0.241094  -0.400351  -0.000359  3.912444  0.0
C  C290  1  0.84601048  0.86089956  0.81187177  1  -0.061852  0.001149  -0.249832  -0.415906  0.000646  3.947044  0.001
C  C291  1  0.49059511  0.69545981  0.70695956  1  1.572002  -0.002313  0.222987  0.585234  -0.004061  4.061229  -0.001
C  C292  1  0.53555758  0.78375751  0.74084480  1  0.040539  0.012579  -0.019301  0.152692  0.006596  3.818793  0.01
C  C293  1  0.57781290  0.76225136  0.80903729  1  -0.072037  0.001251  -0.245632  -0.401353  0.000768  3.918261  0.001
C  C294  1  0.61343249  0.81800913  0.70530767  1  -0.046319  -0.000488  -0.24096  -0.398492  -0.000809  3.895951  -0.001
C  C295  1  0.45841144  0.85967932  0.73698297  1  -0.121628  0.001079  -0.24525  -0.409049  0.000629  3.919059  0.0
C  C296  1  0.56969631  0.48651612  0.62794367  1  1.524401  0.009235  0.222173  0.581295  0.006295  4.048944  0.006
C  C297  1  0.67755035  0.46760259  0.63554684  1  0.063153  0.009927  -0.018002  0.15174  0.005392  3.80928  0.008
C  C298  1  0.72296027  0.50808771  0.69962064  1  -0.0517  0.000901  -0.240721  -0.390841  0.000366  3.875016  0.0
C  C299  1  0.71971405  0.51775936  0.58405910  1  -0.003119  0.000819  -0.245859  -0.40049  0.000323  3.929778  0.0
C  C300  1  0.69731482  0.36193229  0.63367693  1  -0.054392  0.000256  -0.245845  -0.397015  -9.8e-05  3.901874  0.0
C  C301  1  0.34362089  0.29427433  0.69979035  1  1.544559  -0.005128  0.225677  0.585364  -0.007172  4.057845  -0.004
C  C302  1  0.31699270  0.19907008  0.72531966  1  0.066462  0.011968  -0.017502  0.153533  0.006299  3.819806  0.01
C  C303  1  0.30811040  0.20806838  0.79434199  1  -0.071688  0.001172  -0.246626  -0.407967  0.000672  3.920074  0.001
C  C304  1  0.22344992  0.16407972  0.68627552  1  -0.030059  0.000821  -0.241707  -0.401776  0.00044  3.915962  0.0
C  C305  1  0.39734708  0.12967919  0.71835932  1  -0.085699  -0.000106  -0.238864  -0.399673  -0.00039  3.893178  0.0
C  C306  1  0.27656867  0.48007571  0.49343478  1  1.521751  0.0067  0.220177  0.577116  0.003801  4.018691  0.003
C  C307  1  0.21508520  0.50733112  0.43139708  1  0.066064  0.005768  -0.016257  0.158342  0.003201  3.819358  0.004
C  C308  1  0.20529416  0.41877805  0.39001086  1  -0.103271  0.000465  -0.240959  -0.409264  0.000215  3.888097  0.0
C  C309  1  0.11654284  0.53719392  0.44406108  1  -0.093277  0.001826  -0.240556  -0.404162  0.000976  3.890486  0.001
C  C310  1  0.26082352  0.58683300  0.39957170  1  -0.053139  0.001536  -0.247113  -0.402915  0.000776  3.912651  0.001
C  C311  1  0.20877018  0.68777110  0.59474726  1  1.570452  0.002249  0.216471  0.574803  0.001171  4.06658  0.001
C  C312  1  0.14360712  0.77509764  0.58845202  1  0.047337  0.006954  -0.019355  0.150007  0.003717  3.816015  0.005
C  C313  1  0.16623547  0.82865933  0.65092957  1  -0.115123  0.00105  -0.241014  -0.397568  0.000581  3.903575  0.001
C  C314  1  0.16175637  0.83895291  0.53496397  1  -0.005893  0.000611  -0.247251  -0.401465  0.000414  3.949199  0.0
C  C315  1  0.03938658  0.74272907  0.57729759  1  -0.056926  0.000247  -0.242498  -0.402807  8.5e-05  3.91828  0.0
C  C316  1  0.66220958  0.33074634  0.82443310  1  0.54414  -0.008273  0.055846  0.054776  -0.010698  3.913268  -0.002
C  C317  1  0.58088886  0.36117182  0.78542562  1  0.383339  -0.012876  0.052462  0.042814  -0.014882  3.920928  -0.005
C  C318  1  0.58470370  0.49808921  0.84148779  1  0.439359  -0.01281  0.050772  0.036734  -0.015217  3.928889  -0.005
C  C319  1  0.66566093  0.46698778  0.88118088  1  0.529375  -0.007333  0.053069  0.036858  -0.009611  3.92776  -0.001
C  C320  1  0.01329870  0.51352325  0.87861996  1  0.530114  -0.007879  0.05035  0.040444  -0.010191  3.942349  -0.002
C  C321  1  0.93973058  0.45022280  0.87923349  1  0.448505  -0.008282  0.047747  0.036347  -0.010075  3.942726  -0.003
C  C322  1  0.96867425  0.45163430  0.98656187  1  0.479016  -0.010759  0.060854  0.071431  -0.013227  3.873459  -0.004
C  C323  1  0.04317626  0.51396085  0.98589224  1  0.504133  -0.008932  0.061736  0.068922  -0.011014  3.870468  -0.003
C  C324  1  0.23546743  0.64991316  0.81294523  1  0.478275  -0.013802  0.057064  0.054973  -0.01597  3.891637  -0.006
C  C325  1  0.29437719  0.61892703  0.77252594  1  0.493371  -0.009599  0.056528  0.057507  -0.0119  3.887361  -0.003
C  C326  1  0.33170146  0.48824380  0.83379792  1  0.434399  -0.010476  0.048267  0.03868  -0.012651  3.932741  -0.003
C  C327  1  0.27359040  0.51971094  0.87452322  1  0.478205  -0.011604  0.049452  0.032185  -0.014219  3.935731  -0.004
C  C328  1  0.55601002  0.73416094  0.45011721  1  0.463858  -0.007517  0.051202  0.039474  -0.009973  3.91037  0.0
C  C329  1  0.50624898  0.67395099  0.48265767  1  0.499221  -0.019756  0.057195  0.053732  -0.023127  3.925928  -0.008
C  C330  1  0.45168411  0.79962447  0.53233068  1  0.432286  -0.016406  0.055594  0.043052  -0.019032  3.918577  -0.007
C  C331  1  0.50199654  0.86005108  0.50005989  1  0.522602  -0.008179  0.049444  0.037958  -0.011062  3.919364  -0.001
N  N332  1  0.29488637  0.88325335  0.12727244  1  -1.187632  0.02935  -0.313659  -0.205678  0.01101  3.557664  0.027
N  N333  1  0.45825771  0.94538415  0.20674245  1  -1.203437  0.02495  -0.316492  -0.202661  0.01062  3.563884  0.022
N  N334  1  0.93470939  0.04627256  0.06800305  1  -1.209301  0.035411  -0.310171  -0.215148  0.016379  3.551804  0.033
N  N335  1  0.08329507  0.91890405  0.06671509  1  -1.213737  0.035428  -0.314987  -0.224147  0.016665  3.580018  0.034
N  N336  1  0.77468346  0.10106872  0.13546824  1  -1.190803  0.032288  -0.313504  -0.204404  0.013497  3.568909  0.032
N  N337  1  0.65688761  0.03786944  0.21736493  1  -1.186829  0.028768  -0.314188  -0.208715  0.011268  3.567494  0.03
N  N338  1  0.44515670  0.32797220  0.54140233  1  -1.207915  0.017278  -0.318911  -0.207713  0.001314  3.557229  0.012
N  N339  1  0.54592789  0.20586220  0.47570893  1  -1.176136  0.023958  -0.316276  -0.195663  0.007946  3.55824  0.021
N  N340  1  0.70510819  0.38322941  0.87274126  1  -1.187265  0.029333  -0.31366  -0.205655  0.011005  3.557612  0.027
N  N341  1  0.54172759  0.44537405  0.79325738  1  -1.202279  0.02494  -0.316499  -0.202717  0.010616  3.563483  0.022
N  N342  1  0.06529108  0.54631539  0.93200447  1  -1.210334  0.035399  -0.310349  -0.215328  0.016372  3.550877  0.033
N  N343  1  0.91670314  0.41888283  0.93328748  1  -1.213845  0.035385  -0.314926  -0.22428  0.016639  3.580047  0.034
N  N344  1  0.22530261  0.60108972  0.86454195  1  -1.190526  0.032281  -0.313545  -0.204582  0.013496  3.568927  0.032
N  N345  1  0.34310130  0.53786519  0.78263771  1  -1.187634  0.028758  -0.314318  -0.20907  0.011258  3.567689  0.03
N  N346  1  0.55484443  0.82799561  0.45861150  1  -1.209528  0.017314  -0.319025  -0.207898  0.001338  3.557515  0.012
N  N347  1  0.45407760  0.70589148  0.52430109  1  -1.175117  0.023979  -0.31629  -0.19555  0.007968  3.558327  0.021
O  O348  1  0.29439906  0.71399529  0.06735858  1  -1.168853  0.063725  -0.308934  -0.55969  0.032099  2.374184  0.057
O  O349  1  0.08942377  0.73288959  0.00173022  1  -1.273653  0.107024  -0.559869  -0.809019  0.057594  2.379594  0.092
O  O350  1  0.24467494  0.59521608  0.00029741  1  -1.163856  0.08816  -0.315369  -0.567158  0.045482  2.407414  0.075
O  O351  1  0.65095346  0.02508758  0.35776389  1  -1.210546  0.249019  -0.566054  -0.892894  0.136143  2.442828  0.21
O  O352  1  0.22656463  0.88687559  0.99321252  1  -1.159873  0.104208  -0.307868  -0.551657  0.054162  2.442579  0.09
O  O353  1  0.24048599  0.77554228  0.92140632  1  -1.160825  0.07706  -0.3108  -0.555479  0.03972  2.394338  0.067
O  O354  1  0.14845692  0.75369678  0.13820871  1  -1.175124  0.086646  -0.320224  -0.576272  0.045198  2.426202  0.073
O  O355  1  0.03087440  0.65572634  0.09619296  1  -1.188997  0.010779  -0.322326  -0.544348  0.004861  2.147139  0.009
O  O356  1  0.94402839  0.21215442  0.13916518  1  -1.174756  0.076884  -0.322104  -0.582367  0.039917  2.390384  0.066
O  O357  1  0.03542831  0.29762065  0.08506379  1  -1.178902  0.008081  -0.319554  -0.535648  0.003487  2.174683  0.007
O  O358  1  0.49412866  0.11635700  0.26620972  1  -1.171859  0.073004  -0.310692  -0.561227  0.037724  2.398099  0.063
O  O359  1  0.55834814  0.20904002  0.34699468  1  -1.165345  0.086918  -0.310778  -0.557755  0.044602  2.396172  0.076
O  O360  1  0.48125757  0.93057702  0.34472644  1  -1.176516  0.076605  -0.314511  -0.608321  0.039294  2.39704  0.064
O  O361  1  0.46290944  0.05672617  0.40435925  1  -1.166822  0.068431  -0.299786  -0.562215  0.0347  2.390257  0.061
O  O362  1  0.62373020  0.85808334  0.26197800  1  -1.18013  0.066349  -0.302055  -0.561861  0.034509  2.419944  0.06
O  O363  1  0.66734317  0.80208126  0.35962120  1  -1.153942  0.090101  -0.312017  -0.541823  0.04639  2.398602  0.076
O  O364  1  0.75297740  0.91841311  0.47234181  1  -1.129305  0.106216  -0.299832  -0.500676  0.053653  2.197108  0.092
O  O365  1  0.63955352  0.01577167  0.48996661  1  -1.176093  0.111124  -0.313312  -0.607883  0.057894  2.408985  0.093
O  O366  1  0.72663548  0.18499543  0.43966486  1  -1.171299  0.088199  -0.324504  -0.575882  0.044774  2.343542  0.076
O  O367  1  0.80353055  0.12524175  0.36602823  1  -1.177503  0.021172  -0.319788  -0.537609  0.009698  2.140827  0.018
O  O368  1  0.70558956  0.21397646  0.93262963  1  -1.168226  0.063734  -0.308872  -0.559511  0.032101  2.373975  0.057
O  O369  1  0.91058020  0.23286543  0.99826546  1  -1.27398  0.107006  -0.559873  -0.809198  0.057586  2.379583  0.092
O  O370  1  0.75534157  0.09519495  0.99969376  1  -1.164129  0.08809  -0.315378  -0.567014  0.045451  2.407564  0.075
O  O371  1  0.34904370  0.52504240  0.64223940  1  -1.211215  0.249043  -0.565999  -0.892828  0.136133  2.443029  0.21
O  O372  1  0.77347122  0.38687200  0.00680305  1  -1.159752  0.104182  -0.307778  -0.551392  0.05415  2.442479  0.09
O  O373  1  0.75951041  0.27552413  0.07860079  1  -1.16084  0.077059  -0.310857  -0.555506  0.039711  2.394489  0.067
O  O374  1  0.85153401  0.25368181  0.86178427  1  -1.175261  0.086631  -0.32027  -0.576201  0.045185  2.426078  0.073
O  O375  1  0.96911148  0.15570669  0.90381093  1  -1.189141  0.010778  -0.322287  -0.544458  0.00486  2.146462  0.009
O  O376  1  0.05596232  0.71216704  0.86083756  1  -1.17395  0.076932  -0.322236  -0.582753  0.039945  2.389649  0.066
O  O377  1  0.96456362  0.79760827  0.91492318  1  -1.17889  0.008082  -0.31938  -0.535359  0.003487  2.175129  0.007
O  O378  1  0.50585064  0.61634722  0.73381653  1  -1.171685  0.073057  -0.310733  -0.561375  0.037755  2.398532  0.063
O  O379  1  0.44168513  0.70901367  0.65301892  1  -1.165662  0.086869  -0.310581  -0.557556  0.044573  2.396338  0.076
O  O380  1  0.51874942  0.43059530  0.65528894  1  -1.17645  0.076579  -0.314668  -0.608386  0.039286  2.396975  0.064
O  O381  1  0.53706356  0.55669987  0.59561693  1  -1.166886  0.06844  -0.299841  -0.562068  0.034698  2.390594  0.061
O  O382  1  0.37623963  0.35809676  0.73802036  1  -1.179737  0.066345  -0.302042  -0.561828  0.034507  2.420144  0.06
O  O383  1  0.33268936  0.30207146  0.64038136  1  -1.153481  0.090152  -0.312128  -0.541969  0.046421  2.398378  0.076
O  O384  1  0.24704282  0.41839844  0.52765867  1  -1.128937  0.10624  -0.299924  -0.500792  0.053668  2.197368  0.092
O  O385  1  0.36044058  0.51575907  0.51003646  1  -1.176106  0.111128  -0.313275  -0.607683  0.057892  2.408606  0.093
O  O386  1  0.27339513  0.68500215  0.56033910  1  -1.171552  0.088191  -0.324248  -0.57545  0.044774  2.343832  0.076
O  O387  1  0.19645253  0.62520910  0.63393848  1  -1.178159  0.021175  -0.319837  -0.537725  0.009699  2.140282  0.018
