# generated using pymatgen
data_Mn2H31C39(N2O5)2
_symmetry_space_group_name_H-M   'P 1'
_cell_length_a   10.17772013
_cell_length_b   17.78613106
_cell_length_c   19.89317833
_cell_angle_alpha   89.99990571
_cell_angle_beta   90.00013515
_cell_angle_gamma   100.21436338
_symmetry_Int_Tables_number   1
_chemical_formula_structural   Mn2H31C39(N2O5)2
_chemical_formula_sum   'Mn8 H124 C156 N16 O40'
_cell_volume   3544.03488291
_cell_formula_units_Z   4
loop_
 _symmetry_equiv_pos_site_id
 _symmetry_equiv_pos_as_xyz
  1  'x, y, z'
loop_
 _atom_site_type_symbol
 _atom_site_label
 _atom_site_symmetry_multiplicity
 _atom_site_fract_x
 _atom_site_fract_y
 _atom_site_fract_z
 _atom_site_occupancy
 _atom_site_pbe_bader_charge
 _atom_site_pbe_bader_spin_density
 _atom_site_pbe_cm5_charge
 _atom_site_pbe_ddec_charge
 _atom_site_pbe_ddec_spin_density
 _atom_site_pbe_ddec_sum_bond_order
 _atom_site_pbe_magmom
Mn  Mn0  1  0.42459841  0.94384688  0.55402215  1  1.474842  4.52127  0.610976  0.925362  4.654116  2.415521  4.414
Mn  Mn1  1  0.07540176  0.05615293  0.05401450  1  1.474709  4.5213  0.611098  0.925474  4.654247  2.415373  4.414
Mn  Mn2  1  0.57539090  0.05615322  0.44597881  1  1.474707  4.5213  0.611067  0.925536  4.654141  2.415327  4.414
Mn  Mn3  1  0.92461955  0.94384584  0.94597641  1  1.474632  4.521234  0.611011  0.925446  4.654073  2.415602  4.414
Mn  Mn4  1  0.34153511  0.54773786  0.55228360  1  1.540242  4.538244  0.600821  1.036869  4.672318  2.298759  4.472
Mn  Mn5  1  0.15847491  0.45225903  0.05228000  1  1.540212  4.538232  0.600838  1.036886  4.672289  2.298736  4.472
Mn  Mn6  1  0.65847602  0.45225982  0.44771786  1  1.5403  4.53823  0.600816  1.036892  4.672313  2.298773  4.472
Mn  Mn7  1  0.84153486  0.54773752  0.94771945  1  1.540248  4.538216  0.600862  1.036987  4.672273  2.298667  4.472
H  H8  1  0.22743512  0.63758396  0.45816980  1  0.590145  0.002089  0.303663  0.380143  0.001212  0.931876  0.002
H  H9  1  0.27257731  0.36241749  0.95816755  1  0.59011  0.002088  0.303682  0.380162  0.001212  0.931907  0.002
H  H10  1  0.77258045  0.36241827  0.54183066  1  0.590158  0.002088  0.303657  0.380125  0.001212  0.93187  0.002
H  H11  1  0.72743648  0.63758532  0.04183089  1  0.590066  0.002089  0.303686  0.380172  0.001212  0.931862  0.002
H  H12  1  0.13858923  0.61930230  0.52381739  1  0.631599  0.000569  0.285047  0.36846  0.00065  0.983329  0.001
H  H13  1  0.36142067  0.38069463  0.02381614  1  0.631539  0.000569  0.285003  0.368363  0.00065  0.983478  0.001
H  H14  1  0.86142208  0.38069596  0.47618257  1  0.631534  0.000569  0.285024  0.368423  0.00065  0.983415  0.001
H  H15  1  0.63858816  0.61929906  0.97618532  1  0.631597  0.000569  0.285069  0.3685  0.00065  0.983253  0.001
H  H16  1  0.15834409  0.44183835  0.46385979  1  0.671571  0.002258  0.289236  0.389242  0.001494  0.9497  0.003
H  H17  1  0.34166835  0.55816310  0.96385734  1  0.671364  0.002259  0.289196  0.389237  0.001495  0.94969  0.003
H  H18  1  0.84166615  0.55816564  0.53614268  1  0.672797  0.002254  0.289183  0.389244  0.001495  0.949679  0.003
H  H19  1  0.65834455  0.44183400  0.03614060  1  0.671555  0.002259  0.289231  0.38927  0.001495  0.949662  0.003
H  H20  1  0.31174102  0.42676674  0.46415547  1  0.618905  0.002003  0.317235  0.403016  0.000861  0.899363  0.002
H  H21  1  0.18827068  0.57323242  0.96415985  1  0.618943  0.002002  0.317261  0.403098  0.000861  0.899228  0.002
H  H22  1  0.68826618  0.57323097  0.53584247  1  0.618774  0.002003  0.317241  0.403109  0.000861  0.899291  0.002
H  H23  1  0.81174633  0.42676523  0.03584362  1  0.618719  0.002004  0.317235  0.403007  0.000862  0.899371  0.002
H  H24  1  0.27701192  0.12242186  0.67294282  1  0.062433  0.000426  0.102567  0.109574  -3.3e-05  1.052838  0.0
H  H25  1  0.22299221  0.87758234  0.17294169  1  0.062359  0.000426  0.102539  0.109532  -3.3e-05  1.052897  0.0
H  H26  1  0.72297954  0.87757880  0.32705563  1  0.062418  0.000426  0.102554  0.109624  -3.3e-05  1.052771  0.0
H  H27  1  0.77703330  0.12242328  0.82704419  1  0.062318  0.000426  0.10261  0.109786  -3.4e-05  1.052532  0.0
H  H28  1  0.05612668  0.27967032  0.79979661  1  0.085323  0.000334  0.109495  0.096276  0.00023  1.032055  0.0
H  H29  1  0.44386564  0.72034407  0.29981106  1  0.085313  0.000334  0.10946  0.09632  0.00023  1.03223  0.0
H  H30  1  0.94386595  0.72033091  0.20019932  1  0.085276  0.000334  0.109499  0.09627  0.00023  1.032147  0.0
H  H31  1  0.55611750  0.27967323  0.70020549  1  0.085224  0.000334  0.109458  0.096291  0.00023  1.032  0.0
H  H32  1  0.09584647  0.33158829  0.72527155  1  0.028914  0.000116  0.10115  0.079799  7.9e-05  1.019953  0.0
H  H33  1  0.40417637  0.66842430  0.22528502  1  0.028994  0.000116  0.101229  0.079915  7.9e-05  1.019825  0.0
H  H34  1  0.90415237  0.66841690  0.27472589  1  0.029012  0.000116  0.10117  0.079861  7.9e-05  1.019882  0.0
H  H35  1  0.59584727  0.33158761  0.77473152  1  0.028852  0.000116  0.101216  0.079865  7.9e-05  1.01993  0.0
H  H36  1  0.36281544  0.27646597  0.83218830  1  0.065224  2.1e-05  0.097653  0.101165  -1.1e-05  1.0425  0.0
H  H37  1  0.13717810  0.72354265  0.33219383  1  0.065007  2.1e-05  0.097613  0.101094  -1.1e-05  1.042519  0.0
H  H38  1  0.63718167  0.72353695  0.16780763  1  0.065221  2.1e-05  0.097638  0.101145  -1.1e-05  1.042346  0.0
H  H39  1  0.86280827  0.27646949  0.66781668  1  0.065307  2.1e-05  0.097622  0.101172  -1.1e-05  1.042375  0.0
H  H40  1  0.53663468  0.37389341  0.88849206  1  0.069356  0.000154  0.106812  0.112514  -0.000116  0.997033  0.0
H  H41  1  0.96336357  0.62610523  0.38849108  1  0.069347  0.000154  0.106831  0.112519  -0.000117  0.997137  0.0
H  H42  1  0.46336603  0.62610548  0.11150337  1  0.069992  0.000154  0.106815  0.112479  -0.000116  0.996986  0.0
H  H43  1  0.03662705  0.37389887  0.61151541  1  0.068946  0.000155  0.106762  0.112489  -0.000116  0.997022  0.0
H  H44  1  0.30908490  0.54865163  0.84062312  1  0.058875  0.000331  0.103217  0.098532  0.000113  1.008865  0.0
H  H45  1  0.19092072  0.45135174  0.34061755  1  0.058963  0.00033  0.103168  0.098524  0.000113  1.008896  0.0
H  H46  1  0.69090932  0.45134843  0.15937884  1  0.058904  0.00033  0.103193  0.098509  0.000113  1.008818  0.0
H  H47  1  0.80907962  0.54865802  0.65937888  1  0.05905  0.000331  0.103173  0.098569  0.000113  1.008656  0.0
H  H48  1  0.14169833  0.45317083  0.78086291  1  0.107226  0.000153  0.104874  0.112878  -3e-05  0.992422  0.0
H  H49  1  0.35830536  0.54683951  0.28086092  1  0.107094  0.000152  0.104883  0.112863  -3e-05  0.99252  0.0
H  H50  1  0.85829491  0.54682925  0.21913906  1  0.107268  0.000152  0.104874  0.112887  -3e-05  0.992534  0.0
H  H51  1  0.64168624  0.45317660  0.71913552  1  0.107033  0.000153  0.104841  0.112823  -3e-05  0.992363  0.0
H  H52  1  0.08670330  0.16575137  0.81233669  1  0.082991  0.000256  0.111543  0.102015  2.7e-05  0.994009  0.0
H  H53  1  0.41329576  0.83426238  0.31233786  1  0.082854  0.000256  0.111615  0.102133  2.7e-05  0.993915  0.0
H  H54  1  0.91328480  0.83425102  0.18765522  1  0.08286  0.000256  0.11155  0.102038  2.7e-05  0.993851  0.0
H  H55  1  0.58670449  0.16575310  0.68765907  1  0.082893  0.000256  0.111582  0.102081  2.7e-05  0.993867  0.0
H  H56  1  0.19917581  0.12293354  0.76606263  1  0.066691  0.000252  0.105402  0.09068  0.000145  1.037763  0.0
H  H57  1  0.30082805  0.87707453  0.26606110  1  0.066601  0.000252  0.105401  0.090683  0.000145  1.03779  0.0
H  H58  1  0.80081528  0.87706597  0.23393330  1  0.066681  0.000252  0.105421  0.090656  0.000145  1.037791  0.0
H  H59  1  0.69918830  0.12293915  0.73393634  1  0.066398  0.000252  0.105404  0.09069  0.000145  1.037754  0.0
H  H60  1  0.94678613  0.03290313  0.78665765  1  0.083676  0.00018  0.101294  0.109023  -0.000368  1.036883  0.0
H  H61  1  0.55322388  0.96710589  0.28666020  1  0.084099  0.00018  0.101282  0.108973  -0.000368  1.036883  0.0
H  H62  1  0.05321784  0.96709975  0.21333879  1  0.083958  0.00018  0.101255  0.108912  -0.000368  1.036982  0.0
H  H63  1  0.44680144  0.03291117  0.71334076  1  0.083763  0.00018  0.101242  0.108856  -0.000368  1.03704  0.0
H  H64  1  0.75918799  0.96886786  0.71325330  1  0.073799  0.000503  0.098581  0.097096  6.9e-05  1.027758  0.0
H  H65  1  0.74082759  0.03114123  0.21325895  1  0.073598  0.000503  0.098637  0.09704  6.9e-05  1.027631  0.0
H  H66  1  0.24080510  0.03114080  0.28674364  1  0.073335  0.000503  0.098607  0.097065  6.9e-05  1.02766  0.0
H  H67  1  0.25920450  0.96886950  0.78674251  1  0.073595  0.000503  0.098593  0.097028  6.9e-05  1.027787  0.0
H  H68  1  0.86702563  0.14232563  0.56377961  1  0.080056  0.000248  0.103652  0.104644  -0.000292  1.009731  0.0
H  H69  1  0.63299092  0.85768252  0.06378443  1  0.080335  0.000248  0.103671  0.104645  -0.000292  1.009714  0.0
H  H70  1  0.13296644  0.85767388  0.43621431  1  0.080289  0.000248  0.103686  0.104676  -0.000293  1.009778  0.0
H  H71  1  0.36702585  0.14232944  0.93621653  1  0.08014  0.000248  0.103659  0.104669  -0.000293  1.009738  0.0
H  H72  1  0.05069996  0.20748686  0.63672317  1  0.069467  0.000102  0.102625  0.106059  5.2e-05  1.022835  0.0
H  H73  1  0.44931368  0.79252592  0.13672747  1  0.069695  0.000102  0.102582  0.106049  5.2e-05  1.022957  0.0
H  H74  1  0.94929790  0.79251834  0.36326572  1  0.069658  0.000102  0.102644  0.106143  5.2e-05  1.02291  0.0
H  H75  1  0.55070323  0.20748947  0.86327450  1  0.069393  0.000102  0.10258  0.105988  5.2e-05  1.022892  0.0
H  H76  1  0.29699849  0.36871913  0.67715314  1  0.114975  0.000235  0.104862  0.115358  -0.000174  1.044529  0.0
H  H77  1  0.20300804  0.63128333  0.17715436  1  0.114903  0.000235  0.104879  0.115353  -0.000173  1.044517  0.0
H  H78  1  0.70300553  0.63128088  0.32284681  1  0.114963  0.000235  0.104916  0.115426  -0.000174  1.044356  0.0
H  H79  1  0.79700799  0.36872634  0.82284459  1  0.114939  0.000235  0.104872  0.11529  -0.000174  1.044363  0.0
H  H80  1  0.50860834  0.26534349  0.52680934  1  0.10192  0.000391  0.101767  0.110251  -0.000507  1.051899  0.0
H  H81  1  0.99140624  0.73465614  0.02680171  1  0.101963  0.000391  0.10176  0.110165  -0.000507  1.051931  0.0
H  H82  1  0.49139840  0.73465880  0.47319162  1  0.101933  0.000391  0.101779  0.110226  -0.000507  1.051981  0.0
H  H83  1  0.00861157  0.26534093  0.97318819  1  0.101848  0.000391  0.101742  0.11025  -0.000507  1.05191  0.0
H  H84  1  0.21185786  0.78998913  0.54708307  1  0.114811  0.001892  0.125542  0.096106  0.001104  0.978603  0.001
H  H85  1  0.28813444  0.21001073  0.04708199  1  0.11474  0.001892  0.125521  0.096086  0.001104  0.978601  0.001
H  H86  1  0.78812137  0.21000416  0.45291186  1  0.115083  0.001892  0.125541  0.096151  0.001105  0.978624  0.001
H  H87  1  0.71186627  0.78998816  0.95291947  1  0.114699  0.001891  0.125522  0.096093  0.001104  0.978595  0.001
H  H88  1  0.08194870  0.69955250  0.62746237  1  0.107429  0.000662  0.112656  0.125205  0.000309  1.010616  0.0
H  H89  1  0.41803599  0.30044099  0.12746735  1  0.106718  0.000662  0.112651  0.125185  0.000309  1.010684  0.0
H  H90  1  0.91803683  0.30043903  0.37253356  1  0.106743  0.000662  0.112624  0.125095  0.000309  1.010696  0.0
H  H91  1  0.58194968  0.69955398  0.87254065  1  0.10702  0.000662  0.112662  0.125218  0.000309  1.010553  0.0
H  H92  1  0.30820633  0.82658624  0.78835324  1  0.138407  0.000386  0.104231  0.107645  0.000168  1.091594  0.0
H  H93  1  0.19178082  0.17339443  0.28835059  1  0.138359  0.000386  0.104205  0.10762  0.000168  1.091549  0.0
H  H94  1  0.69175347  0.17341975  0.21164118  1  0.137986  0.000386  0.104169  0.107474  0.000168  1.091776  0.0
H  H95  1  0.80820719  0.82658965  0.71164936  1  0.138421  0.000386  0.104192  0.107587  0.000168  1.09161  0.0
H  H96  1  0.42787124  0.91267149  0.70015015  1  0.076952  0.001847  0.121344  0.090334  0.001197  1.0181  0.001
H  H97  1  0.07211890  0.08731958  0.20014145  1  0.077567  0.001846  0.121404  0.090425  0.001196  1.018206  0.001
H  H98  1  0.57210686  0.08733039  0.29984528  1  0.076675  0.001846  0.121386  0.090427  0.001195  1.01809  0.001
H  H99  1  0.92787472  0.91266962  0.79985197  1  0.07723  0.001846  0.121384  0.090355  0.001197  1.018169  0.001
H  H100  1  0.10274334  0.80269385  0.83898054  1  0.100543  0.00063  0.114311  0.128083  0.000136  0.999867  0.0
H  H101  1  0.39725546  0.19729469  0.33898363  1  0.100201  0.00063  0.114312  0.128104  0.000136  0.999782  0.0
H  H102  1  0.89725915  0.19730446  0.16101539  1  0.09727  0.000631  0.114318  0.128033  0.000136  0.999758  0.0
H  H103  1  0.60273656  0.80269566  0.66102085  1  0.100524  0.00063  0.11431  0.128074  0.000136  0.999851  0.0
H  H104  1  0.96168818  0.72056646  0.92195680  1  0.100342  0.001258  0.121791  0.091934  0.000497  1.011858  0.001
H  H105  1  0.53831530  0.27942065  0.42195833  1  0.099917  0.001257  0.121817  0.091929  0.000496  1.011836  0.001
H  H106  1  0.03832350  0.27943293  0.07804366  1  0.100195  0.001258  0.121826  0.091955  0.000497  1.011806  0.001
H  H107  1  0.46168854  0.72056677  0.57804313  1  0.100132  0.001258  0.121797  0.091932  0.000497  1.011862  0.001
H  H108  1  0.92969030  0.53057598  0.79905801  1  0.119165  0.000955  0.121479  0.095037  0.000343  1.010356  0.0
H  H109  1  0.57029011  0.46941144  0.29906081  1  0.11927  0.000955  0.121509  0.095028  0.000343  1.010394  0.0
H  H110  1  0.07031279  0.46942117  0.20094698  1  0.119213  0.000955  0.121481  0.095033  0.000342  1.010367  0.0
H  H111  1  0.42968193  0.53057789  0.70094618  1  0.119161  0.000955  0.121462  0.095036  0.000343  1.010369  0.0
H  H112  1  0.07220204  0.60389526  0.71036874  1  0.107001  0.000638  0.108552  0.117439  0.000215  1.029933  0.0
H  H113  1  0.42777212  0.39609188  0.21037661  1  0.106886  0.000638  0.108496  0.117378  0.000215  1.030045  0.0
H  H114  1  0.92778480  0.39610027  0.28962870  1  0.106545  0.000639  0.108553  0.117507  0.000215  1.029904  0.0
H  H115  1  0.57219814  0.60389802  0.78963290  1  0.106808  0.000638  0.10853  0.117411  0.000215  1.029942  0.0
H  H116  1  0.05917244  0.89758086  0.67475380  1  0.060931  7.4e-05  0.103915  0.069315  -0.000114  1.001553  0.0
H  H117  1  0.44081241  0.10241544  0.17474854  1  0.06115  7.4e-05  0.103872  0.06931  -0.000114  1.001321  0.0
H  H118  1  0.94080123  0.10241647  0.32525621  1  0.061247  7.4e-05  0.103878  0.069287  -0.000114  1.001383  0.0
H  H119  1  0.55916420  0.89758187  0.82524941  1  0.060705  7.4e-05  0.103886  0.069231  -0.000114  1.001447  0.0
H  H120  1  0.13607456  0.00515358  0.59834237  1  0.101811  0.00055  0.107424  0.11607  0.000298  1.024786  0.0
H  H121  1  0.36390899  0.99484283  0.09833471  1  0.101849  0.00055  0.107416  0.115923  0.000297  1.024943  0.0
H  H122  1  0.86389608  0.99484949  0.40168171  1  0.101921  0.00055  0.107401  0.115966  0.000298  1.02483  0.0
H  H123  1  0.63607117  0.00515332  0.90166726  1  0.101912  0.00055  0.10743  0.116112  0.000297  1.024818  0.0
H  H124  1  0.81975582  0.90654366  0.46261369  1  0.087916  8.5e-05  0.104296  0.107729  -0.000303  1.050613  0.0
H  H125  1  0.68023933  0.09344745  0.96260972  1  0.087812  8.5e-05  0.104265  0.10774  -0.000303  1.050509  0.0
H  H126  1  0.18025680  0.09344657  0.53739632  1  0.087593  8.5e-05  0.104195  0.107654  -0.000303  1.050585  0.0
H  H127  1  0.31974625  0.90654122  0.03739526  1  0.087627  8.5e-05  0.104228  0.107662  -0.000303  1.050522  0.0
H  H128  1  0.75692559  0.80274935  0.54470619  1  0.085285  0.000109  0.108732  0.078546  -2.8e-05  0.996719  0.0
H  H129  1  0.74307211  0.19724348  0.04469954  1  0.085268  0.000109  0.108703  0.07856  -2.8e-05  0.996704  0.0
H  H130  1  0.24309095  0.19724086  0.45529980  1  0.085358  0.000109  0.108753  0.078616  -2.8e-05  0.996548  0.0
H  H131  1  0.25690656  0.80274809  0.95529890  1  0.08516  0.000109  0.108813  0.078639  -2.8e-05  0.996351  0.0
C  C132  1  0.42998043  0.11796969  0.56397340  1  1.547072  0.016201  0.221918  0.586776  0.016437  4.171544  0.015
C  C133  1  0.07002703  0.88203121  0.06397409  1  1.546932  0.016209  0.221827  0.58659  0.016445  4.17144  0.015
C  C134  1  0.57001823  0.88203493  0.43602404  1  1.546561  0.016202  0.221875  0.586716  0.016437  4.171354  0.015
C  C135  1  0.93000348  0.11796865  0.93601732  1  1.546037  0.016203  0.222065  0.587225  0.016434  4.170402  0.015
C  C136  1  0.39657641  0.18745534  0.59801666  1  -0.108248  0.002421  -0.02791  -0.038516  0.001225  4.042093  0.001
C  C137  1  0.10342852  0.81254037  0.09801649  1  -0.108467  0.002423  -0.027979  -0.038575  0.001226  4.042151  0.001
C  C138  1  0.60341930  0.81254930  0.40198078  1  -0.108466  0.002422  -0.027917  -0.038622  0.001226  4.042053  0.001
C  C139  1  0.89661006  0.18745715  0.90197140  1  -0.108106  0.002422  -0.027726  -0.038418  0.001225  4.041854  0.001
C  C140  1  0.31353275  0.17974452  0.65437463  1  0.015243  0.009971  -0.098118  -0.209499  0.007703  3.955149  0.006
C  C141  1  0.18647251  0.82025740  0.15437404  1  0.015249  0.009973  -0.09807  -0.209493  0.007704  3.95498  0.006
C  C142  1  0.68646516  0.82025781  0.34562533  1  0.015684  0.00997  -0.09815  -0.209516  0.007702  3.955122  0.006
C  C143  1  0.81355538  0.17974648  0.84561787  1  0.015857  0.009973  -0.098234  -0.20973  0.007704  3.955004  0.006
C  C144  1  0.27553300  0.24429450  0.68513988  1  0.390155  -0.000886  0.096599  0.177916  -0.001159  4.059035  -0.001
C  C145  1  0.22446614  0.75570627  0.18514446  1  0.390172  -0.000886  0.096594  0.177991  -0.001159  4.058683  -0.001
C  C146  1  0.72445650  0.75570617  0.31485706  1  0.38966  -0.000886  0.096574  0.177908  -0.001159  4.059006  -0.001
C  C147  1  0.77555171  0.24429996  0.81485550  1  0.389515  -0.000886  0.09655  0.177832  -0.001159  4.05916  -0.001
C  C148  1  0.13928662  0.30149318  0.76584028  1  0.329442  0.000136  -0.056257  -0.114922  0.000103  3.937145  0.0
C  C149  1  0.36072294  0.69851429  0.26584963  1  0.329387  0.000136  -0.05627  -0.115119  0.000103  3.937531  0.0
C  C150  1  0.86071521  0.69850913  0.23415817  1  0.328971  0.000136  -0.056287  -0.114914  0.000103  3.937099  0.0
C  C151  1  0.63928445  0.30149601  0.73416088  1  0.329458  0.000136  -0.056274  -0.114911  0.000103  3.937016  0.0
C  C152  1  0.24134578  0.35860447  0.80310031  1  -0.034644  0.004014  -0.007997  0.100533  0.003134  3.963515  0.003
C  C153  1  0.25864381  0.64139848  0.30309203  1  -0.034425  0.004014  -0.008044  0.100513  0.003135  3.963687  0.003
C  C154  1  0.75866063  0.64139381  0.19690065  1  -0.034326  0.004015  -0.008006  0.100535  0.003136  3.963589  0.003
C  C155  1  0.74133107  0.35860857  0.69689737  1  -0.034968  0.004014  -0.008125  0.100333  0.003134  3.963719  0.003
C  C156  1  0.35153043  0.33627692  0.83443978  1  -0.025335  -0.000221  -0.098519  -0.152195  -0.000327  3.99776  0.0
C  C157  1  0.14846984  0.66372821  0.33444088  1  -0.025075  -0.000221  -0.098465  -0.152056  -0.000327  3.997799  0.0
C  C158  1  0.64846579  0.66372028  0.16555967  1  -0.025892  -0.000221  -0.098494  -0.152178  -0.000327  3.99761  0.0
C  C159  1  0.85152830  0.33628385  0.66556259  1  -0.024768  -0.000221  -0.098446  -0.152164  -0.000327  3.997625  0.0
C  C160  1  0.44839413  0.39029091  0.86564346  1  -0.12245  0.003394  -0.089539  -0.109428  0.002336  4.01108  0.002
C  C161  1  0.05160627  0.60971418  0.36564302  1  -0.122596  0.003395  -0.089639  -0.109542  0.002336  4.0113  0.002
C  C162  1  0.55161045  0.60971082  0.13435046  1  -0.122983  0.003394  -0.089571  -0.109322  0.002336  4.011129  0.002
C  C163  1  0.94839145  0.39029961  0.63436448  1  -0.122604  0.003393  -0.089536  -0.10932  0.002335  4.01127  0.002
C  C164  1  0.43344890  0.46710713  0.86825735  1  0.050956  0.00077  -0.024115  -0.057631  -0.000209  4.011962  0.0
C  C165  1  0.06654983  0.53289282  0.36825202  1  0.051408  0.000769  -0.024035  -0.057494  -0.00021  4.012159  0.0
C  C166  1  0.56654555  0.53289065  0.13174310  1  0.05205  0.000768  -0.024155  -0.057786  -0.00021  4.012322  0.0
C  C167  1  0.93344994  0.46711523  0.63174693  1  0.052056  0.00077  -0.024112  -0.057795  -0.000209  4.012133  0.0
C  C168  1  0.53859067  0.52444160  0.90151853  1  1.55501  0.011341  0.215237  0.578902  0.01054  4.197064  0.01
C  C169  1  0.96141314  0.47555584  0.40151526  1  1.554443  0.011346  0.215108  0.578678  0.010543  4.197391  0.01
C  C170  1  0.46141564  0.47555039  0.09847891  1  1.554437  0.011347  0.215259  0.578939  0.010543  4.197029  0.01
C  C171  1  0.03859140  0.52444875  0.59848570  1  1.554706  0.01134  0.215154  0.578796  0.010539  4.197185  0.01
C  C172  1  0.32090641  0.48897895  0.83882809  1  -0.105734  0.004188  -0.085492  -0.096301  0.002906  4.015761  0.003
C  C173  1  0.17909332  0.51102446  0.33882945  1  -0.10582  0.004188  -0.085381  -0.096185  0.002906  4.015886  0.003
C  C174  1  0.67908683  0.51102112  0.16117036  1  -0.106003  0.00419  -0.085484  -0.096194  0.002907  4.015809  0.003
C  C175  1  0.82089842  0.48898306  0.66117352  1  -0.106308  0.004188  -0.085415  -0.096274  0.002906  4.015399  0.003
C  C176  1  0.22685645  0.43537857  0.80563428  1  -0.040906  -0.000584  -0.088628  -0.127127  -0.000856  3.957429  -0.001
C  C177  1  0.27313964  0.56462320  0.30563065  1  -0.04108  -0.000584  -0.088637  -0.127167  -0.000856  3.957535  -0.001
C  C178  1  0.77313623  0.56461979  0.19436919  1  -0.041251  -0.000584  -0.088557  -0.127148  -0.000856  3.957643  -0.001
C  C179  1  0.72685173  0.43538318  0.69436880  1  -0.04105  -0.000583  -0.088489  -0.126938  -0.000856  3.957532  -0.001
C  C180  1  0.12519187  0.16080655  0.76127298  1  0.324595  0.000131  -0.056695  -0.118615  5.5e-05  3.942569  0.0
C  C181  1  0.37481086  0.83919810  0.26126807  1  0.324702  0.000131  -0.056806  -0.118833  5.5e-05  3.942983  0.0
C  C182  1  0.87480530  0.83919350  0.23872697  1  0.324636  0.000131  -0.056707  -0.118607  5.5e-05  3.942644  0.0
C  C183  1  0.62519989  0.16081046  0.73872535  1  0.325252  0.000131  -0.056719  -0.118614  5.5e-05  3.942414  0.0
C  C184  1  0.01219533  0.12361563  0.71614591  1  -0.074205  0.003809  -0.005348  0.111462  0.002997  3.929815  0.002
C  C185  1  0.48780702  0.87638852  0.21614510  1  -0.073924  0.003809  -0.005361  0.111529  0.002997  3.929987  0.002
C  C186  1  0.98779688  0.87638731  0.28385354  1  -0.074311  0.003808  -0.005387  0.111519  0.002996  3.929947  0.002
C  C187  1  0.51220467  0.12362290  0.78385435  1  -0.074747  0.00381  -0.005365  0.111451  0.002997  3.929988  0.002
C  C188  1  0.92981855  0.05588024  0.73714818  1  -0.127465  -0.000514  -0.095339  -0.151864  -0.000724  3.97067  -0.001
C  C189  1  0.57018790  0.94411856  0.23715231  1  -0.127319  -0.000514  -0.095337  -0.151943  -0.000724  3.97059  -0.001
C  C190  1  0.07017628  0.94411868  0.26284674  1  -0.127439  -0.000514  -0.095317  -0.151966  -0.000724  3.970855  -0.001
C  C191  1  0.42983957  0.05588704  0.76285117  1  -0.127606  -0.000514  -0.0951  -0.151428  -0.000724  3.970678  -0.001
C  C192  1  0.82510380  0.02065963  0.69677200  1  0.048796  0.004338  -0.087907  -0.091954  0.003223  3.998044  0.003
C  C193  1  0.67490345  0.97935124  0.19677720  1  0.049161  0.004337  -0.087765  -0.091613  0.003223  3.99715  0.003
C  C194  1  0.17487851  0.97934909  0.30322344  1  0.048829  0.004336  -0.087792  -0.091571  0.003221  3.997669  0.003
C  C195  1  0.32513060  0.02065947  0.80322326  1  0.049802  0.004337  -0.087991  -0.091958  0.003223  3.998068  0.003
C  C196  1  0.80259793  0.05160932  0.63386648  1  -0.043668  0.002806  -0.023127  -0.054097  0.001369  4.003567  0.001
C  C197  1  0.69741285  0.94839819  0.13386924  1  -0.044339  0.002806  -0.023235  -0.054265  0.001369  4.003556  0.001
C  C198  1  0.19739522  0.94839648  0.36612795  1  -0.043973  0.002807  -0.023243  -0.054276  0.001371  4.003751  0.001
C  C199  1  0.30261757  0.05160740  0.86612921  1  -0.044527  0.002806  -0.023254  -0.054291  0.001369  4.003656  0.001
C  C200  1  0.69089429  0.01539766  0.58982320  1  1.563644  0.0192  0.221138  0.594178  0.020027  4.176141  0.017
C  C201  1  0.80912573  0.98460872  0.08982654  1  1.563815  0.019202  0.221221  0.594226  0.020031  4.175464  0.017
C  C202  1  0.30908237  0.98460881  0.41017877  1  1.563627  0.019203  0.220929  0.59373  0.020028  4.176361  0.017
C  C203  1  0.19091720  0.01539909  0.91017492  1  1.564418  0.019199  0.220978  0.593849  0.02003  4.176059  0.017
C  C204  1  0.88500313  0.11889112  0.61279543  1  -0.124559  0.004182  -0.083834  -0.082193  0.002933  3.987851  0.003
C  C205  1  0.61501633  0.88111924  0.11280071  1  -0.124887  0.004183  -0.083902  -0.082109  0.002933  3.988021  0.003
C  C206  1  0.11500061  0.88111405  0.38719949  1  -0.12462  0.004182  -0.083859  -0.082077  0.002932  3.987629  0.003
C  C207  1  0.38500161  0.11889329  0.88720227  1  -0.124745  0.004183  -0.083814  -0.082064  0.002933  3.987745  0.003
C  C208  1  0.98782522  0.15496169  0.65382964  1  0.052585  -0.000516  -0.095402  -0.145093  -0.000539  3.985304  0.0
C  C209  1  0.51218718  0.84504750  0.15382881  1  0.052484  -0.000517  -0.095375  -0.145168  -0.000539  3.9856  0.0
C  C210  1  0.01217503  0.84504178  0.34616680  1  0.052577  -0.000516  -0.095379  -0.145244  -0.000538  3.985479  0.0
C  C211  1  0.48783492  0.15496271  0.84617417  1  0.052654  -0.000517  -0.095398  -0.145198  -0.000539  3.985339  0.0
C  C212  1  0.32372542  0.31677867  0.65660947  1  -0.081906  0.009728  -0.096325  -0.204099  0.007403  3.921703  0.006
C  C213  1  0.17628476  0.68322323  0.15660807  1  -0.081563  0.009728  -0.096405  -0.204142  0.007404  3.92157  0.006
C  C214  1  0.67627800  0.68322249  0.34339501  1  -0.081691  0.009726  -0.096358  -0.204134  0.007402  3.921614  0.006
C  C215  1  0.82372249  0.31678364  0.84339390  1  -0.081668  0.009727  -0.096361  -0.203966  0.007403  3.921529  0.006
C  C216  1  0.40654342  0.32387438  0.59992777  1  -0.055211  0.000905  -0.024961  -0.026824  -0.000297  4.020432  0.0
C  C217  1  0.09346993  0.67612300  0.09992779  1  -0.055622  0.000906  -0.024978  -0.026834  -0.000297  4.020327  0.0
C  C218  1  0.59346570  0.67612618  0.40007470  1  -0.055706  0.000906  -0.025064  -0.026862  -0.000297  4.020313  0.0
C  C219  1  0.90655035  0.32387864  0.90006865  1  -0.055367  0.000904  -0.024844  -0.026693  -0.000297  4.020266  0.0
C  C220  1  0.44882372  0.40057872  0.56759606  1  1.570928  0.029081  0.22434  0.599177  0.028025  4.171191  0.025
C  C221  1  0.05120037  0.59942493  0.06759060  1  1.571103  0.029081  0.22443  0.59917  0.028024  4.17106  0.025
C  C222  1  0.55118810  0.59942410  0.43240792  1  1.571237  0.029075  0.224466  0.59916  0.028021  4.171142  0.025
C  C223  1  0.94882402  0.40057725  0.93240734  1  1.570897  0.02908  0.224345  0.599095  0.028025  4.171202  0.025
C  C224  1  0.44426523  0.25956524  0.57069722  1  0.009201  0.009675  -0.101199  -0.154982  0.006988  3.984002  0.006
C  C225  1  0.05574627  0.74042990  0.07069106  1  0.009272  0.009677  -0.101104  -0.154766  0.00699  3.983796  0.006
C  C226  1  0.55573949  0.74043992  0.42930575  1  0.009489  0.009676  -0.101103  -0.154837  0.006989  3.983723  0.006
C  C227  1  0.94427896  0.25956885  0.92929884  1  0.009397  0.009677  -0.10132  -0.155182  0.006989  3.98395  0.006
C  C228  1  0.22895255  0.79699669  0.60099251  1  0.43906  0.014823  0.059896  0.10186  0.011939  3.945795  0.01
C  C229  1  0.27102489  0.20300204  0.10099092  1  0.439602  0.014826  0.060032  0.101878  0.011943  3.945597  0.01
C  C230  1  0.77103322  0.20299256  0.39900091  1  0.439705  0.014825  0.060037  0.101839  0.011942  3.945706  0.01
C  C231  1  0.72896092  0.79699636  0.89900904  1  0.439122  0.014825  0.059919  0.101798  0.011941  3.945732  0.01
C  C232  1  0.15730088  0.74602635  0.64641461  1  0.011128  -0.000484  -0.069574  -0.151893  -0.001353  3.90321  -0.001
C  C233  1  0.34269888  0.25396189  0.14641755  1  0.011924  -0.000486  -0.069597  -0.151755  -0.001354  3.903268  -0.001
C  C234  1  0.84268343  0.25396748  0.35357731  1  0.011676  -0.000484  -0.069482  -0.151561  -0.001353  3.903189  -0.001
C  C235  1  0.65730061  0.74602728  0.85358944  1  0.011835  -0.000486  -0.069577  -0.151853  -0.001355  3.902955  -0.001
C  C236  1  0.17965098  0.75765499  0.71552926  1  0.050673  0.011992  0.017128  0.108936  0.009288  3.956048  0.007
C  C237  1  0.32033250  0.24232752  0.21552917  1  0.050282  0.011994  0.017226  0.108944  0.009289  3.956156  0.007
C  C238  1  0.82032484  0.24234290  0.28446466  1  0.050806  0.011991  0.017126  0.108775  0.009287  3.956289  0.007
C  C239  1  0.67964720  0.75766119  0.78447430  1  0.05043  0.011995  0.017145  0.108953  0.00929  3.955988  0.007
C  C240  1  0.28032080  0.81816884  0.73538784  1  -0.066881  1.6e-05  -0.082764  -0.177554  -0.00083  3.939636  0.0
C  C241  1  0.21966374  0.18181363  0.23538672  1  -0.066292  1.3e-05  -0.082793  -0.177524  -0.000832  3.939929  0.0
C  C242  1  0.71964675  0.18183081  0.26460457  1  -0.065193  1.2e-05  -0.082689  -0.17728  -0.000831  3.939854  0.0
C  C243  1  0.78031820  0.81816991  0.76461374  1  -0.066828  1.5e-05  -0.08272  -0.177447  -0.000831  3.939726  0.0
C  C244  1  0.34798927  0.86576761  0.68671036  1  0.48901  0.013485  0.050002  0.08933  0.011332  3.948925  0.009
C  C245  1  0.15200146  0.13421947  0.18670671  1  0.487562  0.013488  0.050023  0.089261  0.011333  3.949351  0.009
C  C246  1  0.65199089  0.13422853  0.31328306  1  0.487052  0.013486  0.049995  0.089276  0.011329  3.949115  0.009
C  C247  1  0.84799276  0.86576858  0.81329123  1  0.488684  0.01349  0.050051  0.089352  0.011336  3.94903  0.009
C  C248  1  0.09884394  0.71020523  0.76665883  1  -0.048124  0.00662  0.01332  0.108  0.005137  3.969116  0.004
C  C249  1  0.40113093  0.28977725  0.26666531  1  -0.047861  0.006615  0.013448  0.108002  0.005134  3.969008  0.004
C  C250  1  0.90113837  0.28979147  0.23333509  1  -0.048342  0.006619  0.013325  0.107922  0.005137  3.969365  0.004
C  C251  1  0.59884428  0.71020977  0.73334319  1  -0.04811  0.006617  0.013206  0.107824  0.005135  3.969136  0.004
C  C252  1  0.06757485  0.74247195  0.82781644  1  -0.008774  0.001531  -0.077367  -0.168372  0.00078  3.91689  0.001
C  C253  1  0.43241372  0.25751552  0.32782200  1  -0.008689  0.001531  -0.077463  -0.168478  0.000781  3.916915  0.001
C  C254  1  0.93241979  0.25752640  0.17217950  1  -0.005213  0.00153  -0.077354  -0.16819  0.000781  3.916796  0.001
C  C255  1  0.56757167  0.74247258  0.67218349  1  -0.008757  0.001532  -0.077359  -0.168329  0.000782  3.916881  0.001
C  C256  1  0.98797696  0.69700511  0.87427214  1  0.47709  0.008054  0.054301  0.099256  0.006067  3.947805  0.005
C  C257  1  0.51202062  0.30298268  0.37427462  1  0.477416  0.00805  0.054326  0.099404  0.006063  3.947429  0.005
C  C258  1  0.01202688  0.30299433  0.12572781  1  0.47721  0.008052  0.054288  0.099168  0.006066  3.947757  0.005
C  C259  1  0.48796673  0.69700541  0.62572986  1  0.477193  0.008051  0.054319  0.099268  0.006065  3.947937  0.005
C  C260  1  0.96937410  0.59122571  0.80526162  1  0.501377  0.007808  0.053546  0.100675  0.005865  3.939489  0.005
C  C261  1  0.53059947  0.40876174  0.30526296  1  0.472667  0.007842  0.053619  0.100941  0.00586  3.939415  0.005
C  C262  1  0.03062133  0.40877206  0.19474135  1  0.501458  0.007805  0.053583  0.10083  0.005862  3.939634  0.005
C  C263  1  0.46936748  0.59122704  0.69474303  1  0.501355  0.007805  0.053678  0.100815  0.005862  3.9396  0.005
C  C264  1  0.04814684  0.63254556  0.75597932  1  -0.042698  0.001576  -0.081436  -0.173749  0.000901  3.928042  0.001
C  C265  1  0.45182896  0.36743693  0.25598122  1  -0.013175  0.001536  -0.081443  -0.173793  0.000901  3.927888  0.001
C  C266  1  0.95184527  0.36745108  0.24401863  1  -0.042486  0.001575  -0.081499  -0.173944  0.0009  3.928277  0.001
C  C267  1  0.54814509  0.63254952  0.74402326  1  -0.042346  0.001576  -0.08141  -0.173733  0.000902  3.928112  0.001
C  C268  1  0.00788255  0.90116127  0.62685292  1  0.530777  0.00035  0.032605  0.079746  0.000152  4.028872  0.0
C  C269  1  0.49210406  0.09883507  0.12684572  1  0.530513  0.00035  0.03257  0.079695  0.000152  4.028336  0.0
C  C270  1  0.99209812  0.09883945  0.37316261  1  0.530694  0.00035  0.032561  0.079642  0.000152  4.028767  0.0
C  C271  1  0.50787573  0.90115993  0.87315323  1  0.53112  0.000349  0.0327  0.079994  0.000152  4.028522  0.0
C  C272  1  0.05083852  0.96215446  0.58376477  1  -0.112569  0.000901  -0.081254  -0.16791  0.000892  3.932643  0.0
C  C273  1  0.44914595  0.03784196  0.08375911  1  -0.112791  0.000901  -0.081189  -0.167665  0.000893  3.93253  0.0
C  C274  1  0.94914113  0.03784913  0.41625178  1  -0.112536  0.000901  -0.081084  -0.16758  0.000893  3.932525  0.0
C  C275  1  0.55083702  0.96215074  0.91624185  1  -0.112462  0.000901  -0.081169  -0.167994  0.000892  3.932726  0.0
C  C276  1  0.98216382  0.96728358  0.52318124  1  0.039225  0.000456  0.012685  0.103728  -1e-06  3.955358  0.0
C  C277  1  0.51782029  0.03270707  0.02317205  1  -0.004202  0.00046  0.012533  0.10367  -0.0  3.955148  0.0
C  C278  1  0.01782269  0.03270795  0.47683782  1  -0.004188  0.00046  0.012537  0.103671  -0.0  3.955052  0.0
C  C279  1  0.48216351  0.96728219  0.97682841  1  0.039317  0.000456  0.012637  0.103696  -1e-06  3.955131  0.0
C  C280  1  0.87634878  0.90735456  0.50898691  1  -0.022985  0.000306  -0.081609  -0.158077  -0.000275  3.92004  0.0
C  C281  1  0.62364298  0.09263263  0.00898128  1  -0.02246  0.000306  -0.081576  -0.158061  -0.000276  3.920008  0.0
C  C282  1  0.12365646  0.09263114  0.49102411  1  -0.022966  0.000306  -0.081516  -0.157931  -0.000275  3.919901  0.0
C  C283  1  0.37634162  0.90735605  0.99102220  1  -0.022949  0.000306  -0.081533  -0.157893  -0.000275  3.919721  0.0
C  C284  1  0.84104807  0.84858827  0.55527315  1  0.48722  0.000523  0.037814  0.090129  0.000249  3.990812  0.0
C  C285  1  0.65894477  0.15140457  0.05526496  1  0.487289  0.000523  0.037897  0.090123  0.000249  3.991091  0.0
C  C286  1  0.15895175  0.15140490  0.44473887  1  0.488028  0.000523  0.037877  0.090067  0.000249  3.990968  0.0
C  C287  1  0.34103404  0.84859043  0.94473399  1  0.487184  0.000523  0.037697  0.089912  0.000249  3.990755  0.0
N  N288  1  0.19095999  0.23611345  0.74012300  1  -1.180349  -0.000514  -0.297496  -0.089257  -0.000643  3.65289  0.0
N  N289  1  0.30904914  0.76389005  0.24012315  1  -1.18061  -0.000514  -0.297442  -0.089263  -0.000643  3.653057  0.0
N  N290  1  0.80903614  0.76388947  0.25987595  1  -1.180002  -0.000514  -0.29752  -0.089366  -0.000643  3.652815  0.0
N  N291  1  0.69096339  0.23611793  0.75987932  1  -1.1801  -0.000514  -0.297465  -0.089313  -0.000643  3.652718  0.0
N  N292  1  0.32092820  0.85725733  0.62040018  1  -1.30019  0.061304  -0.328674  -0.259968  0.036039  3.531304  0.01
N  N293  1  0.17906413  0.14273556  0.12039555  1  -1.30034  0.061303  -0.328861  -0.26008  0.03604  3.531095  0.01
N  N294  1  0.67905276  0.14273823  0.37959425  1  -1.300187  0.061298  -0.328922  -0.260213  0.036046  3.5312  0.01
N  N295  1  0.82093822  0.85725931  0.87960089  1  -1.300303  0.061301  -0.328815  -0.260063  0.036044  3.531212  0.01
N  N296  1  0.93910026  0.62253031  0.86363787  1  -1.247259  0.051833  -0.31242  -0.251133  0.036212  3.477249  0.018
N  N297  1  0.56088901  0.37745925  0.36363778  1  -1.247641  0.051834  -0.312569  -0.251418  0.036212  3.477308  0.018
N  N298  1  0.06090185  0.37746685  0.13636460  1  -1.247129  0.051829  -0.312476  -0.251166  0.036212  3.477356  0.018
N  N299  1  0.43910185  0.62253053  0.63636569  1  -1.247165  0.05184  -0.312455  -0.251138  0.036213  3.477553  0.018
N  N300  1  0.90414327  0.84490715  0.61418434  1  -1.228512  0.00039  -0.329773  -0.283711  0.000226  3.366457  0.0
N  N301  1  0.59585369  0.15508845  0.11417607  1  -1.228168  0.00039  -0.329685  -0.283641  0.000226  3.366404  0.0
N  N302  1  0.09586207  0.15508484  0.38582467  1  -1.228611  0.000391  -0.329747  -0.283674  0.000226  3.366439  0.0
N  N303  1  0.40412605  0.84490942  0.88582137  1  -1.228218  0.000391  -0.329785  -0.283686  0.000227  3.366484  0.0
O  O304  1  0.39359203  0.05290995  0.59201369  1  -1.196646  0.068076  -0.310541  -0.5641  0.047688  2.314229  0.033
O  O305  1  0.10640204  0.94708870  0.09200981  1  -1.196639  0.068068  -0.3106  -0.564012  0.047689  2.314324  0.033
O  O306  1  0.60639079  0.94709133  0.40797973  1  -1.196269  0.068064  -0.310483  -0.563982  0.047686  2.313995  0.033
O  O307  1  0.89362809  0.05291002  0.90796954  1  -1.196196  0.068042  -0.310587  -0.564293  0.047686  2.313237  0.033
O  O308  1  0.49116787  0.12914727  0.50806834  1  -1.191348  0.074692  -0.30972  -0.551017  0.051003  2.35192  0.037
O  O309  1  0.00883907  0.87085886  0.00806244  1  -1.191107  0.07471  -0.309634  -0.550956  0.051019  2.351748  0.037
O  O310  1  0.50883237  0.87085620  0.49193212  1  -1.191216  0.074687  -0.309741  -0.551024  0.051003  2.35182  0.037
O  O311  1  0.99118294  0.12914506  0.99192344  1  -1.190892  0.074689  -0.309843  -0.551208  0.051007  2.351991  0.037
O  O312  1  0.65908526  0.51782944  0.89119748  1  -1.193025  0.052511  -0.310728  -0.559044  0.037374  2.289148  0.021
O  O313  1  0.84091763  0.48216230  0.39118903  1  -1.193022  0.052518  -0.310584  -0.5589  0.037366  2.289355  0.021
O  O314  1  0.34092092  0.48215912  0.10880801  1  -1.192853  0.052515  -0.310676  -0.559045  0.037368  2.289327  0.021
O  O315  1  0.15908570  0.51783256  0.60880641  1  -1.19303  0.052515  -0.310702  -0.558939  0.037371  2.289049  0.021
O  O316  1  0.50132468  0.57692644  0.93755796  1  -1.189944  0.009293  -0.312053  -0.559271  0.005983  2.177262  0.007
O  O317  1  0.99869764  0.42307599  0.43755883  1  -1.189804  0.009293  -0.312081  -0.559215  0.005984  2.176999  0.007
O  O318  1  0.49869901  0.42307059  0.06243597  1  -1.190057  0.009293  -0.312095  -0.559264  0.005983  2.176952  0.007
O  O319  1  0.00132371  0.57693193  0.56244414  1  -1.189792  0.009292  -0.312013  -0.559206  0.005982  2.17714  0.007
O  O320  1  0.69156166  0.03932907  0.52928635  1  -1.215391  0.090425  -0.310321  -0.577159  0.064705  2.391801  0.046
O  O321  1  0.80845372  0.96066998  0.02928369  1  -1.215374  0.090441  -0.310441  -0.577369  0.064719  2.391028  0.046
O  O322  1  0.30842542  0.96066418  0.47071160  1  -1.215254  0.090426  -0.310299  -0.577088  0.064703  2.391894  0.046
O  O323  1  0.19158225  0.03933157  0.97070822  1  -1.215638  0.090432  -0.310298  -0.57711  0.064709  2.391921  0.046
O  O324  1  0.60057866  0.96400183  0.61484460  1  -1.197158  0.071852  -0.316099  -0.56066  0.048447  2.284411  0.037
O  O325  1  0.89942041  0.03600921  0.11484239  1  -1.197443  0.071834  -0.316031  -0.560487  0.048435  2.284586  0.037
O  O326  1  0.39940781  0.03600458  0.38515988  1  -1.197075  0.071857  -0.316029  -0.560463  0.048451  2.284348  0.037
O  O327  1  0.10060487  0.96398667  0.88516259  1  -1.197318  0.071865  -0.316048  -0.560522  0.048454  2.284266  0.037
O  O328  1  0.42964353  0.45973693  0.59922946  1  -1.199628  0.065025  -0.311503  -0.571899  0.046241  2.321724  0.03
O  O329  1  0.07038663  0.54026379  0.09922261  1  -1.199466  0.065018  -0.311651  -0.571946  0.046251  2.321477  0.03
O  O330  1  0.57038165  0.54026468  0.40077603  1  -1.199526  0.065021  -0.311653  -0.571955  0.046249  2.321585  0.03
O  O331  1  0.92963211  0.45973614  0.90077383  1  -1.199451  0.065024  -0.31153  -0.571912  0.04625  2.321632  0.03
O  O332  1  0.23273097  0.63751963  0.50713985  1  -1.237944  0.05062  -0.565578  -0.756536  0.038006  2.095363  0.023
O  O333  1  0.26728185  0.36247445  0.00713802  1  -1.237736  0.050598  -0.565572  -0.756459  0.038001  2.095493  0.023
O  O334  1  0.76728216  0.36247518  0.49286010  1  -1.237735  0.050596  -0.565567  -0.756495  0.038002  2.095421  0.023
O  O335  1  0.73273054  0.63751807  0.99286093  1  -1.23786  0.050621  -0.56564  -0.756612  0.038007  2.095295  0.023
O  O336  1  0.25129834  0.45886058  0.48158249  1  -1.293155  0.054796  -0.569986  -0.780379  0.040911  2.143449  0.024
O  O337  1  0.24871353  0.54113283  0.98157744  1  -1.293129  0.054804  -0.569991  -0.780459  0.040911  2.143282  0.024
O  O338  1  0.74871377  0.54113709  0.51841948  1  -1.294381  0.054805  -0.569956  -0.780496  0.040912  2.143364  0.024
O  O339  1  0.75130138  0.45886140  0.01841799  1  -1.292974  0.054803  -0.569978  -0.780392  0.040913  2.143364  0.024
O  O340  1  0.49609523  0.40107886  0.50784997  1  -1.223694  0.068985  -0.321631  -0.606164  0.050692  2.365591  0.032
O  O341  1  0.00392628  0.59892375  0.00784748  1  -1.223628  0.068956  -0.321627  -0.606148  0.050687  2.365582  0.032
O  O342  1  0.50392070  0.59892452  0.49215199  1  -1.223703  0.068951  -0.321611  -0.606063  0.050685  2.365587  0.032
O  O343  1  0.99608307  0.40107452  0.99215348  1  -1.223863  0.068974  -0.321647  -0.606094  0.050685  2.365609  0.032
