# generated using pymatgen
data_Cu2H32C41(N2O5)2
_symmetry_space_group_name_H-M   'P 1'
_cell_length_a   13.25291838
_cell_length_b   18.46588510
_cell_length_c   21.13916435
_cell_angle_alpha   84.18079789
_cell_angle_beta   71.75552452
_cell_angle_gamma   68.99571609
_symmetry_Int_Tables_number   1
_chemical_formula_structural   Cu2H32C41(N2O5)2
_chemical_formula_sum   'Cu8 H128 C164 N16 O40'
_cell_volume   4586.44509680
_cell_formula_units_Z   4
loop_
 _symmetry_equiv_pos_site_id
 _symmetry_equiv_pos_as_xyz
  1  'x, y, z'
loop_
 _atom_site_type_symbol
 _atom_site_label
 _atom_site_symmetry_multiplicity
 _atom_site_fract_x
 _atom_site_fract_y
 _atom_site_fract_z
 _atom_site_occupancy
 _atom_site_pbe_bader_charge
 _atom_site_pbe_bader_spin_density
 _atom_site_pbe_cm5_charge
 _atom_site_pbe_ddec_charge
 _atom_site_pbe_ddec_spin_density
 _atom_site_pbe_ddec_sum_bond_order
 _atom_site_pbe_magmom
Cu  Cu0  1  0.60907785  0.66394616  0.14363511  1  1.035679  0.553196  0.73858  0.729036  0.718559  2.237174  0.553
Cu  Cu1  1  0.91633544  0.83594046  0.35642461  1  1.03972  0.553113  0.738447  0.728699  0.718513  2.235676  0.553
Cu  Cu2  1  0.39092559  0.33604988  0.85636252  1  1.03558  0.553192  0.738548  0.729017  0.71855  2.237087  0.553
Cu  Cu3  1  0.08366471  0.16406023  0.64357400  1  1.03978  0.553115  0.738486  0.728765  0.718513  2.23559  0.553
Cu  Cu4  1  0.79856218  0.53267075  0.36995669  1  1.08214  0.56328  0.729598  0.795882  0.724279  2.133554  0.562
Cu  Cu5  1  0.20112820  0.96768349  0.13020633  1  1.080267  0.563283  0.72878  0.793845  0.72463  2.136221  0.562
Cu  Cu6  1  0.20144054  0.46733052  0.63004383  1  1.082246  0.563282  0.729521  0.795897  0.724283  2.133522  0.562
Cu  Cu7  1  0.79886813  0.03231722  0.86979607  1  1.080348  0.563289  0.728789  0.793841  0.724635  2.136187  0.562
H  H8  1  0.08136412  0.44491101  0.30818275  1  0.61431  -7.6e-05  0.289345  0.386471  6e-06  0.929675  0.0
H  H9  1  0.33393243  0.05461858  0.19230281  1  0.60761  -7.6e-05  0.288665  0.385258  7e-06  0.931168  0.0
H  H10  1  0.91865070  0.55509084  0.69181733  1  0.614446  -7.6e-05  0.289345  0.386414  6e-06  0.929716  0.0
H  H11  1  0.66606563  0.94537807  0.80770066  1  0.60763  -7.6e-05  0.288628  0.385218  7e-06  0.931239  0.0
H  H12  1  0.01107037  0.50946830  0.36568648  1  0.642393  -4.5e-05  0.274783  0.364941  -0.00011  0.987498  0.0
H  H13  1  0.38616468  0.99088088  0.13413998  1  0.635106  -4.8e-05  0.27478  0.364693  -0.000111  0.987996  0.0
H  H14  1  0.98893613  0.49053934  0.63430874  1  0.642171  -4.5e-05  0.274808  0.365143  -0.00011  0.987217  0.0
H  H15  1  0.61383658  0.00911635  0.86586318  1  0.635079  -4.8e-05  0.27481  0.364727  -0.000111  0.987959  0.0
H  H16  1  0.38086047  0.50033734  0.22704193  1  0.109589  0.000116  0.105348  0.106152  3.4e-05  1.038258  0.0
H  H17  1  0.60815540  0.99943808  0.27262835  1  0.110228  0.000117  0.106246  0.107065  3.4e-05  1.038925  0.0
H  H18  1  0.61913378  0.49966686  0.77296632  1  0.109723  0.000116  0.105354  0.106139  3.4e-05  1.038255  0.0
H  H19  1  0.39183301  0.00056258  0.72736377  1  0.110339  0.000117  0.106255  0.107051  3.4e-05  1.038949  0.0
H  H20  1  0.45793649  0.32973320  0.37611529  1  0.067046  5.6e-05  0.107193  0.107343  1.1e-05  0.996414  0.0
H  H21  1  0.66380587  0.16988367  0.12347412  1  0.063547  5.5e-05  0.107222  0.107119  1.1e-05  0.997115  0.0
H  H22  1  0.54206757  0.67026634  0.62388711  1  0.067108  5.6e-05  0.107184  0.107311  1.1e-05  0.996396  0.0
H  H23  1  0.33618863  0.83012224  0.87652673  1  0.063656  5.5e-05  0.107208  0.107108  1.1e-05  0.997141  0.0
H  H24  1  0.60686329  0.37814263  0.38199733  1  0.088471  8.1e-05  0.10726  0.111809  1.1e-05  0.99386  0.0
H  H25  1  0.86684990  0.12169599  0.11781881  1  0.073735  8.3e-05  0.106962  0.111223  1.2e-05  0.994376  0.0
H  H26  1  0.39314888  0.62184934  0.61799840  1  0.08822  8.1e-05  0.107297  0.111841  1.1e-05  0.993909  0.0
H  H27  1  0.13314609  0.87830414  0.88218342  1  0.073616  8.3e-05  0.10695  0.111212  1.2e-05  0.994344  0.0
H  H28  1  0.25731590  0.42653118  0.43180273  1  0.079469  9.6e-05  0.104089  0.108071  6e-06  1.023237  0.0
H  H29  1  0.61543972  0.07307119  0.06796305  1  0.09988  9.5e-05  0.10373  0.106918  5e-06  1.023452  0.0
H  H30  1  0.74268634  0.57347009  0.56819589  1  0.079842  9.6e-05  0.104091  0.108114  6e-06  1.023263  0.0
H  H31  1  0.38455374  0.92692892  0.93203618  1  0.099719  9.5e-05  0.103729  0.106847  5e-06  1.02339  0.0
H  H32  1  0.13180532  0.21419644  0.39759745  1  0.093125  0.00013  0.1089  0.115936  2.8e-05  0.985954  0.0
H  H33  1  0.24427601  0.28599709  0.10204742  1  0.109473  0.00013  0.108915  0.116154  2.9e-05  0.985216  0.0
H  H34  1  0.86819032  0.78580658  0.60240448  1  0.093094  0.00013  0.108868  0.115883  2.8e-05  0.986068  0.0
H  H35  1  0.75571701  0.71400767  0.89795231  1  0.102695  0.000131  0.10887  0.116097  2.9e-05  0.985223  0.0
H  H36  1  0.23381318  0.27506075  0.29890567  1  0.065713  0.000337  0.10468  0.10357  0.00017  1.015839  0.0
H  H37  1  0.30825985  0.22499255  0.20080322  1  0.075558  0.000329  0.104454  0.103749  0.000169  1.016029  0.0
H  H38  1  0.76617762  0.72494052  0.70109483  1  0.065715  0.000337  0.104652  0.103513  0.00017  1.015919  0.0
H  H39  1  0.69173863  0.77501336  0.79919686  1  0.0757  0.000329  0.104509  0.103798  0.000169  1.015994  0.0
H  H40  1  0.86966822  0.51328575  0.22440842  1  0.120876  0.001807  0.122724  0.103806  0.000805  0.982121  0.001
H  H41  1  0.10631945  0.98678102  0.27568038  1  0.156664  0.001769  0.122378  0.103342  0.000801  0.983162  0.001
H  H42  1  0.13032697  0.48671785  0.77559289  1  0.120746  0.001808  0.122706  0.103813  0.000805  0.98202  0.001
H  H43  1  0.89367321  0.01321909  0.72432042  1  0.156612  0.001768  0.122405  0.103351  0.000801  0.983185  0.001
H  H44  1  0.89885670  0.59554150  0.12340878  1  0.054725  0.001088  0.106178  0.109515  0.000531  1.011007  0.001
H  H45  1  0.11687709  0.90454831  0.37668385  1  0.023101  0.001091  0.105824  0.109685  0.000527  1.011864  0.001
H  H46  1  0.10114173  0.40445977  0.87659125  1  0.054727  0.001088  0.106212  0.109583  0.000531  1.010954  0.001
H  H47  1  0.88310940  0.09544889  0.62331503  1  0.023123  0.001091  0.105834  0.109623  0.000527  1.011813  0.001
H  H48  1  0.80992563  0.78687170  0.25609396  1  0.137339  0.000869  0.105486  0.124722  0.000405  1.05866  0.001
H  H49  1  0.35313649  0.71355940  0.24412522  1  0.12623  0.000867  0.105441  0.124538  0.000407  1.059526  0.001
H  H50  1  0.19006983  0.21313074  0.74390608  1  0.137387  0.000869  0.105486  0.124685  0.000405  1.058703  0.001
H  H51  1  0.64686810  0.28644130  0.75587688  1  0.125964  0.000868  0.105457  0.124539  0.000408  1.059554  0.001
H  H52  1  0.78959866  0.69685330  0.34961769  1  0.137883  0.001596  0.121236  0.102055  0.000666  1.00373  0.001
H  H53  1  0.33631684  0.80355507  0.15056553  1  0.172  0.001566  0.120848  0.101733  0.000666  1.00384  0.001
H  H54  1  0.21039783  0.30315088  0.65038284  1  0.137885  0.001596  0.121261  0.10207  0.000667  1.003796  0.001
H  H55  1  0.66368185  0.19644505  0.84943560  1  0.171949  0.001565  0.120843  0.101755  0.000666  1.003899  0.001
H  H56  1  0.96138132  0.73011712  0.08964047  1  0.02905  -0.000197  0.094068  0.094322  -0.000159  0.989495  0.0
H  H57  1  0.28144809  0.77006475  0.41029114  1  0.026734  -0.0002  0.094175  0.094415  -0.000161  0.990032  0.0
H  H58  1  0.03861611  0.26988299  0.91035798  1  0.028963  -0.000197  0.094034  0.094266  -0.000159  0.989461  0.0
H  H59  1  0.71854826  0.22993654  0.58971252  1  0.026824  -0.0002  0.094155  0.094399  -0.000161  0.989945  0.0
H  H60  1  0.82763720  0.73641865  0.08730770  1  0.114403  -0.000165  0.097575  0.118404  -0.000179  1.031661  0.0
H  H61  1  0.15142873  0.76383105  0.41297840  1  0.122149  -0.000161  0.097604  0.118989  -0.000175  1.031576  0.0
H  H62  1  0.17236083  0.26358437  0.91269424  1  0.114595  -0.000165  0.097537  0.118328  -0.000179  1.031724  0.0
H  H63  1  0.84857688  0.23616732  0.58702069  1  0.122084  -0.000161  0.097587  0.118977  -0.000175  1.031624  0.0
H  H64  1  0.74316188  0.85493315  0.16797053  1  0.05761  -0.000104  0.09351  0.096253  -8.8e-05  1.005202  0.0
H  H65  1  0.26558749  0.64534877  0.33214707  1  0.055001  -0.000104  0.09347  0.096351  -8.8e-05  1.003249  0.0
H  H66  1  0.25684207  0.14506756  0.83203141  1  0.057585  -0.000104  0.093491  0.096255  -8.8e-05  1.005175  0.0
H  H67  1  0.73441520  0.35465193  0.66785455  1  0.054715  -0.000104  0.093441  0.096289  -8.8e-05  1.003289  0.0
H  H68  1  0.88350668  0.85205096  0.15434213  1  0.045457  -1e-05  0.094666  0.10263  -1.4e-05  1.007588  0.0
H  H69  1  0.38953738  0.64816869  0.34562154  1  0.015393  -8e-06  0.094421  0.101982  -1.3e-05  1.00737  0.0
H  H70  1  0.11649842  0.14794337  0.84566101  1  0.045496  -1e-05  0.094667  0.102631  -1.4e-05  1.007617  0.0
H  H71  1  0.61046721  0.35183200  0.65437818  1  0.015633  -8e-06  0.094401  0.101969  -1.3e-05  1.007319  0.0
H  H72  1  0.97487190  0.90976147  0.05523219  1  0.133028  0.000949  0.10489  0.129521  0.000523  1.037403  0.001
H  H73  1  0.43981813  0.59044926  0.44472264  1  0.143177  0.000939  0.10528  0.130334  0.000521  1.036624  0.001
H  H74  1  0.02513294  0.09024157  0.94477324  1  0.133227  0.000949  0.104854  0.129404  0.000523  1.037319  0.001
H  H75  1  0.56019024  0.40954679  0.55527564  1  0.143228  0.000939  0.105245  0.130208  0.000521  1.036681  0.001
H  H76  1  0.96016364  0.98287006  0.95035440  1  0.091174  0.002045  0.114158  0.08015  0.000862  1.043573  0.002
H  H77  1  0.39371892  0.51717694  0.54953976  1  0.104716  0.002027  0.114366  0.080619  0.000858  1.042398  0.002
H  H78  1  0.03983461  0.01713471  0.04964960  1  0.091084  0.002045  0.114152  0.080104  0.000861  1.043622  0.002
H  H79  1  0.60629264  0.48282317  0.45046046  1  0.104624  0.002027  0.114344  0.080547  0.000858  1.042517  0.002
H  H80  1  0.66837996  0.94158228  0.95951624  1  0.133695  0.002101  0.119562  0.097015  0.000968  1.01707  0.002
H  H81  1  0.06981639  0.55820172  0.54049665  1  0.133002  0.002095  0.119262  0.096098  0.000964  1.017252  0.002
H  H82  1  0.33162261  0.05840856  0.04048640  1  0.133727  0.0021  0.119521  0.096893  0.000968  1.017204  0.002
H  H83  1  0.93019098  0.44180072  0.45950578  1  0.133061  0.002094  0.119269  0.096066  0.000964  1.01716  0.002
H  H84  1  0.66689085  0.87247880  0.06526594  1  0.1409  0.001073  0.106062  0.121489  0.000567  1.043964  0.001
H  H85  1  0.10444088  0.62775499  0.43497757  1  0.104191  0.001091  0.106324  0.121341  0.000565  1.043498  0.001
H  H86  1  0.33313403  0.12750623  0.93473323  1  0.140791  0.001073  0.106119  0.121558  0.000567  1.043835  0.001
H  H87  1  0.89556488  0.37224687  0.56502438  1  0.104458  0.001091  0.106328  0.121451  0.000565  1.043347  0.001
H  H88  1  0.53935677  0.83488527  0.14701530  1  0.15996  0.001759  0.116619  0.094479  0.000811  1.066024  0.001
H  H89  1  0.02099611  0.66497014  0.35293453  1  0.169198  0.001738  0.116908  0.095488  0.000811  1.064884  0.001
H  H90  1  0.46063998  0.16511019  0.85298058  1  0.15997  0.001758  0.116626  0.094449  0.000811  1.066077  0.001
H  H91  1  0.97900817  0.33503055  0.64706393  1  0.169046  0.001738  0.116947  0.095574  0.000811  1.064801  0.001
H  H92  1  0.48185318  0.93755636  0.23158326  1  0.121875  0.001016  0.109946  0.122907  0.000544  1.010003  0.001
H  H93  1  0.15077746  0.56243564  0.26825351  1  0.092937  0.001051  0.109901  0.122574  0.000546  1.009654  0.001
H  H94  1  0.51814919  0.06244025  0.76841122  1  0.121984  0.001016  0.109983  0.122897  0.000544  1.009943  0.001
H  H95  1  0.84922065  0.43756215  0.73174776  1  0.092987  0.001052  0.109908  0.122594  0.000546  1.009654  0.001
H  H96  1  0.54184301  0.75543880  0.37519495  1  0.073836  0.001124  0.115235  0.127754  0.000577  0.969977  0.001
H  H97  1  0.17232257  0.74482935  0.12491784  1  0.079929  0.001122  0.115374  0.127834  0.000575  0.970498  0.001
H  H98  1  0.45815577  0.24455956  0.62480301  1  0.073727  0.001124  0.115253  0.12774  0.000577  0.969989  0.001
H  H99  1  0.82767735  0.25516960  0.87508107  1  0.079924  0.001122  0.115398  0.127889  0.000575  0.970484  0.001
H  H100  1  0.59679080  0.66072774  0.28594934  1  0.192478  0.001639  0.117585  0.103514  0.000733  1.064412  0.001
H  H101  1  0.04322520  0.83933892  0.21423561  1  0.190505  0.001641  0.117617  0.103384  0.000734  1.064544  0.001
H  H102  1  0.40320486  0.33927178  0.71404799  1  0.192471  0.001639  0.117581  0.103607  0.000733  1.064277  0.001
H  H103  1  0.95677291  0.16066235  0.78576316  1  0.190466  0.001641  0.117638  0.103391  0.000734  1.064579  0.001
H  H104  1  0.52947547  0.90516909  0.39077483  1  0.063485  -1.4e-05  0.101974  0.112825  -2e-05  0.969364  0.0
H  H105  1  0.32509596  0.59507305  0.10918014  1  0.07241  -1.5e-05  0.101539  0.11208  -2.1e-05  0.969088  0.0
H  H106  1  0.47052933  0.09482868  0.60921983  1  0.063262  -1.4e-05  0.101971  0.112864  -2e-05  0.969323  0.0
H  H107  1  0.67490426  0.40492182  0.89081653  1  0.072507  -1.6e-05  0.101541  0.112082  -2.1e-05  0.969118  0.0
H  H108  1  0.45136787  0.97360075  0.34293688  1  0.056486  6.7e-05  0.100018  0.105619  4.5e-05  0.99575  0.0
H  H109  1  0.26766246  0.52657763  0.15701473  1  0.060231  6.7e-05  0.100197  0.105661  4.6e-05  0.995062  0.0
H  H110  1  0.54863010  0.02639702  0.65705903  1  0.056424  6.7e-05  0.100034  0.105612  4.5e-05  0.995808  0.0
H  H111  1  0.73233313  0.47342074  0.84298480  1  0.060239  6.7e-05  0.100201  0.105673  4.6e-05  0.995143  0.0
H  H112  1  0.36810234  0.85348658  0.43578244  1  0.020648  -0.000105  0.100269  0.097302  -9.1e-05  0.985315  0.0
H  H113  1  0.15719336  0.64664057  0.06412798  1  0.022865  -0.000104  0.100354  0.097175  -9.1e-05  0.985549  0.0
H  H114  1  0.63190605  0.14651006  0.56421710  1  0.020887  -0.000105  0.100273  0.097332  -9.1e-05  0.985169  0.0
H  H115  1  0.84280298  0.35335664  0.93587217  1  0.022726  -0.000104  0.10037  0.097149  -9.1e-05  0.985564  0.0
H  H116  1  0.29368278  0.91838754  0.38602038  1  0.06669  -0.000197  0.100286  0.105732  -0.000155  0.993819  0.0
H  H117  1  0.09775136  0.58186385  0.11396448  1  0.076345  -0.000197  0.099972  0.105348  -0.000155  0.994697  0.0
H  H118  1  0.70631947  0.08160678  0.61398087  1  0.066924  -0.000197  0.100337  0.105803  -0.000155  0.993814  0.0
H  H119  1  0.90224052  0.41813685  0.88603680  1  0.076067  -0.000197  0.100017  0.10541  -0.000155  0.994652  0.0
H  H120  1  0.16921015  0.91786994  0.52020159  1  0.084658  0.001325  0.115521  0.128228  0.000696  0.976479  0.001
H  H121  1  0.10685597  0.58230933  0.97971732  1  0.089797  0.00132  0.115269  0.12759  0.000697  0.976735  0.001
H  H122  1  0.83079926  0.08212435  0.47979257  1  0.084697  0.001324  0.115433  0.128206  0.000696  0.976541  0.001
H  H123  1  0.89313771  0.41768497  0.02028059  1  0.089861  0.00132  0.115294  0.127622  0.000697  0.976609  0.001
H  H124  1  0.07099938  0.01742943  0.61161269  1  0.120073  0.002052  0.122357  0.093599  0.000878  0.999321  0.002
H  H125  1  0.19951747  0.48275469  0.88827075  1  0.099984  0.002063  0.122645  0.094333  0.000878  0.998338  0.002
H  H126  1  0.92900155  0.98256371  0.38838334  1  0.119928  0.002052  0.122364  0.093642  0.000879  0.999302  0.002
H  H127  1  0.80048582  0.51724135  0.11172626  1  0.099872  0.002063  0.12262  0.094306  0.000878  0.998311  0.002
H  H128  1  0.29325424  0.13562332  0.53099286  1  0.124138  0.001949  0.125485  0.098496  0.000876  0.980323  0.001
H  H129  1  0.45936533  0.36461474  0.96890570  1  0.110406  0.00195  0.125378  0.098318  0.000869  0.980748  0.001
H  H130  1  0.70673961  0.86437506  0.46900919  1  0.124103  0.001949  0.125531  0.098589  0.000876  0.980332  0.001
H  H131  1  0.54063408  0.63538364  0.03109715  1  0.110427  0.00195  0.125367  0.098331  0.000869  0.980693  0.001
H  H132  1  0.40534191  0.03951967  0.43783847  1  0.075206  0.001067  0.114412  0.124132  0.000551  0.996435  0.001
H  H133  1  0.38207050  0.46060062  0.06218582  1  0.099109  0.001042  0.11374  0.1236  0.00055  0.996365  0.001
H  H134  1  0.59466393  0.96048044  0.56216268  1  0.075258  0.001067  0.114422  0.124114  0.000551  0.996565  0.001
H  H135  1  0.61792049  0.53940123  0.93781421  1  0.098995  0.001042  0.11379  0.123652  0.00055  0.996351  0.001
C  C136  1  0.57454591  0.46853465  0.31031753  1  -0.014476  0.00797  0.010488  0.007321  0.005661  3.873824  0.006
C  C137  1  0.85321146  0.03135790  0.18956766  1  0.02618  0.008029  0.010799  0.010621  0.005681  3.869461  0.006
C  C138  1  0.42546096  0.53145964  0.68967836  1  -0.014782  0.007966  0.010516  0.00747  0.005658  3.873735  0.006
C  C139  1  0.14678103  0.96864221  0.81043251  1  0.028679  0.008027  0.010816  0.010618  0.005682  3.869225  0.006
C  C140  1  0.51244397  0.50098402  0.26475733  1  0.013789  0.008958  -0.011671  -0.050466  0.006294  3.948469  0.007
C  C141  1  0.77801207  0.99892159  0.23514557  1  0.004554  0.008963  -0.012443  -0.052774  0.006304  3.947436  0.007
C  C142  1  0.48756811  0.49900970  0.73523920  1  0.013777  0.008961  -0.011793  -0.05064  0.006296  3.948619  0.007
C  C143  1  0.22198424  0.00107852  0.76485319  1  0.002108  0.008965  -0.012487  -0.052823  0.006305  3.947593  0.007
C  C144  1  0.42978376  0.47305051  0.26128741  1  -0.042876  0.000832  -0.070493  -0.09346  0.000315  3.928922  0.001
C  C145  1  0.66407166  0.02671299  0.23843384  1  -0.047681  0.000831  -0.070902  -0.094048  0.000306  3.930085  0.001
C  C146  1  0.57021728  0.52695252  0.73871706  1  -0.04916  0.000835  -0.070324  -0.093269  0.000315  3.928966  0.001
C  C147  1  0.33591849  0.97328770  0.76156523  1  -0.048062  0.000831  -0.070965  -0.094194  0.000306  3.930251  0.001
C  C148  1  0.40602124  0.41329478  0.30239659  1  -0.017439  0.00239  -0.02345  -0.028412  0.001535  4.013382  0.002
C  C149  1  0.62173919  0.08635032  0.19723599  1  -0.02584  0.002397  -0.023803  -0.028007  0.001535  4.01107  0.002
C  C150  1  0.59397728  0.58670883  0.69760852  1  -0.011699  0.002389  -0.023539  -0.028528  0.001536  4.01362  0.002
C  C151  1  0.37825511  0.91365096  0.80276420  1  -0.026118  0.002397  -0.023648  -0.027487  0.001535  4.010749  0.002
C  C152  1  0.47258281  0.37797560  0.34504918  1  -0.027549  0.000123  -0.073703  -0.083069  -9.2e-05  3.968563  0.0
C  C153  1  0.69555696  0.12171568  0.15462136  1  0.015098  0.000106  -0.072618  -0.082178  -9.4e-05  3.964947  0.0
C  C154  1  0.52742022  0.62202220  0.65495273  1  -0.027803  0.000123  -0.073707  -0.082979  -9.1e-05  3.968453  0.0
C  C155  1  0.30443680  0.87828793  0.84538137  1  0.015483  0.000107  -0.072662  -0.082409  -9.3e-05  3.964827  0.0
C  C156  1  0.55648000  0.40494627  0.34824490  1  -0.065502  0.001575  -0.085709  -0.11307  0.000948  3.968445  0.001
C  C157  1  0.80953313  0.09485989  0.15153523  1  -0.109149  0.001596  -0.085287  -0.112892  0.000951  3.963018  0.001
C  C158  1  0.44352747  0.59505093  0.65175212  1  -0.06486  0.001575  -0.085686  -0.113132  0.000949  3.968222  0.001
C  C159  1  0.19046025  0.90514256  0.84846843  1  -0.109124  0.001596  -0.08527  -0.112833  0.000951  3.962695  0.001
C  C160  1  0.64532355  0.50676703  0.32827195  1  1.599315  -0.001198  0.197266  0.557625  -0.001526  4.254702  -0.004
C  C161  1  0.98010845  0.99309431  0.17164917  1  1.607576  -0.001231  0.195636  0.553382  -0.001485  4.259123  -0.004
C  C162  1  0.35468362  0.49323076  0.67172745  1  1.59947  -0.001199  0.197203  0.557518  -0.001527  4.254693  -0.004
C  C163  1  0.01988166  0.00690580  0.82835099  1  1.607743  -0.001232  0.195689  0.553479  -0.001485  4.259342  -0.004
C  C164  1  0.52977577  0.56586861  0.21940289  1  1.553357  -0.001549  0.193521  0.552172  -0.002175  4.218956  -0.004
C  C165  1  0.81472918  0.93417512  0.28066332  1  1.535375  -0.001552  0.193683  0.553102  -0.002192  4.213083  -0.004
C  C166  1  0.47023507  0.43412570  0.78059459  1  1.553449  -0.001549  0.193579  0.552265  -0.002175  4.218822  -0.004
C  C167  1  0.18526854  0.06582440  0.71933512  1  1.535378  -0.001552  0.193659  0.55301  -0.002192  4.213235  -0.004
C  C168  1  0.30903027  0.39212567  0.30056990  1  0.911739  0.000952  0.1601  0.35671  0.000628  3.991214  0.0
C  C169  1  0.50181895  0.10741794  0.19904859  1  0.927971  0.000958  0.160142  0.356021  0.000634  3.992642  0.001
C  C170  1  0.69096748  0.60787851  0.69943332  1  0.911852  0.000952  0.160204  0.356746  0.000628  3.991342  0.0
C  C171  1  0.49817420  0.89258624  0.80095287  1  0.928228  0.000958  0.160006  0.355733  0.000634  3.992684  0.001
C  C172  1  0.25437186  0.35317337  0.35922127  1  -0.016359  -0.000513  -0.020289  -0.017438  -0.000708  4.023962  -0.001
C  C173  1  0.46684889  0.14659898  0.14048680  1  -0.067771  -0.000493  -0.019123  -0.015167  -0.000691  4.023198  -0.001
C  C174  1  0.74562465  0.64682792  0.64078302  1  -0.016824  -0.000514  -0.020296  -0.017469  -0.000709  4.023915  -0.001
C  C175  1  0.53314672  0.85340694  0.85951374  1  -0.067993  -0.000492  -0.019147  -0.015202  -0.00069  4.023338  -0.001
C  C176  1  0.23090928  0.37949999  0.42392215  1  -0.012643  0.003224  -0.078535  -0.127709  0.002052  3.935401  0.002
C  C177  1  0.53430220  0.12021091  0.07580635  1  0.017529  0.003205  -0.078408  -0.126466  0.002055  3.936387  0.002
C  C178  1  0.76908102  0.62050418  0.57607742  1  -0.012462  0.003226  -0.078543  -0.127788  0.002053  3.935212  0.002
C  C179  1  0.46569598  0.87979210  0.92419386  1  0.017537  0.003204  -0.078348  -0.126223  0.002055  3.936218  0.002
C  C180  1  0.16858782  0.34876865  0.47876728  1  0.026486  0.008267  -0.003194  -0.021518  0.005879  3.904991  0.006
C  C181  1  0.49619109  0.15106025  0.02095478  1  -0.090041  0.008449  -0.00317  -0.02224  0.005895  3.908958  0.006
C  C182  1  0.83140968  0.65123320  0.52123261  1  0.025581  0.008267  -0.003204  -0.021538  0.005877  3.90506  0.006
C  C183  1  0.50380549  0.84894218  0.97904495  1  -0.090029  0.00845  -0.003244  -0.022508  0.005896  3.909345  0.006
C  C184  1  0.13489265  0.28779403  0.46869033  1  -0.096557  0.013153  -0.005337  -0.035584  0.008981  3.921508  0.01
C  C185  1  0.39167734  0.21216208  0.03102161  1  -0.011899  0.012988  -0.005129  -0.035532  0.008957  3.923325  0.01
C  C186  1  0.86510440  0.71220840  0.53130892  1  -0.096225  0.013151  -0.00532  -0.035523  0.00898  3.921544  0.01
C  C187  1  0.60831388  0.78784153  0.96898048  1  -0.01111  0.012985  -0.005044  -0.035516  0.008958  3.923534  0.01
C  C188  1  0.15902314  0.26141143  0.40389492  1  0.004623  0.000951  -0.078218  -0.085445  0.000374  3.966009  0.001
C  C189  1  0.32483225  0.23866786  0.09580443  1  -0.022166  0.000989  -0.077943  -0.085293  0.000379  3.965278  0.001
C  C190  1  0.84096721  0.73859390  0.59610482  1  0.004813  0.000951  -0.078197  -0.085447  0.000374  3.966018  0.001
C  C191  1  0.67516403  0.76133863  0.90419518  1  -0.015204  0.000989  -0.077903  -0.085218  0.000379  3.965248  0.001
C  C192  1  0.21646703  0.29459911  0.34938064  1  -0.049272  0.004313  -0.079494  -0.092962  0.002832  3.975374  0.003
C  C193  1  0.36081289  0.20537903  0.15033972  1  -0.037603  0.004319  -0.079737  -0.094035  0.002834  3.976635  0.003
C  C194  1  0.78352332  0.70540622  0.65061910  1  -0.04909  0.004315  -0.079415  -0.092797  0.002833  3.975335  0.003
C  C195  1  0.63918169  0.79462863  0.84966020  1  -0.037921  0.004318  -0.079775  -0.094022  0.002833  3.97661  0.003
C  C196  1  0.13324371  0.38829422  0.54530049  1  1.591303  0.000512  0.211304  0.586126  0.000598  4.205431  -0.002
C  C197  1  0.56672750  0.11151587  0.95443212  1  1.606966  0.00045  0.21204  0.58734  0.000622  4.204214  -0.002
C  C198  1  0.86675935  0.61170417  0.45470269  1  1.591472  0.000512  0.211263  0.586126  0.000599  4.205553  -0.002
C  C199  1  0.43326778  0.88848250  0.04556851  1  1.607236  0.000454  0.212042  0.587567  0.000621  4.204146  -0.002
C  C200  1  0.08093945  0.24483053  0.52537124  1  1.574493  -0.000711  0.195188  0.543812  -0.00097  4.256032  -0.003
C  C201  1  0.35139138  0.25507665  0.97437888  1  1.579215  -0.000666  0.195756  0.546299  -0.000995  4.253801  -0.003
C  C202  1  0.91906049  0.75517309  0.47463482  1  1.574665  -0.00071  0.195111  0.543872  -0.000969  4.255798  -0.003
C  C203  1  0.64860225  0.74492405  0.02562225  1  1.578677  -0.000662  0.19583  0.546479  -0.000995  4.253716  -0.003
C  C204  1  0.86020972  0.57385128  0.22846089  1  0.504392  -0.000828  0.044816  0.100433  -0.001116  3.944409  0.0
C  C205  1  0.16176090  0.92630234  0.27165128  1  0.411954  -0.000757  0.045262  0.101029  -0.001137  3.946825  0.0
C  C206  1  0.13978883  0.42614942  0.77154087  1  0.504321  -0.000827  0.044823  0.10043  -0.001116  3.944367  0.0
C  C207  1  0.83824034  0.07369778  0.72834812  1  0.411935  -0.000756  0.045268  0.101041  -0.001137  3.946707  0.0
C  C208  1  0.87580199  0.62026762  0.17287094  1  -0.076258  0.005048  -0.091703  -0.212794  0.003125  3.989866  0.004
C  C209  1  0.16821216  0.87990717  0.32724175  1  0.009758  0.004922  -0.091425  -0.213758  0.003113  3.990396  0.004
C  C210  1  0.12419720  0.37973308  0.82712862  1  -0.07611  0.005047  -0.091689  -0.212846  0.003124  3.989845  0.004
C  C211  1  0.83179231  0.12009410  0.67275861  1  0.009753  0.004921  -0.091391  -0.213631  0.003112  3.990286  0.004
C  C212  1  0.85851706  0.69912600  0.18001240  1  -0.008815  -0.003423  0.012519  0.168583  -0.003867  3.937174  -0.002
C  C213  1  0.23733007  0.80114593  0.32012673  1  -0.012659  -0.00343  0.013045  0.170267  -0.003869  3.934925  -0.002
C  C214  1  0.14147930  0.30087528  0.81998890  1  -0.009052  -0.003423  0.012424  0.168457  -0.003866  3.937216  -0.002
C  C215  1  0.76267490  0.19885593  0.67987443  1  -0.013064  -0.003431  0.012974  0.170213  -0.003869  3.934847  -0.002
C  C216  1  0.82728834  0.72644591  0.24504629  1  -0.025813  0.005181  -0.090755  -0.187467  0.003504  3.916273  0.004
C  C217  1  0.29877646  0.77392470  0.25512197  1  -0.046655  0.005254  -0.090696  -0.187284  0.003504  3.915446  0.004
C  C218  1  0.17270394  0.27355652  0.75495532  1  -0.025331  0.005181  -0.090799  -0.187474  0.003505  3.916202  0.004
C  C219  1  0.70122459  0.22607483  0.74487790  1  -0.046008  0.005254  -0.09074  -0.187314  0.003504  3.915437  0.004
C  C220  1  0.81407902  0.67648586  0.29856637  1  0.440257  -0.000973  0.049022  0.101002  -0.00146  3.92698  -0.001
C  C221  1  0.28910526  0.82385527  0.20159058  1  0.431083  -0.00096  0.049491  0.101732  -0.001452  3.925837  -0.001
C  C222  1  0.18591670  0.32351889  0.70143464  1  0.440147  -0.000974  0.04905  0.101072  -0.001461  3.92697  -0.001
C  C223  1  0.71089409  0.17614543  0.79841198  1  0.431037  -0.00096  0.04955  0.101718  -0.001452  3.925699  -0.001
C  C224  1  0.87116346  0.74923765  0.11920780  1  -0.048374  3.5e-05  -0.157169  -0.201872  -0.000123  3.914902  0.0
C  C225  1  0.23951766  0.75101176  0.38090681  1  -0.030836  3.6e-05  -0.15768  -0.203488  -0.000123  3.915528  0.0
C  C226  1  0.12883761  0.25076247  0.88079333  1  -0.048504  3.5e-05  -0.157083  -0.20166  -0.000122  3.914808  0.0
C  C227  1  0.76048633  0.24898951  0.61909403  1  -0.030824  3.6e-05  -0.157661  -0.203473  -0.000123  3.915448  0.0
C  C228  1  0.82867742  0.83713970  0.13214221  1  -0.018894  0.000306  -0.159675  -0.195023  0.000164  3.914132  0.0
C  C229  1  0.29765544  0.66308671  0.36793553  1  0.004701  0.000299  -0.158821  -0.193791  0.000162  3.910106  0.0
C  C230  1  0.17132540  0.16286042  0.86785877  1  -0.018914  0.000306  -0.159631  -0.19501  0.000164  3.914042  0.0
C  C231  1  0.70234866  0.33691340  0.63206341  1  0.004719  0.000299  -0.158763  -0.193661  0.000162  3.910161  0.0
C  C232  1  0.82405638  0.88212925  0.06887494  1  -0.012466  -0.003362  0.01564  0.179277  -0.003769  3.915351  -0.002
C  C233  1  0.27497263  0.61802046  0.43118234  1  -0.04252  -0.003355  0.015902  0.179096  -0.003761  3.91503  -0.002
C  C234  1  0.17594844  0.11787320  0.93112922  1  -0.012952  -0.003362  0.015734  0.179218  -0.003768  3.915408  -0.002
C  C235  1  0.72503557  0.38197907  0.56881754  1  -0.042357  -0.003355  0.015948  0.17897  -0.003761  3.915266  -0.002
C  C236  1  0.90685186  0.91432983  0.03476035  1  -0.038786  0.005356  -0.09254  -0.198885  0.003649  3.938952  0.004
C  C237  1  0.35598797  0.58577266  0.46521109  1  -0.001462  0.005301  -0.09246  -0.198857  0.003638  3.939828  0.004
C  C238  1  0.09315554  0.08567319  0.96524098  1  -0.039426  0.005358  -0.09247  -0.19865  0.003648  3.939034  0.004
C  C239  1  0.64401937  0.41422920  0.53479007  1  -0.001658  0.005301  -0.092293  -0.198393  0.003637  3.939721  0.004
C  C240  1  0.89898138  0.95510785  0.97641634  1  0.445128  -0.00067  0.037637  0.082195  -0.001187  3.964638  0.0
C  C241  1  0.33076798  0.54489901  0.52352317  1  0.400719  -0.000609  0.037558  0.082105  -0.001176  3.963095  0.0
C  C242  1  0.10101804  0.04489459  0.02358528  1  0.445756  -0.000673  0.037622  0.082264  -0.001187  3.964697  0.0
C  C243  1  0.66923970  0.45510344  0.47648052  1  0.400802  -0.00061  0.037437  0.081893  -0.001176  3.963165  0.0
C  C244  1  0.73520823  0.93341637  0.98197635  1  0.439733  -0.000114  0.047873  0.101005  -0.000579  3.913127  0.0
C  C245  1  0.15082199  0.56651654  0.51806055  1  0.450198  -0.00015  0.048582  0.102108  -0.000597  3.915957  0.0
C  C246  1  0.26479965  0.06657969  0.01802477  1  0.440201  -0.000113  0.047935  0.101267  -0.000578  3.912991  0.0
C  C247  1  0.84918456  0.43348532  0.48194219  1  0.450243  -0.00015  0.04867  0.102357  -0.000597  3.915767  0.0
C  C248  1  0.73663031  0.89326150  0.04115447  1  -0.036011  0.006086  -0.082597  -0.172498  0.00415  3.910026  0.005
C  C249  1  0.17100430  0.60686397  0.45897690  1  -0.012114  0.00606  -0.084044  -0.173765  0.004131  3.909759  0.005
C  C250  1  0.26338264  0.10673398  0.95884665  1  -0.03595  0.006086  -0.0827  -0.172592  0.00415  3.909736  0.005
C  C251  1  0.82899751  0.39313848  0.54102710  1  -0.012876  0.00606  -0.084163  -0.174077  0.004131  3.909935  0.005
C  C252  1  0.54082978  0.81974041  0.19787656  1  0.402668  -0.000408  0.043861  0.096342  -0.000914  3.934889  0.0
C  C253  1  0.05818336  0.68017334  0.30209971  1  0.385275  -0.000359  0.043615  0.09459  -0.000914  3.935478  0.0
C  C254  1  0.45916977  0.18025737  0.80212093  1  0.402819  -0.000408  0.043768  0.096277  -0.000915  3.934929  0.0
C  C255  1  0.94182069  0.31982561  0.69789906  1  0.38535  -0.000359  0.043511  0.094396  -0.000914  3.935421  0.0
C  C256  1  0.50810010  0.87672585  0.24560668  1  -0.034194  0.005002  -0.080362  -0.174961  0.003417  3.911028  0.004
C  C257  1  0.13023874  0.62328953  0.25431590  1  -0.014849  0.004975  -0.080431  -0.173633  0.003424  3.910073  0.004
C  C258  1  0.49190573  0.12327018  0.75438860  1  -0.03456  0.005003  -0.080377  -0.174855  0.003417  3.910991  0.004
C  C259  1  0.86976239  0.37670825  0.74568316  1  -0.014828  0.004975  -0.080388  -0.173551  0.003424  3.910065  0.004
C  C260  1  0.50665448  0.85584478  0.31123622  1  0.013731  -0.003149  0.01932  0.181229  -0.003525  3.933698  -0.002
C  C261  1  0.17350455  0.64429455  0.18873154  1  0.015429  -0.003165  0.019971  0.181099  -0.003546  3.933155  -0.002
C  C262  1  0.49334599  0.14415242  0.68876142  1  0.013897  -0.003149  0.019341  0.181176  -0.003525  3.933756  -0.002
C  C263  1  0.82649741  0.35570382  0.81126722  1  0.015536  -0.003165  0.019908  0.181052  -0.003546  3.933239  -0.002
C  C264  1  0.53962230  0.77656059  0.32537562  1  -0.017387  0.005386  -0.079958  -0.175497  0.003665  3.916385  0.004
C  C265  1  0.14133483  0.72360591  0.17467554  1  -0.009921  0.005353  -0.080145  -0.175797  0.003668  3.917265  0.004
C  C266  1  0.46037360  0.22343719  0.67462154  1  -0.017374  0.005386  -0.080002  -0.175431  0.003665  3.916393  0.004
C  C267  1  0.85866609  0.27639421  0.82532496  1  -0.010054  0.005353  -0.08016  -0.175835  0.003668  3.917285  0.004
C  C268  1  0.57152736  0.72247283  0.27541374  1  0.424488  -0.00025  0.042268  0.090711  -0.000647  3.936233  0.0
C  C269  1  0.06913414  0.77757445  0.22468719  1  0.40934  -0.000228  0.04167  0.091058  -0.000658  3.937175  0.0
C  C270  1  0.42846793  0.27752553  0.72458216  1  0.424454  -0.000248  0.042353  0.090674  -0.000646  3.936072  0.0
C  C271  1  0.93086691  0.22242509  0.77531268  1  0.409369  -0.000229  0.041626  0.090983  -0.000658  3.937167  0.0
C  C272  1  0.46473683  0.91574407  0.36524059  1  -0.021225  0.000282  -0.155525  -0.208552  0.000163  3.945351  0.0
C  C273  1  0.24547096  0.58443686  0.13470875  1  -0.027774  0.000281  -0.154979  -0.206951  0.000163  3.943022  0.0
C  C274  1  0.53526482  0.08425428  0.63475454  1  -0.021033  0.000282  -0.155524  -0.208543  0.000163  3.945336  0.0
C  C275  1  0.75452718  0.41556150  0.86528905  1  -0.027274  0.000281  -0.154912  -0.206962  0.000163  3.943088  0.0
C  C276  1  0.35372599  0.91190262  0.41423377  1  -0.01593  -3.9e-05  -0.150145  -0.192399  -0.000167  3.949825  0.0
C  C277  1  0.17954691  0.58824982  0.08570990  1  -0.018595  -4.1e-05  -0.15003  -0.192666  -0.000169  3.949702  0.0
C  C278  1  0.64628066  0.08809053  0.58576606  1  -0.0163  -3.9e-05  -0.150168  -0.192484  -0.000167  3.949822  0.0
C  C279  1  0.82044718  0.41175030  0.91429185  1  -0.018704  -4.1e-05  -0.150081  -0.192671  -0.000169  3.94972  0.0
C  C280  1  0.29582806  0.97053901  0.47016180  1  -0.004793  -0.003803  0.016736  0.175124  -0.004259  3.939729  -0.003
C  C281  1  0.23600493  0.52957210  0.02980789  1  -0.015186  -0.003805  0.016253  0.175217  -0.004259  3.937914  -0.003
C  C282  1  0.70417838  0.02945993  0.52983461  1  -0.005094  -0.003803  0.01666  0.175022  -0.00426  3.939782  -0.003
C  C283  1  0.76399215  0.47042742  0.97019039  1  -0.014958  -0.003805  0.016285  0.175308  -0.004259  3.938128  -0.003
C  C284  1  0.20013417  0.96521032  0.52039940  1  -0.039509  0.005648  -0.083881  -0.190353  0.003833  3.945751  0.004
C  C285  1  0.18524953  0.53494180  0.97952145  1  -0.010304  0.005563  -0.083709  -0.189379  0.003833  3.944657  0.004
C  C286  1  0.79987077  0.03478687  0.47959463  1  -0.039215  0.005649  -0.083856  -0.19039  0.003833  3.945544  0.004
C  C287  1  0.81474353  0.46505657  0.02047744  1  -0.010836  0.005562  -0.083775  -0.189468  0.003833  3.944682  0.004
C  C288  1  0.14395493  0.02058346  0.57098406  1  0.481751  -0.000731  0.049591  0.096641  -0.001048  3.958585  0.0
C  C289  1  0.23498382  0.47956651  0.92893219  1  0.45262  -0.000645  0.049903  0.095967  -0.001029  3.957929  0.0
C  C290  1  0.85604635  0.97941026  0.42901214  1  0.481651  -0.000733  0.049589  0.096537  -0.00105  3.958477  0.0
C  C291  1  0.76501676  0.52042953  0.07106591  1  0.452924  -0.000645  0.049902  0.096062  -0.001029  3.957894  0.0
C  C292  1  0.26978851  0.08594595  0.52657515  1  0.49214  -0.00182  0.052466  0.103342  -0.002261  3.941157  -0.001
C  C293  1  0.38178936  0.41423733  0.97336551  1  0.492921  -0.001847  0.053476  0.105665  -0.002278  3.941212  -0.001
C  C294  1  0.73020834  0.91405185  0.47342580  1  0.491958  -0.001819  0.052433  0.103168  -0.00226  3.94125  -0.001
C  C295  1  0.61821233  0.58576219  0.02663216  1  0.494309  -0.001847  0.053545  0.10578  -0.002278  3.940986  -0.001
C  C296  1  0.33123850  0.03213958  0.47471894  1  -0.038506  0.005163  -0.083327  -0.184764  0.003487  3.93317  0.004
C  C297  1  0.33749853  0.46798413  0.02527952  1  -0.031921  0.005175  -0.082768  -0.185795  0.003477  3.932938  0.004
C  C298  1  0.66876327  0.96785821  0.52528029  1  -0.038408  0.005163  -0.083355  -0.184708  0.003487  3.933285  0.004
C  C299  1  0.66250054  0.53201712  0.97471594  1  -0.032733  0.005176  -0.082809  -0.185882  0.003477  3.933005  0.004
N  N300  1  0.82895422  0.60153610  0.29099689  1  -1.212722  0.080674  -0.345559  -0.238749  0.054091  3.605515  0.07
N  N301  1  0.22113564  0.89871988  0.20913813  1  -1.20317  0.080483  -0.345926  -0.240081  0.054005  3.607508  0.07
N  N302  1  0.17104142  0.39846692  0.70900505  1  -1.212794  0.080675  -0.34556  -0.238822  0.054092  3.605689  0.07
N  N303  1  0.77886564  0.10128140  0.79086381  1  -1.20311  0.080491  -0.345961  -0.240091  0.05401  3.607291  0.07
N  N304  1  0.81533187  0.96420851  0.94967771  1  -1.196405  0.086041  -0.343792  -0.221492  0.05767  3.587338  0.074
N  N305  1  0.22958493  0.53565193  0.55026295  1  -1.192398  0.0858  -0.343838  -0.222741  0.057508  3.58997  0.074
N  N306  1  0.18466671  0.03579279  0.05032768  1  -1.196406  0.08604  -0.343865  -0.221714  0.057669  3.587275  0.074
N  N307  1  0.77042249  0.46435168  0.44973965  1  -1.191971  0.085799  -0.34387  -0.222723  0.057507  3.58989  0.074
N  N308  1  0.57216013  0.74352402  0.21234615  1  -1.226987  0.081893  -0.35629  -0.250598  0.055005  3.635352  0.071
N  N309  1  0.02770826  0.75641511  0.28770039  1  -1.223808  0.081857  -0.355959  -0.250465  0.05497  3.636067  0.071
N  N310  1  0.42783627  0.25647434  0.78765181  1  -1.226852  0.081893  -0.356295  -0.250671  0.055005  3.635268  0.071
N  N311  1  0.97229677  0.24358442  0.71229870  1  -1.223886  0.081854  -0.355964  -0.250436  0.054969  3.635964  0.071
N  N312  1  0.17705108  0.08087258  0.57337655  1  -1.209358  0.085383  -0.345302  -0.214551  0.057318  3.631984  0.075
N  N313  1  0.33073971  0.41930579  0.92654419  1  -1.198757  0.08535  -0.346028  -0.215467  0.057381  3.632586  0.074
N  N314  1  0.82294807  0.91912347  0.42662297  1  -1.209251  0.085383  -0.345214  -0.214305  0.057319  3.631955  0.075
N  N315  1  0.66926336  0.58069258  0.07345426  1  -1.19929  0.085349  -0.346085  -0.215677  0.057382  3.632637  0.074
O  O316  1  0.59258576  0.57124936  0.35826244  1  -1.171898  0.004693  -0.316167  -0.564208  0.002169  2.184577  0.005
O  O317  1  0.02169025  0.92856448  0.14175443  1  -1.169433  0.004747  -0.315424  -0.562285  0.002197  2.184576  0.005
O  O318  1  0.40741720  0.42874669  0.64173567  1  -1.172009  0.004695  -0.316096  -0.564159  0.00217  2.184329  0.005
O  O319  1  0.97830101  0.07143621  0.85824433  1  -1.169395  0.004747  -0.315436  -0.562265  0.002197  2.184744  0.005
O  O320  1  0.75124892  0.46879225  0.31850095  1  -1.106573  0.108673  -0.322203  -0.529942  0.069955  2.234845  0.097
O  O321  1  0.03828917  0.03113871  0.18138569  1  -1.108019  0.108493  -0.320872  -0.528039  0.069785  2.237296  0.097
O  O322  1  0.24875154  0.53120498  0.68150378  1  -1.10644  0.108686  -0.322186  -0.52989  0.069963  2.234782  0.097
O  O323  1  0.96169844  0.96886257  0.81861637  1  -1.108166  0.108493  -0.320911  -0.528124  0.069785  2.237443  0.097
O  O324  1  0.62444088  0.57746654  0.20931134  1  -1.102111  0.116471  -0.319921  -0.533912  0.074882  2.345166  0.105
O  O325  1  0.91102046  0.92241794  0.29065898  1  -1.103954  0.116465  -0.31959  -0.533245  0.074893  2.341442  0.105
O  O326  1  0.37557178  0.42252950  0.79068506  1  -1.102053  0.116464  -0.319986  -0.53401  0.07488  2.345159  0.105
O  O327  1  0.08898121  0.07757751  0.70933518  1  -1.104002  0.116485  -0.319484  -0.533125  0.074904  2.341204  0.105
O  O328  1  0.45548875  0.60529525  0.19231180  1  -1.181405  0.000724  -0.325424  -0.558467  -0.000406  2.160592  0.001
O  O329  1  0.75252910  0.89496985  0.30799579  1  -1.169918  0.000721  -0.325854  -0.559739  -0.00041  2.16067  0.001
O  O330  1  0.54452010  0.39470079  0.80768601  1  -1.181361  0.000724  -0.325466  -0.558527  -0.000405  2.160496  0.001
O  O331  1  0.24746564  0.10503084  0.69200502  1  -1.169895  0.000721  -0.325876  -0.559679  -0.00041  2.160781  0.001
O  O332  1  0.26910370  0.40940879  0.25275700  1  -1.113387  0.000901  -0.276176  -0.439003  0.000536  2.088885  0.001
O  O333  1  0.43150983  0.08985624  0.24675976  1  -1.116409  0.00091  -0.276789  -0.439651  0.000541  2.090993  0.001
O  O334  1  0.73089110  0.59060410  0.74724722  1  -1.113478  0.000901  -0.276266  -0.439027  0.000536  2.088862  0.001
O  O335  1  0.56848319  0.91014851  0.75323998  1  -1.116302  0.00091  -0.276781  -0.439656  0.000541  2.090922  0.001
O  O336  1  0.21519531  0.39044326  0.56432004  1  -1.129691  0.098114  -0.327799  -0.558936  0.063052  2.340554  0.089
O  O337  1  0.66990097  0.10915409  0.93552600  1  -1.131962  0.097901  -0.328142  -0.559001  0.062915  2.339627  0.089
O  O338  1  0.78480800  0.60955685  0.43567811  1  -1.129572  0.098132  -0.327782  -0.558891  0.063063  2.340441  0.089
O  O339  1  0.33009205  0.89084371  0.06447636  1  -1.131845  0.097909  -0.32815  -0.559083  0.062923  2.339584  0.089
O  O340  1  0.02904401  0.42011796  0.57394369  1  -1.173908  0.00456  -0.305098  -0.536744  0.0024  2.185679  0.004
O  O341  1  0.52282590  0.07989262  0.92567365  1  -1.168137  0.00454  -0.305315  -0.537463  0.002386  2.187688  0.004
O  O342  1  0.97095701  0.57988448  0.42605715  1  -1.173865  0.004559  -0.305084  -0.536707  0.0024  2.185823  0.004
O  O343  1  0.47717590  0.92010226  0.07432460  1  -1.168546  0.004541  -0.305298  -0.537513  0.002387  2.187715  0.004
O  O344  1  0.11274029  0.24239519  0.57833725  1  -1.105519  0.11631  -0.33131  -0.551311  0.074456  2.389692  0.105
O  O345  1  0.43361317  0.25771728  0.92145298  1  -1.115549  0.116283  -0.332129  -0.552777  0.074543  2.389936  0.105
O  O346  1  0.88727037  0.75760608  0.42166171  1  -1.105808  0.116334  -0.331237  -0.551319  0.074471  2.389378  0.105
O  O347  1  0.56638412  0.74227993  0.07854623  1  -1.115695  0.116276  -0.332189  -0.552872  0.074539  2.390059  0.105
O  O348  1  0.01752245  0.21195713  0.51878667  1  -1.164521  0.002505  -0.326808  -0.551557  0.000751  2.138742  0.003
O  O349  1  0.24854200  0.28775562  0.98093442  1  -1.170005  0.0025  -0.32659  -0.55243  0.000748  2.138031  0.003
O  O350  1  0.98247203  0.78804882  0.48122128  1  -1.164409  0.002503  -0.326782  -0.551588  0.00075  2.138723  0.003
O  O351  1  0.75145293  0.71224565  0.01906593  1  -1.170079  0.002501  -0.326649  -0.552541  0.000749  2.137885  0.003
O  O352  1  0.00664196  0.46952144  0.33944807  1  -1.280835  0.000417  -0.611097  -0.809506  -4.3e-05  2.008483  0.001
O  O353  1  0.31564893  0.03126381  0.15988992  1  -1.265227  0.000537  -0.609569  -0.80727  3.7e-05  2.012235  0.001
O  O354  1  0.99336712  0.53048676  0.66054433  1  -1.28072  0.000418  -0.6111  -0.809618  -4.2e-05  2.008397  0.001
O  O355  1  0.68435268  0.96873745  0.84010854  1  -1.265235  0.000536  -0.609573  -0.807255  3.6e-05  2.012247  0.001
