# generated using pymatgen
data_Ho2Cd3H36(C2O3)12
_symmetry_space_group_name_H-M   'P 1'
_cell_length_a   18.47357521
_cell_length_b   18.47355148
_cell_length_c   18.47360244
_cell_angle_alpha   59.99997176
_cell_angle_beta   59.99997569
_cell_angle_gamma   59.99999125
_symmetry_Int_Tables_number   1
_chemical_formula_structural   Ho2Cd3H36(C2O3)12
_chemical_formula_sum   'Ho8 Cd12 H144 C96 O144'
_cell_volume   4457.97616501
_cell_formula_units_Z   4
loop_
 _symmetry_equiv_pos_site_id
 _symmetry_equiv_pos_as_xyz
  1  'x, y, z'
loop_
 _atom_site_type_symbol
 _atom_site_label
 _atom_site_symmetry_multiplicity
 _atom_site_fract_x
 _atom_site_fract_y
 _atom_site_fract_z
 _atom_site_occupancy
 _atom_site_pbe_bader_charge
 _atom_site_pbe_bader_spin_density
 _atom_site_pbe_cm5_charge
 _atom_site_pbe_ddec_charge
 _atom_site_pbe_ddec_spin_density
 _atom_site_pbe_ddec_sum_bond_order
 _atom_site_pbe_magmom
Ho  Ho0  1  0.75000261  0.24999865  0.24999958  1  2.162817  0  1.54936  1.948036  0  2.318049  0
Ho  Ho1  1  0.25000184  0.25000155  0.24999656  1  2.164482  0  1.549416  1.948101  0  2.318058  0
Ho  Ho2  1  0.75000077  0.74999851  0.24999952  1  2.164496  0  1.549374  1.94804  0  2.318106  0
Ho  Ho3  1  0.74999936  0.25000111  0.75000076  1  2.164523  0  1.549378  1.948019  0  2.318042  0
Ho  Ho4  1  0.24999831  0.75000000  0.74999933  1  2.162866  0  1.549365  1.948069  0  2.317919  0
Ho  Ho5  1  0.74999934  0.74999521  0.75000530  1  2.164429  0  1.549387  1.948051  0  2.318113  0
Ho  Ho6  1  0.25000184  0.24999967  0.75000281  1  2.164421  0  1.549359  1.948051  0  2.318108  0
Ho  Ho7  1  0.25000010  0.74999934  0.25000113  1  2.164552  0  1.549372  1.948013  0  2.317932  0
Cd  Cd8  1  0.50000079  0.49999912  0.49999999  1  1.402387  0  0.802778  1.114483  0  2.223006  0
Cd  Cd9  1  0.50000011  0.49999982  0.99999970  1  1.402317  0  0.802681  1.114412  0  2.223038  0
Cd  Cd10  1  0.99999853  0.50000106  0.99999894  1  1.402405  0  0.802796  1.114516  0  2.222931  0
Cd  Cd11  1  0.50000034  0.99999850  0.00000009  1  1.398844  0  0.802827  1.114534  0  2.222898  0
Cd  Cd12  1  0.00000094  0.00000015  0.49999931  1  1.402367  0  0.80283  1.114591  0  2.222883  0
Cd  Cd13  1  0.49999904  0.00000108  0.49999917  1  1.402358  0  0.802774  1.114489  0  2.223093  0
Cd  Cd14  1  0.00000031  0.49999906  0.50000031  1  1.39886  0  0.802813  1.114528  0  2.222963  0
Cd  Cd15  1  0.99999894  0.99999934  0.00000075  1  1.402258  0  0.802775  1.114422  0  2.222976  0
Cd  Cd16  1  0.62500008  0.12500006  0.12499972  1  1.473196  0  0.823456  1.271879  0  1.947989  0
Cd  Cd17  1  0.87500166  0.37500026  0.37499922  1  1.473243  0  0.823667  1.272058  0  1.947722  0
Cd  Cd18  1  0.37500001  0.87499993  0.87500133  1  1.473117  0  0.823591  1.272006  0  1.947792  0
Cd  Cd19  1  0.12500014  0.62499927  0.62500058  1  1.473198  0  0.823605  1.272025  0  1.947787  0
H  H20  1  0.50479614  0.42593131  0.34794229  1  0.089109  0  0.110843  0.103735  0  0.982208  0
H  H21  1  0.27867087  0.49520407  0.07406544  1  0.100671  0  0.110814  0.103657  0  0.982229  0
H  H22  1  0.84794274  0.72132813  0.00479353  1  0.09067  0  0.110819  0.103699  0  0.982235  0
H  H23  1  0.57406659  0.15206162  0.77866840  1  0.076918  0  0.110846  0.103721  0  0.982141  0
H  H24  1  0.92593105  0.00479786  0.72133209  1  0.100695  0  0.110834  0.103697  0  0.982214  0
H  H25  1  0.65205977  0.07406847  0.49520402  1  0.089104  0  0.110844  0.103729  0  0.982185  0
H  H26  1  0.22132856  0.34794184  0.42593264  1  0.076902  0  0.11086  0.103731  0  0.982142  0
H  H27  1  0.99520602  0.77867082  0.15205673  1  0.090678  0  0.110832  0.10373  0  0.982193  0
H  H28  1  0.50479295  0.34794436  0.72132741  1  0.090671  0  0.110828  0.103729  0  0.982232  0
H  H29  1  0.57406770  0.49520510  0.15206014  1  0.089071  0  0.11085  0.103726  0  0.982177  0
H  H30  1  0.22132711  0.42593712  0.00479273  1  0.100618  0  0.110804  0.103675  0  0.982239  0
H  H31  1  0.65205946  0.77866930  0.07406441  1  0.076808  0  0.110862  0.103775  0  0.982119  0
H  H32  1  0.84794329  0.00479478  0.42593192  1  0.089071  0  0.110833  0.103741  0  0.982192  0
H  H33  1  0.27866886  0.15205848  0.49520229  1  0.090765  0  0.110829  0.103679  0  0.982223  0
H  H34  1  0.92593099  0.72133171  0.34794049  1  0.076913  0  0.110826  0.103701  0  0.98218  0
H  H35  1  0.99520292  0.07406670  0.77867416  1  0.100711  0  0.110817  0.103683  0  0.982239  0
H  H36  1  0.50479583  0.72132873  0.42593266  1  0.100662  0  0.110838  0.103715  0  0.982194  0
H  H37  1  0.99520717  0.15205668  0.07406624  1  0.089022  0  0.110851  0.103753  0  0.982175  0
H  H38  1  0.65205627  0.49520593  0.77867316  1  0.09069  0  0.11081  0.103699  0  0.982231  0
H  H39  1  0.57406708  0.77866962  0.49520327  1  0.100685  0  0.110827  0.103689  0  0.982206  0
H  H40  1  0.27867207  0.07406344  0.15205725  1  0.076776  0  0.110813  0.103685  0  0.982199  0
H  H41  1  0.22133116  0.00479517  0.34794069  1  0.090692  0  0.110831  0.103686  0  0.982187  0
H  H42  1  0.92593255  0.34794058  0.00479557  1  0.089102  0  0.110825  0.103707  0  0.982203  0
H  H43  1  0.84794119  0.42593473  0.72132998  1  0.076882  0  0.110829  0.103694  0  0.982153  0
H  H44  1  0.49520329  0.57406802  0.65205810  1  0.089117  0  0.110809  0.103682  0  0.982215  0
H  H45  1  0.72132947  0.50479943  0.92593186  1  0.100734  0  0.110838  0.103712  0  0.982237  0
H  H46  1  0.15205677  0.27867237  0.99520561  1  0.090688  0  0.11083  0.103721  0  0.982221  0
H  H47  1  0.42593221  0.84793816  0.22133283  1  0.076905  0  0.110847  0.103711  0  0.982137  0
H  H48  1  0.07407169  0.99520154  0.27866624  1  0.100701  0  0.110855  0.103722  0  0.98218  0
H  H49  1  0.34794054  0.92593282  0.50479685  1  0.089137  0  0.110831  0.103697  0  0.982208  0
H  H50  1  0.77866762  0.65206074  0.57406775  1  0.076874  0  0.110825  0.103707  0  0.982151  0
H  H51  1  0.00479202  0.22132821  0.84794469  1  0.090648  0  0.110807  0.103691  0  0.982207  0
H  H52  1  0.49520661  0.65205511  0.27867405  1  0.090705  0  0.110807  0.103704  0  0.982197  0
H  H53  1  0.42593185  0.50479651  0.84794051  1  0.089115  0  0.110835  0.103703  0  0.982223  0
H  H54  1  0.77867188  0.57406828  0.99520203  1  0.100711  0  0.110818  0.10369  0  0.982249  0
H  H55  1  0.34793930  0.22133044  0.92593491  1  0.07689  0  0.110819  0.103683  0  0.982172  0
H  H56  1  0.15205708  0.99520549  0.57406659  1  0.089072  0  0.11084  0.103752  0  0.982197  0
H  H57  1  0.72132774  0.84794452  0.50479196  1  0.090647  0  0.110798  0.10366  0  0.982221  0
H  H58  1  0.07406781  0.27866807  0.65206074  1  0.076906  0  0.110824  0.103679  0  0.982172  0
H  H59  1  0.00479694  0.92593415  0.22132627  1  0.100692  0  0.110816  0.103691  0  0.98225  0
H  H60  1  0.49520344  0.27866719  0.57407064  1  0.10065  0  0.110836  0.103695  0  0.982215  0
H  H61  1  0.00479381  0.84794313  0.92593610  1  0.089063  0  0.110815  0.103705  0  0.982202  0
H  H62  1  0.34794428  0.50479128  0.22132954  1  0.090644  0  0.110848  0.103723  0  0.982185  0
H  H63  1  0.42593428  0.22132840  0.50479650  1  0.100657  0  0.110823  0.10373  0  0.982201  0
H  H64  1  0.72133188  0.92593175  0.84794145  1  0.076862  0  0.110825  0.103704  0  0.982143  0
H  H65  1  0.77867339  0.99520821  0.65205584  1  0.090653  0  0.110818  0.103721  0  0.982246  0
H  H66  1  0.07407010  0.65205980  0.99520321  1  0.08909  0  0.110825  0.103692  0  0.982218  0
H  H67  1  0.15205909  0.57406437  0.27866978  1  0.076789  0  0.110812  0.103672  0  0.982148  0
H  H68  1  0.58059553  0.48534201  0.29110279  1  0.086172  0  0.114131  0.106475  0  0.969911  0
H  H69  1  0.35704224  0.41940588  0.01465309  1  0.089447  0  0.114134  0.106464  0  0.969798  0
H  H70  1  0.79110156  0.64295875  0.08059444  1  0.08078  0  0.114119  0.106459  0  0.969851  0
H  H71  1  0.51465340  0.20889894  0.85704106  1  0.087518  0  0.11415  0.106499  0  0.96981  0
H  H72  1  0.98534166  0.08059742  0.64296388  1  0.089514  0  0.114106  0.106441  0  0.969912  0
H  H73  1  0.70890005  0.01465716  0.41940525  1  0.086028  0  0.114121  0.106487  0  0.96987  0
H  H74  1  0.14296228  0.29109807  0.48534113  1  0.087597  0  0.114132  0.106465  0  0.969863  0
H  H75  1  0.91940190  0.85703841  0.20889945  1  0.080441  0  0.114107  0.106429  0  0.969956  0
H  H76  1  0.58059777  0.29110012  0.64296199  1  0.080435  0  0.114147  0.106498  0  0.969862  0
H  H77  1  0.51465961  0.41940371  0.20889902  1  0.08606  0  0.114114  0.106434  0  0.969949  0
H  H78  1  0.14296223  0.48534213  0.08059704  1  0.089519  0  0.114109  0.106433  0  0.969903  0
H  H79  1  0.70889972  0.85703886  0.01465485  1  0.087562  0  0.114116  0.106466  0  0.969856  0
H  H80  1  0.79110405  0.08059490  0.48534219  1  0.086153  0  0.114123  0.10647  0  0.969946  0
H  H81  1  0.35704052  0.20889788  0.41940351  1  0.080456  0  0.114132  0.106478  0  0.969854  0
H  H82  1  0.98534371  0.64295936  0.29110263  1  0.087561  0  0.114106  0.106448  0  0.96995  0
H  H83  1  0.91940048  0.01465837  0.85704298  1  0.089479  0  0.114146  0.106514  0  0.969825  0
H  H84  1  0.58059708  0.64295941  0.48534110  1  0.089519  0  0.114127  0.106459  0  0.969915  0
H  H85  1  0.91940486  0.20890009  0.01465874  1  0.086058  0  0.114118  0.106451  0  0.969955  0
H  H86  1  0.70889693  0.41940515  0.85704265  1  0.080884  0  0.114132  0.106475  0  0.969836  0
H  H87  1  0.51465832  0.85703828  0.41940169  1  0.089502  0  0.114116  0.106451  0  0.969876  0
H  H88  1  0.35704143  0.01465541  0.20889793  1  0.08755  0  0.114121  0.10647  0  0.969869  0
H  H89  1  0.14296133  0.08059590  0.29109974  1  0.080383  0  0.11411  0.106455  0  0.969858  0
H  H90  1  0.98534479  0.29110458  0.08059234  1  0.086104  0  0.114164  0.1065  0  0.969906  0
H  H91  1  0.79109843  0.48534564  0.64296182  1  0.087575  0  0.114137  0.106489  0  0.969822  0
H  H92  1  0.41940372  0.51465714  0.70889929  1  0.086106  0  0.114123  0.106461  0  0.969891  0
H  H93  1  0.64295851  0.58059801  0.98534274  1  0.089506  0  0.114128  0.106476  0  0.969875  0
H  H94  1  0.20889710  0.35704197  0.91940532  1  0.080888  0  0.114116  0.106457  0  0.969878  0
H  H95  1  0.48534478  0.79109914  0.14296183  1  0.087573  0  0.114131  0.106468  0  0.969867  0
H  H96  1  0.01465805  0.91940544  0.35703934  1  0.08957  0  0.11411  0.106441  0  0.969948  0
H  H97  1  0.29109895  0.98534391  0.58059580  1  0.086095  0  0.114116  0.106474  0  0.96987  0
H  H98  1  0.85704054  0.70889924  0.51465525  1  0.087576  0  0.114122  0.106466  0  0.969812  0
H  H99  1  0.08059601  0.14296048  0.79110090  1  0.080594  0  0.114132  0.106487  0  0.969843  0
H  H100  1  0.41940224  0.70889871  0.35704031  1  0.080662  0  0.114127  0.106461  0  0.969869  0
H  H101  1  0.48534111  0.58059691  0.79110078  1  0.086124  0  0.114116  0.106435  0  0.969929  0
H  H102  1  0.85703725  0.51466267  0.91940048  1  0.089598  0  0.11415  0.106483  0  0.969883  0
H  H103  1  0.29109849  0.14296143  0.98534447  1  0.087575  0  0.114118  0.106466  0  0.969868  0
H  H104  1  0.20889730  0.91940528  0.51465676  1  0.086117  0  0.114115  0.10645  0  0.969957  0
H  H105  1  0.64296050  0.79109979  0.58059496  1  0.080749  0  0.114127  0.10647  0  0.969829  0
H  H106  1  0.01465467  0.35704109  0.70889967  1  0.087543  0  0.114111  0.10644  0  0.96987  0
H  H107  1  0.08060204  0.98533865  0.14296061  1  0.08954  0  0.114144  0.1065  0  0.969871  0
H  H108  1  0.41940610  0.35704151  0.51465726  1  0.089545  0  0.114124  0.106456  0  0.969946  0
H  H109  1  0.08059815  0.79109849  0.98534212  1  0.086016  0  0.11412  0.106454  0  0.969869  0
H  H110  1  0.29110074  0.58059351  0.14296215  1  0.080609  0  0.114119  0.106474  0  0.969894  0
H  H111  1  0.48533952  0.14296271  0.58060061  1  0.089526  0  0.114139  0.106492  0  0.969862  0
H  H112  1  0.64295739  0.98534656  0.79110440  1  0.087518  0  0.114151  0.106475  0  0.969857  0
H  H113  1  0.85703909  0.91940226  0.70890150  1  0.080377  0  0.114119  0.106474  0  0.969862  0
H  H114  1  0.01465475  0.70889703  0.91940831  1  0.086127  0  0.114137  0.106467  0  0.969901  0
H  H115  1  0.20889889  0.51465267  0.35704169  1  0.087522  0  0.114145  0.106474  0  0.969814  0
H  H116  1  0.75257778  0.21671864  0.97532304  1  0.643365  0  0.299449  0.4029  0  0.918749  0
H  H117  1  0.94461852  0.24742166  0.28328130  1  0.645507  0  0.299439  0.402899  0  0.918776  0
H  H118  1  0.47532581  0.05537837  0.25257810  1  0.649144  0  0.299448  0.402842  0  0.918823  0
H  H119  1  0.78328224  0.52468217  0.44461497  1  0.642651  0  0.29946  0.402929  0  0.918712  0
H  H120  1  0.71671907  0.25257702  0.05538161  1  0.645374  0  0.299446  0.402902  0  0.918777  0
H  H121  1  0.02467591  0.28328279  0.24742147  1  0.643401  0  0.299488  0.402966  0  0.918695  0
H  H122  1  0.55538307  0.97532044  0.21671721  1  0.642673  0  0.299472  0.402934  0  0.918715  0
H  H123  1  0.74742333  0.44462269  0.52467178  1  0.649179  0  0.299422  0.402824  0  0.918865  0
H  H124  1  0.75258035  0.97531822  0.05538308  1  0.64904  0  0.299437  0.402897  0  0.91881  0
H  H125  1  0.78328292  0.24742468  0.52467537  1  0.643298  0  0.299458  0.402913  0  0.918752  0
H  H126  1  0.55538378  0.21671713  0.25257723  1  0.645385  0  0.299459  0.402977  0  0.918695  0
H  H127  1  0.02467889  0.44461819  0.28328129  1  0.642642  0  0.29948  0.402952  0  0.918683  0
H  H128  1  0.47532698  0.25257726  0.21671622  1  0.643464  0  0.299454  0.402924  0  0.918733  0
H  H129  1  0.94462081  0.52467565  0.24742101  1  0.649108  0  0.299496  0.402944  0  0.918721  0
H  H130  1  0.71671741  0.05537923  0.97532725  1  0.642671  0  0.299448  0.402884  0  0.918736  0
H  H131  1  0.74742142  0.28328184  0.44461876  1  0.645412  0  0.299466  0.402944  0  0.918703  0
H  H132  1  0.75257706  0.05537966  0.21671802  1  0.645484  0  0.29948  0.40291  0  0.918766  0
H  H133  1  0.74742309  0.52467520  0.28328182  1  0.643352  0  0.29946  0.402945  0  0.918704  0
H  H134  1  0.02467782  0.24741838  0.44462108  1  0.649078  0  0.299461  0.402897  0  0.918768  0
H  H135  1  0.78328208  0.44461710  0.24742249  1  0.645381  0  0.29946  0.402977  0  0.918678  0
H  H136  1  0.94461831  0.28328370  0.52467512  1  0.642678  0  0.29949  0.402947  0  0.918704  0
H  H137  1  0.55538130  0.25257935  0.97532217  1  0.649077  0  0.299493  0.402928  0  0.918737  0
H  H138  1  0.71671831  0.97532048  0.25257934  1  0.64326  0  0.299446  0.402893  0  0.918774  0
H  H139  1  0.47532354  0.21671812  0.05538017  1  0.64262  0  0.299508  0.40296  0  0.918653  0
H  H140  1  0.24742370  0.78328058  0.02467738  1  0.643303  0  0.299427  0.402889  0  0.918773  0
H  H141  1  0.05538673  0.75257700  0.71671792  1  0.645471  0  0.299494  0.402954  0  0.918687  0
H  H142  1  0.52467674  0.94461759  0.74742122  1  0.649076  0  0.299463  0.402971  0  0.918677  0
H  H143  1  0.21671638  0.47531636  0.55538836  1  0.642631  0  0.299474  0.402943  0  0.918695  0
H  H144  1  0.28328155  0.74742351  0.94461904  1  0.645399  0  0.299469  0.403003  0  0.91866  0
H  H145  1  0.97532587  0.71671997  0.75257712  1  0.643458  0  0.299489  0.402921  0  0.91873  0
H  H146  1  0.44462077  0.02467573  0.78328193  1  0.642636  0  0.299434  0.402952  0  0.918733  0
H  H147  1  0.25257732  0.55537354  0.47533049  1  0.64921  0  0.299455  0.402913  0  0.918762  0
H  H148  1  0.24741845  0.02468049  0.94461855  1  0.649023  0  0.299464  0.402901  0  0.918791  0
H  H149  1  0.21671911  0.75257401  0.47532506  1  0.643506  0  0.299476  0.402959  0  0.918717  0
H  H150  1  0.44461402  0.78328382  0.74742316  1  0.645419  0  0.299465  0.402994  0  0.918661  0
H  H151  1  0.97532038  0.55538531  0.71671642  1  0.64255  0  0.299424  0.402946  0  0.918737  0
H  H152  1  0.52467294  0.74742364  0.78328144  1  0.643477  0  0.299451  0.402925  0  0.918712  0
H  H153  1  0.05537505  0.47532769  0.75257960  1  0.649109  0  0.29943  0.40291  0  0.918754  0
H  H154  1  0.28328268  0.94462077  0.02467380  1  0.642609  0  0.29943  0.402794  0  0.918853  0
H  H155  1  0.25257890  0.71671838  0.55538251  1  0.645799  0  0.299429  0.402918  0  0.91873  0
H  H156  1  0.24742291  0.94462020  0.78328197  1  0.645519  0  0.299454  0.402914  0  0.91874  0
H  H157  1  0.25257916  0.47531829  0.71671894  1  0.643279  0  0.299448  0.40289  0  0.918791  0
H  H158  1  0.97532676  0.75258069  0.55537707  1  0.649132  0  0.299462  0.402988  0  0.918654  0
H  H159  1  0.21671711  0.55537875  0.75257698  1  0.645531  0  0.299477  0.402926  0  0.918727  0
H  H160  1  0.05538398  0.71671741  0.47532196  1  0.642601  0  0.299434  0.40296  0  0.918703  0
H  H161  1  0.44462029  0.74741782  0.02467822  1  0.649054  0  0.299488  0.402934  0  0.918732  0
H  H162  1  0.28328147  0.02467920  0.74742233  1  0.64331  0  0.299427  0.402867  0  0.918805  0
H  H163  1  0.52467547  0.78328296  0.94462088  1  0.642677  0  0.299509  0.402962  0  0.918678  0
C  C164  1  0.62018254  0.35941026  0.38892601  1  1.635119  0  0.221533  0.632716  0  4.161712  0
C  C165  1  0.36852540  0.37982584  0.14058182  1  1.623458  0  0.221597  0.632681  0  4.161861  0
C  C166  1  0.88893275  0.63147818  0.12017580  1  1.621185  0  0.221658  0.632844  0  4.161641  0
C  C167  1  0.64058819  0.11107399  0.86852045  1  1.620823  0  0.221529  0.632721  0  4.161709  0
C  C168  1  0.85941180  0.12017966  0.63147955  1  1.62301  0  0.221525  0.632763  0  4.161857  0
C  C169  1  0.61107527  0.14059001  0.37981732  1  1.634647  0  0.221485  0.632673  0  4.161799  0
C  C170  1  0.13147895  0.38893100  0.35941168  1  1.620681  0  0.221582  0.632712  0  4.161791  0
C  C171  1  0.87982469  0.86852112  0.11106534  1  1.621229  0  0.221613  0.632764  0  4.161756  0
C  C172  1  0.62017883  0.38893217  0.63147967  1  1.621203  0  0.2215  0.632701  0  4.161881  0
C  C173  1  0.64058846  0.37982365  0.11106763  1  1.634902  0  0.221536  0.632674  0  4.161832  0
C  C174  1  0.13147768  0.35941386  0.12017508  1  1.62336  0  0.221591  0.632722  0  4.161883  0
C  C175  1  0.61106840  0.86852156  0.14058471  1  1.620744  0  0.22157  0.6327  0  4.16187  0
C  C176  1  0.88893248  0.12017803  0.35941145  1  1.634381  0  0.221651  0.6329  0  4.161606  0
C  C177  1  0.36852169  0.11106918  0.37982096  1  1.62117  0  0.221571  0.632788  0  4.161737  0
C  C178  1  0.85941190  0.63147856  0.38892979  1  1.620753  0  0.221636  0.632852  0  4.161644  0
C  C179  1  0.87982028  0.14058833  0.86852265  1  1.623645  0  0.221616  0.632854  0  4.16172  0
C  C180  1  0.62017553  0.63147673  0.35941279  1  1.623261  0  0.221673  0.632828  0  4.161734  0
C  C181  1  0.87982575  0.11106573  0.14058670  1  1.634626  0  0.221575  0.632662  0  4.161946  0
C  C182  1  0.61106847  0.37982084  0.86852136  1  1.621246  0  0.221592  0.632779  0  4.161739  0
C  C183  1  0.64058635  0.86852075  0.37982257  1  1.622918  0  0.221558  0.632715  0  4.161816  0
C  C184  1  0.36852286  0.14058593  0.11106755  1  1.620781  0  0.221583  0.632749  0  4.161782  0
C  C185  1  0.13147970  0.12017653  0.38893137  1  1.621167  0  0.221528  0.63259  0  4.161867  0
C  C186  1  0.85940854  0.38892702  0.12018287  1  1.634881  0  0.22159  0.632821  0  4.161636  0
C  C187  1  0.88892428  0.35941274  0.63148211  1  1.620634  0  0.221513  0.632707  0  4.161659  0
C  C188  1  0.37981535  0.64059186  0.61107313  1  1.634949  0  0.221587  0.632873  0  4.161608  0
C  C189  1  0.63147504  0.62017668  0.85941504  1  1.623442  0  0.221652  0.632767  0  4.161797  0
C  C190  1  0.11106455  0.36852443  0.87982610  1  1.621019  0  0.221608  0.632748  0  4.161823  0
C  C191  1  0.35940968  0.88892270  0.13148347  1  1.620646  0  0.221487  0.632708  0  4.161853  0
C  C192  1  0.14058743  0.87982272  0.36852132  1  1.623354  0  0.221584  0.632728  0  4.161894  0
C  C193  1  0.38892458  0.85941191  0.62018271  1  1.634537  0  0.221541  0.632691  0  4.16175  0
C  C194  1  0.86851999  0.61107000  0.64058554  1  1.620694  0  0.221485  0.632564  0  4.161944  0
C  C195  1  0.12017217  0.13147456  0.88893663  1  1.62104  0  0.221546  0.632661  0  4.1619  0
C  C196  1  0.37981955  0.61106828  0.36852263  1  1.62102  0  0.221647  0.632947  0  4.161567  0
C  C197  1  0.35941018  0.62017922  0.88893133  1  1.634915  0  0.22153  0.632714  0  4.161942  0
C  C198  1  0.86851944  0.64058966  0.87982343  1  1.623  0  0.221507  0.632523  0  4.162037  0
C  C199  1  0.38892961  0.13148069  0.85941549  1  1.620826  0  0.221533  0.632541  0  4.161986  0
C  C200  1  0.11106824  0.87982151  0.64058875  1  1.634354  0  0.221612  0.632869  0  4.161647  0
C  C201  1  0.63147378  0.88893485  0.62017604  1  1.620911  0  0.221712  0.632956  0  4.161487  0
C  C202  1  0.14058707  0.36852248  0.61106935  1  1.620754  0  0.221631  0.632905  0  4.161639  0
C  C203  1  0.12018262  0.85940690  0.13147837  1  1.623665  0  0.221576  0.632847  0  4.161859  0
C  C204  1  0.37982678  0.36852222  0.64058510  1  1.623059  0  0.221601  0.632699  0  4.161855  0
C  C205  1  0.12017754  0.88893313  0.85941163  1  1.634424  0  0.221581  0.632768  0  4.161686  0
C  C206  1  0.38892862  0.62017940  0.13148112  1  1.621185  0  0.221544  0.6327  0  4.161716  0
C  C207  1  0.35940998  0.13147874  0.62018009  1  1.623218  0  0.221582  0.63286  0  4.161812  0
C  C208  1  0.63147806  0.85941273  0.88893136  1  1.6207  0  0.221511  0.632585  0  4.161939  0
C  C209  1  0.86852420  0.87982403  0.61106531  1  1.621051  0  0.2217  0.632959  0  4.161537  0
C  C210  1  0.14058957  0.61107532  0.87981649  1  1.634618  0  0.221512  0.632682  0  4.161714  0
C  C211  1  0.11107635  0.64058778  0.36851854  1  1.62064  0  0.221442  0.632647  0  4.161549  0
C  C212  1  0.57564269  0.41887199  0.31802761  1  0.38152  0  -0.061692  -0.118791  0  3.880855  0
C  C213  1  0.31254475  0.42435634  0.08112398  1  0.37588  0  -0.061645  -0.118676  0  3.880517  0
C  C214  1  0.81802778  0.68745721  0.07563994  1  0.40234  0  -0.061655  -0.118748  0  3.880596  0
C  C215  1  0.58112401  0.18197665  0.81254303  1  0.408125  0  -0.061622  -0.118755  0  3.880536  0
C  C216  1  0.91887287  0.07564459  0.68745955  1  0.376253  0  -0.06159  -0.118619  0  3.880656  0
C  C217  1  0.68197510  0.08112627  0.42435778  1  0.382172  0  -0.061599  -0.118705  0  3.880601  0
C  C218  1  0.18745869  0.31802564  0.41887161  1  0.40809  0  -0.061701  -0.118714  0  3.880572  0
C  C219  1  0.92435804  0.81254111  0.18197244  1  0.402779  0  -0.061701  -0.118803  0  3.880749  0
C  C220  1  0.57564046  0.31802844  0.68745845  1  0.402759  0  -0.061625  -0.118725  0  3.880566  0
C  C221  1  0.58112768  0.42435800  0.18197399  1  0.382188  0  -0.061664  -0.118672  0  3.880675  0
C  C222  1  0.18745816  0.41887294  0.07564103  1  0.375966  0  -0.0616  -0.118593  0  3.880553  0
C  C223  1  0.68197448  0.81254142  0.08112503  1  0.408135  0  -0.06166  -0.118784  0  3.880612  0
C  C224  1  0.81802892  0.07564068  0.41887298  1  0.382135  0  -0.061667  -0.118827  0  3.880732  0
C  C225  1  0.31254340  0.18197390  0.42435510  1  0.402725  0  -0.061693  -0.118755  0  3.880712  0
C  C226  1  0.91887360  0.68745755  0.31802496  1  0.408129  0  -0.061622  -0.118751  0  3.880683  0
C  C227  1  0.92435530  0.08112711  0.81254543  1  0.375958  0  -0.061689  -0.118777  0  3.880653  0
C  C228  1  0.57564342  0.68745589  0.41887182  1  0.375895  0  -0.061694  -0.118727  0  3.880697  0
C  C229  1  0.92435978  0.18197271  0.08112708  1  0.382278  0  -0.061664  -0.118741  0  3.88071  0
C  C230  1  0.68197198  0.42435922  0.81254343  1  0.402237  0  -0.061665  -0.11881  0  3.880636  0
C  C231  1  0.58112693  0.81254186  0.42435537  1  0.376248  0  -0.061653  -0.118684  0  3.880659  0
C  C232  1  0.31254351  0.08112583  0.18197113  1  0.408205  0  -0.061679  -0.118744  0  3.880667  0
C  C233  1  0.18745893  0.07564235  0.31802447  1  0.402782  0  -0.061618  -0.118648  0  3.88057  0
C  C234  1  0.91887495  0.31802653  0.07564162  1  0.381843  0  -0.061669  -0.118818  0  3.880721  0
C  C235  1  0.81802469  0.41887569  0.68745847  1  0.408225  0  -0.061579  -0.118674  0  3.88055  0
C  C236  1  0.42435719  0.58112671  0.68197363  1  0.381591  0  -0.061656  -0.118753  0  3.880648  0
C  C237  1  0.68745515  0.57564671  0.91887288  1  0.375723  0  -0.061703  -0.118791  0  3.880715  0
C  C238  1  0.18197150  0.31254414  0.92435857  1  0.402241  0  -0.061681  -0.118786  0  3.880699  0
C  C239  1  0.41887501  0.81802228  0.18745883  1  0.408238  0  -0.061601  -0.118678  0  3.880578  0
C  C240  1  0.08112853  0.92435455  0.31254173  1  0.375792  0  -0.061655  -0.118685  0  3.880748  0
C  C241  1  0.31802392  0.91887373  0.57564367  1  0.382168  0  -0.061616  -0.118694  0  3.880662  0
C  C242  1  0.81254005  0.68197625  0.58112690  1  0.408125  0  -0.061611  -0.118706  0  3.88059  0
C  C243  1  0.07564032  0.18745715  0.81802876  1  0.402545  0  -0.06166  -0.118727  0  3.880571  0
C  C244  1  0.42435815  0.68197116  0.31254448  1  0.402476  0  -0.061664  -0.118786  0  3.880604  0
C  C245  1  0.41887281  0.57564348  0.81802519  1  0.381879  0  -0.061646  -0.118655  0  3.880632  0
C  C246  1  0.81254107  0.58113159  0.92435436  1  0.376068  0  -0.061681  -0.118706  0  3.880745  0
C  C247  1  0.31802396  0.18745909  0.91887451  1  0.408029  0  -0.061613  -0.118675  0  3.880655  0
C  C248  1  0.18197212  0.92435918  0.58112660  1  0.382179  0  -0.061654  -0.118794  0  3.880712  0
C  C249  1  0.68745570  0.81802944  0.57563963  1  0.402363  0  -0.061651  -0.118708  0  3.880479  0
C  C250  1  0.08112573  0.31254276  0.68197587  1  0.408129  0  -0.061663  -0.118739  0  3.880606  0
C  C251  1  0.07564386  0.91887088  0.18745790  1  0.376121  0  -0.061687  -0.118757  0  3.880666  0
C  C252  1  0.42435674  0.31254309  0.58112688  1  0.375741  0  -0.061677  -0.118726  0  3.880775  0
C  C253  1  0.07564138  0.81802728  0.91887356  1  0.38226  0  -0.061628  -0.118667  0  3.880501  0
C  C254  1  0.31802704  0.57563971  0.18745843  1  0.402577  0  -0.061627  -0.118754  0  3.880592  0
C  C255  1  0.41887137  0.18745960  0.57564270  1  0.376381  0  -0.061714  -0.118821  0  3.880648  0
C  C256  1  0.68745756  0.91887623  0.81802489  1  0.40811  0  -0.061662  -0.118746  0  3.880502  0
C  C257  1  0.81254237  0.92435993  0.68197176  1  0.402771  0  -0.06169  -0.118831  0  3.880595  0
C  C258  1  0.08112544  0.68197485  0.92435840  1  0.382063  0  -0.061589  -0.118685  0  3.880643  0
C  C259  1  0.18197497  0.58112279  0.31254254  1  0.408335  0  -0.061594  -0.118678  0  3.880494  0
O  O260  1  0.58676727  0.37606224  0.45956559  1  -1.18407  0  -0.32577  -0.580074  0  2.315316  0
O  O261  1  0.42239564  0.41322909  0.12393469  1  -1.182571  0  -0.325676  -0.579901  0  2.315986  0
O  O262  1  0.95956455  0.57760556  0.08676741  1  -1.190012  0  -0.325752  -0.580081  0  2.315784  0
O  O263  1  0.62393520  0.04043674  0.92239619  1  -1.189232  0  -0.325824  -0.580164  0  2.315425  0
O  O264  1  0.87606560  0.08677159  0.57760356  1  -1.182398  0  -0.325777  -0.580141  0  2.315642  0
O  O265  1  0.54043607  0.12393598  0.41323350  1  -1.184071  0  -0.325764  -0.58009  0  2.315431  0
O  O266  1  0.07760379  0.45956030  0.37606469  1  -1.189287  0  -0.325719  -0.579985  0  2.315831  0
O  O267  1  0.91323233  0.92239483  0.04043528  1  -1.190065  0  -0.325755  -0.580052  0  2.315872  0
O  O268  1  0.58676878  0.45956488  0.57760461  1  -1.189988  0  -0.325738  -0.580052  0  2.315694  0
O  O269  1  0.62393897  0.41323270  0.04043646  1  -1.184437  0  -0.325694  -0.579987  0  2.315798  0
O  O270  1  0.07760478  0.37606330  0.08677028  1  -1.182463  0  -0.325787  -0.580089  0  2.315853  0
O  O271  1  0.54043778  0.92239316  0.12393668  1  -1.189377  0  -0.325734  -0.579999  0  2.315918  0
O  O272  1  0.95956601  0.08676562  0.37606333  1  -1.184012  0  -0.325796  -0.580145  0  2.315684  0
O  O273  1  0.42239644  0.04043626  0.41323088  1  -1.189968  0  -0.325721  -0.580024  0  2.315723  0
O  O274  1  0.87606295  0.57760503  0.45956325  1  -1.189334  0  -0.325748  -0.580084  0  2.315649  0
O  O275  1  0.91322902  0.12393639  0.92239807  1  -1.182383  0  -0.325792  -0.580099  0  2.315655  0
O  O276  1  0.58677208  0.57760285  0.37606176  1  -1.182501  0  -0.325769  -0.580033  0  2.315847  0
O  O277  1  0.91323184  0.04043769  0.12393823  1  -1.184156  0  -0.325727  -0.579967  0  2.316  0
O  O278  1  0.54043429  0.41323264  0.92239556  1  -1.189992  0  -0.325782  -0.580118  0  2.315681  0
O  O279  1  0.62393367  0.92239703  0.41322927  1  -1.182368  0  -0.325736  -0.579991  0  2.315747  0
O  O280  1  0.42239506  0.12393790  0.04043499  1  -1.189437  0  -0.325809  -0.580148  0  2.315787  0
O  O281  1  0.07760436  0.08676929  0.45956267  1  -1.189975  0  -0.325768  -0.58004  0  2.315779  0
O  O282  1  0.87606154  0.45956537  0.08676664  1  -1.184096  0  -0.325778  -0.580144  0  2.315402  0
O  O283  1  0.95956386  0.37606498  0.57760344  1  -1.189192  0  -0.325778  -0.580109  0  2.315377  0
O  O284  1  0.41323280  0.62393557  0.54043436  1  -1.183945  0  -0.325895  -0.580305  0  2.315217  0
O  O285  1  0.57760185  0.58677156  0.87606632  1  -1.18249  0  -0.32576  -0.579994  0  2.315863  0
O  O286  1  0.04043656  0.42239653  0.91323052  1  -1.189938  0  -0.325753  -0.580015  0  2.315949  0
O  O287  1  0.37606500  0.95956120  0.07760483  1  -1.189111  0  -0.325762  -0.580094  0  2.315342  0
O  O288  1  0.12393650  0.91323041  0.42239481  1  -1.182407  0  -0.325717  -0.579975  0  2.315802  0
O  O289  1  0.45956316  0.87606532  0.58676777  1  -1.18407  0  -0.325782  -0.580081  0  2.315369  0
O  O290  1  0.92239177  0.54044058  0.62393735  1  -1.189202  0  -0.325708  -0.579962  0  2.315841  0
O  O291  1  0.08676996  0.07760520  0.95956220  1  -1.189981  0  -0.325729  -0.579984  0  2.315976  0
O  O292  1  0.41323208  0.54043372  0.42239707  1  -1.189788  0  -0.325839  -0.580201  0  2.315565  0
O  O293  1  0.37606228  0.58676845  0.95956293  1  -1.184142  0  -0.325733  -0.580031  0  2.315746  0
O  O294  1  0.92239311  0.62393882  0.91322886  1  -1.182391  0  -0.325703  -0.57995  0  2.315921  0
O  O295  1  0.45955993  0.07760770  0.87606456  1  -1.189281  0  -0.325708  -0.579923  0  2.315891  0
O  O296  1  0.04043472  0.91323393  0.62393687  1  -1.18398  0  -0.325786  -0.580147  0  2.315671  0
O  O297  1  0.57759961  0.95956619  0.58676844  1  -1.189979  0  -0.325889  -0.580231  0  2.315724  0
O  O298  1  0.12393637  0.42239636  0.54043718  1  -1.189379  0  -0.325752  -0.580094  0  2.315688  0
O  O299  1  0.08677064  0.87606209  0.07760295  1  -1.182344  0  -0.325786  -0.580112  0  2.31562  0
O  O300  1  0.41323154  0.42239417  0.62393675  1  -1.182351  0  -0.325738  -0.57999  0  2.315946  0
O  O301  1  0.08676868  0.95956383  0.87606286  1  -1.183974  0  -0.32575  -0.580055  0  2.315751  0
O  O302  1  0.45956436  0.58676808  0.07760421  1  -1.189954  0  -0.325747  -0.580071  0  2.315555  0
O  O303  1  0.37606387  0.07760474  0.58676858  1  -1.182367  0  -0.325774  -0.580122  0  2.315714  0
O  O304  1  0.57760666  0.87606156  0.95956099  1  -1.189284  0  -0.325697  -0.579956  0  2.315929  0
O  O305  1  0.92239798  0.91322971  0.54043713  1  -1.189926  0  -0.325866  -0.580188  0  2.315717  0
O  O306  1  0.12393559  0.54043600  0.91323268  1  -1.184125  0  -0.325802  -0.580148  0  2.31536  0
O  O307  1  0.04043329  0.62393424  0.42239669  1  -1.189262  0  -0.325846  -0.580207  0  2.315131  0
O  O308  1  0.68996672  0.29387890  0.37353656  1  -1.193459  0  -0.384594  -0.636765  0  2.29784  0
O  O309  1  0.35738283  0.31003181  0.20611947  1  -1.19234  0  -0.384757  -0.636915  0  2.297443  0
O  O310  1  0.87353664  0.64261733  0.18996540  1  -1.184526  0  -0.384736  -0.636916  0  2.297581  0
O  O311  1  0.70611594  0.12646424  0.85738416  1  -1.183931  0  -0.384663  -0.636807  0  2.297812  0
O  O312  1  0.79387960  0.18996519  0.64261913  1  -1.192506  0  -0.384714  -0.636969  0  2.297742  0
O  O313  1  0.62646362  0.20611819  0.31003551  1  -1.193466  0  -0.384652  -0.636849  0  2.297958  0
O  O314  1  0.14261979  0.37353659  0.29387633  1  -1.183757  0  -0.384727  -0.636938  0  2.297555  0
O  O315  1  0.81003741  0.85737863  0.12646173  1  -1.184566  0  -0.384653  -0.636819  0  2.297597  0
O  O316  1  0.68996146  0.37354018  0.64261973  1  -1.184621  0  -0.384591  -0.636809  0  2.297824  0
O  O317  1  0.70612308  0.31003623  0.12646092  1  -1.193353  0  -0.384717  -0.636935  0  2.29759  0
O  O318  1  0.14261973  0.29387765  0.18996530  1  -1.192435  0  -0.384699  -0.636912  0  2.297548  0
O  O319  1  0.62646535  0.85738117  0.20611971  1  -1.183678  0  -0.384738  -0.636981  0  2.297597  0
O  O320  1  0.87353879  0.18996448  0.29388090  1  -1.193335  0  -0.384696  -0.636906  0  2.297674  0
O  O321  1  0.35738368  0.12646203  0.31003216  1  -1.184614  0  -0.384699  -0.636917  0  2.297575  0
O  O322  1  0.79388179  0.64261577  0.37353573  1  -1.183804  0  -0.384746  -0.636931  0  2.297723  0
O  O323  1  0.81003429  0.20612113  0.85738305  1  -1.192873  0  -0.384665  -0.636892  0  2.297674  0
O  O324  1  0.68996804  0.64261793  0.29387467  1  -1.192334  0  -0.384737  -0.636954  0  2.297484  0
O  O325  1  0.81003467  0.12646340  0.20612062  1  -1.193279  0  -0.384675  -0.63688  0  2.297636  0
O  O326  1  0.62646261  0.31003588  0.85738408  1  -1.184612  0  -0.384664  -0.636823  0  2.29779  0
O  O327  1  0.70612122  0.85738066  0.31003366  1  -1.192445  0  -0.384721  -0.636927  0  2.297536  0
O  O328  1  0.35738355  0.20612061  0.12646186  1  -1.183746  0  -0.384665  -0.636864  0  2.297665  0
O  O329  1  0.14262190  0.18996372  0.37353475  1  -1.184521  0  -0.38467  -0.636816  0  2.297603  0
O  O330  1  0.79388208  0.37353701  0.18996467  1  -1.193427  0  -0.38465  -0.636812  0  2.297963  0
O  O331  1  0.87353452  0.29388313  0.64261774  1  -1.183913  0  -0.384657  -0.636819  0  2.297765  0
O  O332  1  0.31003623  0.70611746  0.62646129  1  -1.193449  0  -0.384565  -0.636741  0  2.298015  0
O  O333  1  0.64261868  0.68996636  0.79387669  1  -1.192371  0  -0.384718  -0.636894  0  2.297461  0
O  O334  1  0.12646234  0.35738156  0.81003454  1  -1.184491  0  -0.3847  -0.636917  0  2.297519  0
O  O335  1  0.29388290  0.87353450  0.14261939  1  -1.183989  0  -0.384646  -0.636839  0  2.298025  0
O  O336  1  0.20612180  0.81003287  0.35738255  1  -1.192481  0  -0.384667  -0.636858  0  2.297561  0
O  O337  1  0.37353606  0.79388248  0.68996661  1  -1.193417  0  -0.384673  -0.636861  0  2.297899  0
O  O338  1  0.85737984  0.62646512  0.70612348  1  -1.183798  0  -0.384715  -0.636846  0  2.297498  0
O  O339  1  0.18996678  0.14261897  0.87353830  1  -1.184425  0  -0.384712  -0.636947  0  2.29746  0
O  O340  1  0.31003621  0.62645956  0.35738467  1  -1.184648  0  -0.38469  -0.636931  0  2.297687  0
O  O341  1  0.29387880  0.68996447  0.87353763  1  -1.193459  0  -0.384664  -0.636924  0  2.297777  0
O  O342  1  0.85737823  0.70612779  0.81003178  1  -1.192381  0  -0.384657  -0.636755  0  2.29755  0
O  O343  1  0.37353414  0.14262148  0.79387862  1  -1.183824  0  -0.384709  -0.636813  0  2.297561  0
O  O344  1  0.12646105  0.81003418  0.70611842  1  -1.193326  0  -0.384668  -0.636905  0  2.297717  0
O  O345  1  0.64261395  0.87353876  0.68996525  1  -1.184332  0  -0.384735  -0.637032  0  2.297465  0
O  O346  1  0.20611746  0.35738338  0.62646635  1  -1.183727  0  -0.384754  -0.63701  0  2.297677  0
O  O347  1  0.18996289  0.79387921  0.14261859  1  -1.193109  0  -0.384644  -0.636896  0  2.297857  0
O  O348  1  0.31003404  0.35738081  0.70612300  1  -1.192173  0  -0.38469  -0.636856  0  2.297487  0
O  O349  1  0.18996519  0.87353745  0.79387981  1  -1.193403  0  -0.384731  -0.636982  0  2.297603  0
O  O350  1  0.37353695  0.68996358  0.14261738  1  -1.184626  0  -0.384664  -0.636831  0  2.297825  0
O  O351  1  0.29388010  0.14261840  0.68996379  1  -1.192841  0  -0.384686  -0.63696  0  2.297772  0
O  O352  1  0.64261967  0.79388144  0.87353335  1  -1.183759  0  -0.384719  -0.636836  0  2.297688  0
O  O353  1  0.85738093  0.81003577  0.62646273  1  -1.184497  0  -0.384749  -0.637072  0  2.297577  0
O  O354  1  0.20611640  0.62646354  0.81003679  1  -1.193377  0  -0.384605  -0.636716  0  2.297988  0
O  O355  1  0.12646313  0.70611335  0.35738595  1  -1.183902  0  -0.384519  -0.636651  0  2.297861  0
O  O356  1  0.61937427  0.38062693  0.25000040  1  -1.083479  0  -0.281327  -0.260811  0  2.771077  0
O  O357  1  0.25000349  0.38062564  0.11936774  1  -1.086552  0  -0.281396  -0.260837  0  2.771012  0
O  O358  1  0.75000060  0.74999935  0.11937047  1  -1.096379  0  -0.281367  -0.26079  0  2.771117  0
O  O359  1  0.61936828  0.25000412  0.75000362  1  -1.096464  0  -0.281399  -0.260792  0  2.771085  0
O  O360  1  0.88062611  0.11937449  0.75000186  1  -1.086519  0  -0.28132  -0.26082  0  2.771057  0
O  O361  1  0.75000201  0.11937236  0.38062689  1  -1.083529  0  -0.281348  -0.260785  0  2.771041  0
O  O362  1  0.25000219  0.25000089  0.38062392  1  -1.096505  0  -0.281308  -0.260797  0  2.771134  0
O  O363  1  0.88062937  0.74999735  0.24999729  1  -1.096489  0  -0.281303  -0.260671  0  2.771072  0
O  O364  1  0.61937343  0.74999884  0.38062574  1  -1.086477  0  -0.28133  -0.260824  0  2.771043  0
O  O365  1  0.88063106  0.24999835  0.11937487  1  -1.083511  0  -0.281357  -0.260733  0  2.771104  0
O  O366  1  0.74999881  0.38062849  0.75000189  1  -1.096395  0  -0.28134  -0.260749  0  2.771054  0
O  O367  1  0.25000147  0.11937215  0.24999771  1  -1.09644  0  -0.281343  -0.260804  0  2.771125  0
O  O368  1  0.38062599  0.61937432  0.74999855  1  -1.083514  0  -0.281311  -0.26079  0  2.771054  0
O  O369  1  0.74999659  0.61937759  0.88062743  1  -1.086546  0  -0.28132  -0.26071  0  2.770983  0
O  O370  1  0.24999805  0.25000138  0.88062930  1  -1.096375  0  -0.281326  -0.260688  0  2.77101  0
O  O371  1  0.38063002  0.74999516  0.24999993  1  -1.096464  0  -0.281348  -0.26079  0  2.771094  0
O  O372  1  0.11937231  0.88062167  0.25000206  1  -1.086516  0  -0.281358  -0.260869  0  2.771171  0
O  O373  1  0.24999817  0.88062772  0.61937331  1  -1.08355  0  -0.281356  -0.260801  0  2.771053  0
O  O374  1  0.74999926  0.75000480  0.61936940  1  -1.096439  0  -0.281338  -0.260768  0  2.771051  0
O  O375  1  0.11936930  0.25000231  0.75000288  1  -1.096413  0  -0.281337  -0.260789  0  2.771104  0
O  O376  1  0.38062259  0.25000357  0.61937167  1  -1.086473  0  -0.281302  -0.260738  0  2.771067  0
O  O377  1  0.11936942  0.75000313  0.88062430  1  -1.08352  0  -0.281384  -0.260812  0  2.771138  0
O  O378  1  0.25000134  0.61936832  0.25000229  1  -1.096398  0  -0.281364  -0.260756  0  2.770966  0
O  O379  1  0.74999619  0.88063406  0.74999491  1  -1.096362  0  -0.281335  -0.260726  0  2.771099  0
O  O380  1  0.71329591  0.21332854  0.03668333  1  -1.266609  0  -0.587705  -0.792338  0  2.054863  0
O  O381  1  0.96331487  0.28668369  0.28669154  1  -1.26679  0  -0.587751  -0.792387  0  2.054803  0
O  O382  1  0.53669080  0.03668519  0.21330868  1  -1.270253  0  -0.587748  -0.792312  0  2.054794  0
O  O383  1  0.78668998  0.46331727  0.46330694  1  -1.270266  0  -0.58776  -0.792357  0  2.054749  0
O  O384  1  0.71331993  0.03668796  0.03668822  1  -1.270087  0  -0.587692  -0.792324  0  2.054797  0
O  O385  1  0.78667796  0.28669912  0.46331815  1  -1.266583  0  -0.587799  -0.792448  0  2.05471  0
O  O386  1  0.53668098  0.21329124  0.21333207  1  -1.266696  0  -0.587708  -0.792437  0  2.054741  0
O  O387  1  0.96331485  0.46331038  0.28668515  1  -1.270143  0  -0.587809  -0.792407  0  2.054803  0
O  O388  1  0.71332364  0.03668312  0.21330071  1  -1.266636  0  -0.587745  -0.792322  0  2.054803  0
O  O389  1  0.78670582  0.46332002  0.28667037  1  -1.266596  0  -0.58778  -0.792509  0  2.054693  0
O  O390  1  0.96331467  0.28669550  0.46330852  1  -1.270155  0  -0.587752  -0.792362  0  2.054839  0
O  O391  1  0.53668727  0.21331476  0.03668892  1  -1.270092  0  -0.587822  -0.792403  0  2.054758  0
O  O392  1  0.28671107  0.78666535  0.96332092  1  -1.266548  0  -0.587687  -0.792421  0  2.054786  0
O  O393  1  0.03669071  0.71331097  0.71331333  1  -1.266824  0  -0.587829  -0.79242  0  2.054772  0
O  O394  1  0.46332295  0.96330140  0.78670937  1  -1.270071  0  -0.587705  -0.792458  0  2.054781  0
O  O395  1  0.21331604  0.53667890  0.53669798  1  -1.270252  0  -0.587766  -0.792394  0  2.054677  0
O  O396  1  0.28668506  0.96331693  0.96330835  1  -1.27001  0  -0.587723  -0.79223  0  2.054874  0
O  O397  1  0.21330500  0.71331839  0.53669247  1  -1.267218  0  -0.58778  -0.792489  0  2.054659  0
O  O398  1  0.46331737  0.78670917  0.78666832  1  -1.266748  0  -0.587775  -0.79251  0  2.054625  0
O  O399  1  0.03669412  0.53668118  0.71328894  1  -1.270023  0  -0.58766  -0.792385  0  2.054758  0
O  O400  1  0.28667751  0.96331902  0.78669913  1  -1.266718  0  -0.587764  -0.792366  0  2.054762  0
O  O401  1  0.21330594  0.53668081  0.71331818  1  -1.266705  0  -0.587741  -0.792359  0  2.054821  0
O  O402  1  0.03668020  0.71329169  0.53669664  1  -1.270077  0  -0.58775  -0.792529  0  2.054631  0
O  O403  1  0.46330963  0.78669071  0.96331515  1  -1.270137  0  -0.58781  -0.792409  0  2.054776  0
