# generated using pymatgen
data_NiH24C30(NO3)2
_symmetry_space_group_name_H-M   'P 1'
_cell_length_a   16.64067084
_cell_length_b   18.79283646
_cell_length_c   18.79277818
_cell_angle_alpha   111.68284741
_cell_angle_beta   107.15511869
_cell_angle_gamma   107.15555149
_symmetry_Int_Tables_number   1
_chemical_formula_structural   NiH24C30(NO3)2
_chemical_formula_sum   'Ni6 H144 C180 N12 O36'
_cell_volume   4646.88957385
_cell_formula_units_Z   6
loop_
 _symmetry_equiv_pos_site_id
 _symmetry_equiv_pos_as_xyz
  1  'x, y, z'
loop_
 _atom_site_type_symbol
 _atom_site_label
 _atom_site_symmetry_multiplicity
 _atom_site_fract_x
 _atom_site_fract_y
 _atom_site_fract_z
 _atom_site_occupancy
 _atom_site_pbe_bader_charge
 _atom_site_pbe_bader_spin_density
 _atom_site_pbe_cm5_charge
 _atom_site_pbe_ddec_charge
 _atom_site_pbe_ddec_spin_density
 _atom_site_pbe_ddec_sum_bond_order
 _atom_site_pbe_magmom
Ni  Ni0  1  0.63073693  0.38071216  0.76130725  1  1.168915  1.547544  0.658017  0.73661  1.768301  2.55269  1.533
Ni  Ni1  1  0.24999922  0.38061131  0.61938893  1  1.176292  1.547344  0.658777  0.73874  1.768884  2.552243  1.533
Ni  Ni2  1  0.86926568  0.23869257  0.61928749  1  1.169042  1.547538  0.658014  0.736487  1.768296  2.552981  1.533
Ni  Ni3  1  0.36926327  0.61928691  0.23869243  1  1.168884  1.547534  0.658016  0.736539  1.768293  2.552825  1.533
Ni  Ni4  1  0.75000067  0.61938840  0.38061144  1  1.176311  1.547348  0.658787  0.738768  1.768885  2.552147  1.533
Ni  Ni5  1  0.13073423  0.76130844  0.38071176  1  1.169057  1.547535  0.657972  0.736422  1.768301  2.553013  1.533
H  H6  1  0.81350129  0.93492465  0.84121094  1  0.071432  1.1e-05  0.100295  0.101639  3e-06  1.02392  0.0
H  H7  1  0.72479765  0.78578663  0.96390179  1  0.05289  6e-06  0.102205  0.105693  -5e-06  0.997056  0.0
H  H8  1  0.80896673  0.66593640  0.72869732  1  0.052285  4.7e-05  0.101011  0.103164  2e-06  1.011516  0.0
H  H9  1  0.85849911  0.82261486  0.80706567  1  0.084482  0.000133  0.096924  0.098706  5.4e-05  1.047094  0.0
H  H10  1  0.66954130  0.62796371  0.88047252  1  0.079601  0.000147  0.102026  0.107198  7.1e-05  1.009601  0.0
H  H11  1  0.43140211  0.24224413  0.52349169  1  0.061326  0.003764  0.102866  0.080183  0.00174  0.964133  0.002
H  H12  1  0.50063935  0.20160123  0.57338815  1  0.036918  -6.2e-05  0.095975  0.05766  -0.000187  1.016007  0.0
H  H13  1  0.93467445  0.59677828  0.04589952  1  0.108712  0.001008  0.106884  0.115331  0.000494  1.046746  0.001
H  H14  1  0.77558346  0.54715475  0.93565106  1  0.104379  0.002128  0.12184  0.092093  0.000738  0.989019  0.001
H  H15  1  0.77606371  0.32862442  0.77042611  1  0.144144  0.002178  0.123204  0.097466  0.000755  1.03396  0.002
H  H16  1  0.93475465  0.36776471  0.87116767  1  0.084496  0.00087  0.108529  0.11284  0.000407  1.056734  0.0
H  H17  1  0.47015569  0.26143976  0.67516013  1  0.645684  -0.000108  0.291601  0.335849  1.3e-05  0.99341  0.0
H  H18  1  0.87862516  0.90645653  0.06533745  1  0.054832  1.1e-05  0.100192  0.101265  3e-06  1.024147  0.0
H  H19  1  0.93884725  0.17826569  0.21437729  1  0.064929  6e-06  0.102117  0.105517  -5e-06  0.997267  0.0
H  H20  1  0.14261511  0.06278249  0.33419430  1  0.064142  4.6e-05  0.101254  0.103417  1e-06  1.011254  0.0
H  H21  1  0.03561086  0.98452463  0.17754194  1  0.073631  0.000134  0.096901  0.098669  5.4e-05  1.047684  0.0
H  H22  1  0.04127328  0.25264040  0.37223600  1  0.072456  0.00015  0.101802  0.107193  7.1e-05  1.008479  0.0
H  H23  1  0.18942198  0.28145537  0.75808450  1  0.054199  0.003777  0.102722  0.079334  0.001741  0.963674  0.002
H  H24  1  0.29927415  0.37188807  0.79846687  1  0.021889  -5.9e-05  0.095731  0.056947  -0.000187  1.016501  0.0
H  H25  1  0.33793565  0.44911612  0.40337590  1  0.111068  0.000995  0.107047  0.115749  0.000493  1.046128  0.001
H  H26  1  0.22854909  0.38848219  0.45302488  1  0.082265  0.002137  0.121448  0.091986  0.000738  0.988526  0.001
H  H27  1  0.44753669  0.44161174  0.67139911  1  0.13074  0.002196  0.123082  0.097362  0.000757  1.0335  0.002
H  H28  1  0.56702866  0.50338954  0.63223700  1  0.07579  0.000867  0.10848  0.113163  0.000408  1.055771  0.0
H  H29  1  0.20880695  0.41385808  0.73876180  1  0.644937  -0.000119  0.291321  0.33485  1.4e-05  0.994315  0.0
H  H30  1  0.97234731  0.15907427  0.09380411  1  0.05795  1.1e-05  0.100606  0.101219  3e-06  1.023546  0.0
H  H31  1  0.76089016  0.03630270  0.82200176  1  0.057584  6e-06  0.102073  0.105727  -5e-06  0.997075  0.0
H  H32  1  0.08008700  0.27139626  0.93711424  1  0.064312  4.3e-05  0.10094  0.103204  1e-06  1.01187  0.0
H  H33  1  0.05139202  0.19305043  0.01546185  1  0.094031  0.000133  0.096389  0.098236  5.5e-05  1.047347  0.0
H  H34  1  0.78891640  0.11969702  0.74757494  1  0.107181  0.000146  0.101399  0.106695  7.1e-05  1.008997  0.0
H  H35  1  0.90790994  0.47660566  0.71868250  1  0.044175  0.003794  0.102315  0.079218  0.00174  0.964477  0.002
H  H36  1  0.92717544  0.42661799  0.62809973  1  0.034745  -6.2e-05  0.095811  0.056568  -0.000187  1.016251  0.0
H  H37  1  0.88879271  0.95420177  0.55087528  1  0.122238  0.000995  0.107248  0.115966  0.000495  1.046596  0.001
H  H38  1  0.83985877  0.06439951  0.61142661  1  0.090703  0.002138  0.121748  0.092308  0.000741  0.988447  0.001
H  H39  1  0.00576959  0.22969541  0.55833636  1  0.128484  0.002198  0.123137  0.096886  0.000755  1.034667  0.002
H  H40  1  0.06368544  0.12886985  0.49670698  1  0.084953  0.000869  0.108386  0.112764  0.000407  1.057041  0.0
H  H41  1  0.79487295  0.32491569  0.58624538  1  0.648473  -0.000114  0.290922  0.334105  1.2e-05  0.994997  0.0
H  H42  1  0.52764918  0.90619365  0.84092289  1  0.057964  1.1e-05  0.100605  0.101207  3e-06  1.023603  0.0
H  H43  1  0.73910960  0.17798968  0.96369058  1  0.057596  6e-06  0.102076  0.105815  -5e-06  0.997064  0.0
H  H44  1  0.41991257  0.06288884  0.72860428  1  0.064312  4.3e-05  0.100902  0.10315  1e-06  1.011792  0.0
H  H45  1  0.44860556  0.98453731  0.80694804  1  0.093999  0.000133  0.096375  0.098195  5.5e-05  1.0474  0.0
H  H46  1  0.71108733  0.25241892  0.88029968  1  0.106905  0.000146  0.101431  0.106719  7.1e-05  1.009041  0.0
H  H47  1  0.59208917  0.28131436  0.52338856  1  0.044056  0.003795  0.102306  0.079181  0.00174  0.964539  0.002
H  H48  1  0.57282579  0.37189789  0.57337869  1  0.034717  -6.2e-05  0.095806  0.056619  -0.000187  1.016183  0.0
H  H49  1  0.61120711  0.44912813  0.04580369  1  0.122247  0.000995  0.107293  0.116019  0.000495  1.046538  0.001
H  H50  1  0.66014260  0.38857827  0.93560539  1  0.090478  0.002138  0.121777  0.092343  0.000741  0.988449  0.001
H  H51  1  0.49423081  0.44166330  0.77030551  1  0.128505  0.002198  0.123135  0.096902  0.000755  1.034604  0.002
H  H52  1  0.43631246  0.50329035  0.87113093  1  0.085577  0.000869  0.108418  0.112836  0.000407  1.05694  0.0
H  H53  1  0.70512940  0.41375328  0.67508081  1  0.648408  -0.000113  0.290952  0.334119  1.2e-05  0.995018  0.0
H  H54  1  0.68649990  0.15878610  0.06507176  1  0.071305  1.1e-05  0.100299  0.101637  3e-06  1.023937  0.0
H  H55  1  0.77520250  0.03609969  0.21421282  1  0.052825  6e-06  0.102205  0.105691  -5e-06  0.9971  0.0
H  H56  1  0.69103226  0.27129798  0.33406208  1  0.052362  4.7e-05  0.101044  0.103161  2e-06  1.011542  0.0
H  H57  1  0.64149857  0.19293101  0.17738562  1  0.084471  0.000133  0.096942  0.098762  5.4e-05  1.047059  0.0
H  H58  1  0.83046234  0.11952858  0.37203609  1  0.079571  0.000147  0.102037  0.107187  7.1e-05  1.009617  0.0
H  H59  1  0.06859937  0.47650299  0.75775030  1  0.061281  0.003763  0.102921  0.080237  0.00174  0.964119  0.002
H  H60  1  0.99936210  0.42661202  0.79839730  1  0.037208  -6.2e-05  0.096003  0.05769  -0.000187  1.015966  0.0
H  H61  1  0.56532972  0.95410500  0.40322457  1  0.108725  0.001008  0.106892  0.115334  0.000495  1.046754  0.001
H  H62  1  0.72442110  0.06435073  0.45284521  1  0.104354  0.002128  0.121821  0.09208  0.000738  0.989034  0.001
H  H63  1  0.72394365  0.22957721  0.67137950  1  0.143841  0.002179  0.123197  0.097518  0.000755  1.033954  0.002
H  H64  1  0.56525190  0.12883641  0.63223827  1  0.084489  0.00087  0.10849  0.112838  0.000407  1.05676  0.0
H  H65  1  0.02984510  0.32483934  0.73855976  1  0.645779  -0.000108  0.291618  0.335893  1.3e-05  0.993341  0.0
H  H66  1  0.62137036  0.93466111  0.09354150  1  0.054947  1.1e-05  0.10021  0.101272  3e-06  1.024165  0.0
H  H67  1  0.56114590  0.78561997  0.82173108  1  0.065082  6e-06  0.102149  0.10553  -5e-06  0.99729  0.0
H  H68  1  0.35738449  0.66580719  0.93722123  1  0.063896  4.6e-05  0.101232  0.103426  1e-06  1.011205  0.0
H  H69  1  0.46438862  0.82245843  0.01547925  1  0.073586  0.000134  0.096889  0.098631  5.4e-05  1.047794  0.0
H  H70  1  0.45872109  0.62776223  0.74735895  1  0.072785  0.00015  0.101815  0.107209  7.1e-05  1.008445  0.0
H  H71  1  0.31057755  0.24191590  0.71854225  1  0.054246  0.003777  0.102686  0.079316  0.001741  0.96371  0.002
H  H72  1  0.20072501  0.20153256  0.62811013  1  0.021853  -5.9e-05  0.095724  0.056948  -0.000187  1.016562  0.0
H  H73  1  0.16206449  0.59662285  0.55088456  1  0.1111  0.000995  0.107041  0.115748  0.000493  1.046174  0.001
H  H74  1  0.27144998  0.54697404  0.61151835  1  0.082294  0.002138  0.1214  0.091848  0.000738  0.988565  0.001
H  H75  1  0.05246185  0.32860397  0.55838855  1  0.130684  0.002195  0.123053  0.097335  0.000757  1.033537  0.002
H  H76  1  0.93297048  0.36776226  0.49661145  1  0.075732  0.000867  0.108571  0.113369  0.000408  1.055713  0.0
H  H77  1  0.29119070  0.26123869  0.58613873  1  0.644918  -0.000119  0.291332  0.334895  1.4e-05  0.994285  0.0
H  H78  1  0.18650272  0.06507700  0.15878963  1  0.071172  1.1e-05  0.100284  0.101628  3e-06  1.023941  0.0
H  H79  1  0.27520130  0.21421373  0.03609856  1  0.052817  6e-06  0.102204  0.105701  -5e-06  0.997073  0.0
H  H80  1  0.19103476  0.33406653  0.27130412  1  0.052232  4.7e-05  0.101036  0.103158  2e-06  1.011586  0.0
H  H81  1  0.14150049  0.17738679  0.19293479  1  0.084484  0.000133  0.096945  0.098734  5.4e-05  1.047096  0.0
H  H82  1  0.33045954  0.37203665  0.11952674  1  0.079565  0.000147  0.102008  0.107183  7.1e-05  1.009588  0.0
H  H83  1  0.56859900  0.75775172  0.47650545  1  0.061367  0.003763  0.102905  0.080225  0.00174  0.964137  0.002
H  H84  1  0.49936147  0.79839784  0.42661170  1  0.037179  -6.2e-05  0.095983  0.057671  -0.000187  1.015972  0.0
H  H85  1  0.06532765  0.40322336  0.95410321  1  0.108692  0.001008  0.106874  0.115329  0.000494  1.04676  0.001
H  H86  1  0.22441926  0.45284561  0.06435083  1  0.104341  0.002128  0.121804  0.092067  0.000738  0.989028  0.001
H  H87  1  0.22393965  0.67137723  0.22957695  1  0.14384  0.002179  0.123193  0.097496  0.000755  1.033988  0.002
H  H88  1  0.06524873  0.63223822  0.12883481  1  0.084414  0.000871  0.108542  0.112927  0.000406  1.056709  0.0
H  H89  1  0.52984261  0.73855803  0.32483804  1  0.645777  -0.000108  0.291604  0.33584  1.3e-05  0.993402  0.0
H  H90  1  0.12137251  0.09354254  0.93466210  1  0.0549  1.1e-05  0.100207  0.101262  3e-06  1.024108  0.0
H  H91  1  0.06115107  0.82173339  0.78562030  1  0.064967  6e-06  0.10214  0.105578  -5e-06  0.997257  0.0
H  H92  1  0.85738322  0.93721787  0.66580483  1  0.063704  4.6e-05  0.101227  0.103368  1e-06  1.011261  0.0
H  H93  1  0.96438937  0.01547701  0.82245816  1  0.073613  0.000134  0.096891  0.098669  5.4e-05  1.047688  0.0
H  H94  1  0.95872347  0.74735931  0.62776194  1  0.072443  0.00015  0.101788  0.107188  7.1e-05  1.008438  0.0
H  H95  1  0.81058010  0.71854370  0.24191621  1  0.05415  0.003777  0.102691  0.079291  0.001741  0.963678  0.002
H  H96  1  0.70072699  0.62811036  0.20153283  1  0.021774  -5.9e-05  0.095734  0.056949  -0.000187  1.016487  0.0
H  H97  1  0.66206298  0.55088359  0.59662414  1  0.111092  0.000995  0.107032  0.115751  0.000493  1.046112  0.001
H  H98  1  0.77144796  0.61151560  0.54697296  1  0.082329  0.002138  0.121385  0.091826  0.000738  0.988491  0.001
H  H99  1  0.55245971  0.55838605  0.32860122  1  0.13068  0.002195  0.123064  0.097316  0.000757  1.033514  0.002
H  H100  1  0.43296779  0.49661211  0.36776423  1  0.076093  0.000867  0.108578  0.113376  0.000408  1.05565  0.0
H  H101  1  0.79119354  0.58614035  0.26123932  1  0.644933  -0.000119  0.291343  0.33487  1.4e-05  0.994305  0.0
H  H102  1  0.02765481  0.84092738  0.90619703  1  0.058026  1.1e-05  0.100579  0.101179  3e-06  1.023454  0.0
H  H103  1  0.23911127  0.96369380  0.17799730  1  0.057652  6e-06  0.102093  0.105766  -5e-06  0.997057  0.0
H  H104  1  0.91991132  0.72860410  0.06288542  1  0.064306  4.3e-05  0.100914  0.103167  1e-06  1.01183  0.0
H  H105  1  0.94861042  0.80695185  0.98453908  1  0.094036  0.000133  0.096405  0.098262  5.5e-05  1.047337  0.0
H  H106  1  0.21108221  0.88030012  0.25242255  1  0.107226  0.000146  0.101399  0.10664  7.1e-05  1.009034  0.0
H  H107  1  0.09209248  0.52339405  0.28131694  1  0.044148  0.003794  0.102331  0.079228  0.00174  0.964515  0.002
H  H108  1  0.07282700  0.57338430  0.37190172  1  0.034762  -6.2e-05  0.095803  0.056571  -0.000187  1.01624  0.0
H  H109  1  0.11120561  0.04579859  0.44912544  1  0.122244  0.000995  0.107241  0.115976  0.000495  1.046549  0.001
H  H110  1  0.16014019  0.93560213  0.38857475  1  0.090714  0.002138  0.121763  0.092344  0.000741  0.988468  0.001
H  H111  1  0.99423123  0.77030366  0.44166402  1  0.128467  0.002198  0.123123  0.09687  0.000755  1.034686  0.002
H  H112  1  0.93631350  0.87112922  0.50329237  1  0.085332  0.000869  0.108393  0.11279  0.000407  1.057006  0.0
H  H113  1  0.20512950  0.67508659  0.41375395  1  0.648557  -0.000114  0.290981  0.334176  1.2e-05  0.994948  0.0
H  H114  1  0.47234818  0.09380349  0.15907426  1  0.057908  1.1e-05  0.100587  0.101209  3e-06  1.023521  0.0
H  H115  1  0.26089059  0.82200811  0.03630703  1  0.057602  6e-06  0.102073  0.105766  -5e-06  0.997096  0.0
H  H116  1  0.58008512  0.93711152  0.27139574  1  0.064323  4.3e-05  0.100912  0.103161  1e-06  1.011837  0.0
H  H117  1  0.55139526  0.01546176  0.19305180  1  0.094134  0.000133  0.096396  0.098208  5.5e-05  1.047382  0.0
H  H118  1  0.28891412  0.74758015  0.11969981  1  0.106888  0.000146  0.101439  0.106715  7.1e-05  1.009078  0.0
H  H119  1  0.40790978  0.71868471  0.47660919  1  0.044099  0.003795  0.102311  0.07919  0.00174  0.964507  0.002
H  H120  1  0.42717411  0.62810183  0.42661956  1  0.034715  -6.2e-05  0.095792  0.056571  -0.000187  1.016244  0.0
H  H121  1  0.38879560  0.55087222  0.95419926  1  0.122297  0.000995  0.107271  0.116015  0.000495  1.046528  0.001
H  H122  1  0.33985982  0.61142273  0.06439612  1  0.090514  0.002138  0.121787  0.092335  0.000741  0.988473  0.001
H  H123  1  0.50576939  0.55833706  0.22969677  1  0.128439  0.002198  0.123122  0.096843  0.000755  1.034689  0.002
H  H124  1  0.56368582  0.49670743  0.12887096  1  0.085446  0.000869  0.108385  0.112748  0.000407  1.057038  0.0
H  H125  1  0.29487176  0.58624643  0.32491670  1  0.648455  -0.000114  0.290949  0.334131  1.2e-05  0.99501  0.0
H  H126  1  0.31350187  0.84121233  0.93492704  1  0.07146  1.1e-05  0.10031  0.101643  3e-06  1.023927  0.0
H  H127  1  0.22480120  0.96390260  0.78578684  1  0.052932  6e-06  0.102237  0.105766  -5e-06  0.997059  0.0
H  H128  1  0.30896478  0.72869852  0.66593316  1  0.052442  4.7e-05  0.101025  0.103178  2e-06  1.011603  0.0
H  H129  1  0.35849911  0.80706677  0.82261080  1  0.084513  0.000133  0.096945  0.098763  5.4e-05  1.047013  0.0
H  H130  1  0.16954075  0.88047499  0.62796494  1  0.079534  0.000147  0.102021  0.107169  7.1e-05  1.009581  0.0
H  H131  1  0.93140275  0.52349994  0.24225184  1  0.061317  0.003763  0.102926  0.080233  0.00174  0.964108  0.002
H  H132  1  0.00063811  0.57338834  0.20160286  1  0.036979  -6.2e-05  0.095999  0.057692  -0.000187  1.015987  0.0
H  H133  1  0.43467017  0.04589600  0.59677787  1  0.108682  0.001008  0.106869  0.11533  0.000494  1.046709  0.001
H  H134  1  0.27557786  0.93564963  0.54715461  1  0.104311  0.002129  0.121819  0.092097  0.000738  0.989016  0.001
H  H135  1  0.27605879  0.77042636  0.32862296  1  0.144151  0.002178  0.123177  0.097485  0.000755  1.033976  0.002
H  H136  1  0.43475117  0.87116587  0.36776229  1  0.084457  0.00087  0.108517  0.112855  0.000406  1.056707  0.0
H  H137  1  0.97015669  0.67516166  0.26144106  1  0.645777  -0.000108  0.291626  0.33591  1.3e-05  0.993299  0.0
H  H138  1  0.37862762  0.06533603  0.90645635  1  0.054907  1.1e-05  0.100213  0.101275  3e-06  1.024168  0.0
H  H139  1  0.43885147  0.21437974  0.17826809  1  0.064987  6e-06  0.102124  0.105532  -5e-06  0.997268  0.0
H  H140  1  0.64261351  0.33419253  0.06277917  1  0.063703  4.6e-05  0.10125  0.103446  1e-06  1.011206  0.0
H  H141  1  0.53560969  0.17754064  0.98451993  1  0.073588  0.000134  0.096915  0.098678  5.4e-05  1.047717  0.0
H  H142  1  0.54127721  0.37223684  0.25264183  1  0.072669  0.00015  0.101788  0.107176  7.1e-05  1.008443  0.0
H  H143  1  0.68942391  0.75808317  0.28145723  1  0.054286  0.003777  0.102721  0.079349  0.001741  0.963738  0.002
H  H144  1  0.79927613  0.79846715  0.37189057  1  0.021779  -5.9e-05  0.095713  0.056965  -0.000187  1.016582  0.0
H  H145  1  0.83793477  0.40337686  0.44911564  1  0.111095  0.000995  0.107042  0.115748  0.000493  1.046139  0.001
H  H146  1  0.72855055  0.45302696  0.38848266  1  0.08228  0.002137  0.121455  0.091972  0.000738  0.988532  0.001
H  H147  1  0.94753995  0.67139832  0.44161327  1  0.130675  0.002195  0.123079  0.097341  0.000757  1.033497  0.002
H  H148  1  0.06703002  0.63223617  0.50338808  1  0.075931  0.000867  0.10857  0.113361  0.000408  1.055713  0.0
H  H149  1  0.70880856  0.73876103  0.41386147  1  0.644921  -0.000119  0.291333  0.334918  1.4e-05  0.994255  0.0
C  C150  1  0.70926362  0.54253473  0.75567229  1  1.535673  0.001386  0.199002  0.548074  0.000682  4.234851  0.0
C  C151  1  0.73722025  0.63704197  0.80048674  1  -0.033607  0.005522  -0.026838  -0.04899  0.003266  3.988837  0.004
C  C152  1  0.84374681  0.96352443  0.91091903  1  -0.060177  0.000258  -0.086557  -0.174772  0.000145  3.925741  0.0
C  C153  1  0.74329091  0.75963162  0.91228978  1  -0.023168  -0.000125  -0.090955  -0.135522  -0.000198  3.98931  0.0
C  C154  1  0.78903065  0.69229741  0.77913527  1  0.002312  0.001632  -0.089242  -0.096498  0.000784  3.995253  0.001
C  C155  1  0.83832330  0.90994879  0.94685506  1  -0.004137  -2.4e-05  -0.008198  0.076973  -4.9e-05  4.02147  0.0
C  C156  1  0.95192852  0.48706863  0.96896531  1  -0.051087  -0.007321  0.010724  0.101476  -0.008193  3.975306  -0.004
C  C157  1  0.79708809  0.81562437  0.89247287  1  -0.047663  0.000866  -0.005292  0.069904  0.000471  3.995039  0.001
C  C158  1  0.81697429  0.78019632  0.82340519  1  -0.049755  0.000336  -0.09345  -0.136079  0.000149  3.971364  0.0
C  C159  1  0.71260434  0.67152415  0.86610530  1  -0.060901  0.000744  -0.087111  -0.086149  0.000364  3.979797  0.0
C  C160  1  0.49647987  0.26060634  0.57850496  1  0.437909  0.002633  -0.080125  0.036222  0.001637  3.908452  0.001
C  C161  1  0.90408655  0.53700434  0.98564868  1  -0.037158  0.004414  -0.080454  -0.168127  0.002453  3.92073  0.004
C  C162  1  0.81383585  0.50936253  0.92431942  1  0.460125  -0.004685  0.047972  0.088569  -0.005536  3.952241  -0.003
C  C163  1  0.81381673  0.38743436  0.83207984  1  0.482877  -0.004938  0.05578  0.118866  -0.005724  3.909638  -0.003
C  C164  1  0.90379995  0.41060855  0.88962330  1  0.014304  0.004252  -0.08021  -0.167127  0.002315  3.933421  0.004
C  C165  1  0.16644189  0.21315618  0.45753930  1  1.534416  0.001363  0.198974  0.550311  0.000663  4.236408  0.0
C  C166  1  0.09973335  0.16345184  0.36312672  1  -0.001696  0.005465  -0.026411  -0.04823  0.003269  3.990259  0.004
C  C167  1  0.88031085  0.94754652  0.03669621  1  -0.034617  0.000259  -0.086319  -0.174394  0.000146  3.926189  0.0
C  C168  1  0.98337268  0.15275045  0.24056721  1  -0.033158  -0.000125  -0.091292  -0.135639  -0.000199  3.989238  0.0
C  C169  1  0.09628081  0.08682926  0.30785547  1  -0.018234  0.001634  -0.089825  -0.097513  0.000778  3.995517  0.001
C  C170  1  0.92839702  0.03707773  0.09025184  1  -0.018221  -2.4e-05  -0.007743  0.076777  -4.9e-05  4.022747  0.0
C  C171  1  0.46491925  0.48191382  0.51301578  1  -0.001264  -0.00727  0.010581  0.101577  -0.008169  3.97426  -0.004
C  C172  1  0.98123154  0.07696488  0.18456206  1  -0.032733  0.000857  -0.005977  0.06955  0.000467  3.997061  0.001
C  C173  1  0.03642921  0.04325119  0.21997730  1  -0.098956  0.000352  -0.092515  -0.134987  0.000149  3.97226  0.0
C  C174  1  0.04070517  0.19463826  0.32867926  1  -0.042034  0.000735  -0.086754  -0.086705  0.000361  3.980216  0.0
C  C175  1  0.23603033  0.31802720  0.73957669  1  0.431912  0.002622  -0.079767  0.038272  0.001628  3.90648  0.001
C  C176  1  0.36717515  0.44864382  0.46313446  1  -0.015264  0.004407  -0.080003  -0.168083  0.002448  3.918667  0.004
C  C177  1  0.30456705  0.41491150  0.49077069  1  0.481353  -0.004711  0.04823  0.088946  -0.005533  3.951046  -0.003
C  C178  1  0.42641157  0.44459182  0.61265852  1  0.455813  -0.004899  0.056981  0.120464  -0.005696  3.907436  -0.003
C  C179  1  0.49322830  0.47903607  0.58949344  1  0.010787  0.00424  -0.080495  -0.168458  0.002323  3.931565  0.004
C  C180  1  0.95334217  0.24447641  0.78684599  1  1.530909  0.001402  0.198483  0.548046  0.000673  4.237989  0.0
C  C181  1  0.93654184  0.19973120  0.83658209  1  -0.013023  0.005488  -0.027344  -0.04796  0.003275  3.990713  0.004
C  C182  1  0.93289698  0.08935252  0.05269623  1  0.031969  0.000256  -0.087616  -0.173948  0.000145  3.926652  0.0
C  C183  1  0.83093855  0.08794269  0.84744013  1  -0.071643  -0.000121  -0.090885  -0.135671  -0.000196  3.989763  0.0
C  C184  1  0.00974472  0.22102905  0.91312010  1  -0.075856  0.001635  -0.088377  -0.097249  0.000774  3.995915  0.001
C  C185  1  0.89154807  0.05336945  0.96316859  1  -0.074252  -2.1e-05  -0.007852  0.074987  -4.9e-05  4.022208  0.0
C  C186  1  0.98298625  0.03106865  0.51809971  1  -0.009246  -0.007292  0.010739  0.10186  -0.008197  3.975485  -0.004
C  C187  1  0.90457497  0.10771963  0.92319410  1  -0.064332  0.000854  -0.005047  0.071645  0.000461  3.99399  0.001
C  C188  1  0.99348800  0.17675751  0.95675239  1  -0.023465  0.000344  -0.092675  -0.134785  0.000152  3.969352  0.0
C  C189  1  0.84638087  0.13414382  0.80552456  1  -0.021149  0.000729  -0.087592  -0.087715  0.000356  3.982469  0.0
C  C190  1  0.91793304  0.42154839  0.68200404  1  0.435353  0.00261  -0.079799  0.039224  0.001635  3.907096  0.001
C  C191  1  0.91847228  0.01444359  0.55136153  1  -0.011609  0.004391  -0.080645  -0.16917  0.00245  3.920335  0.004
C  C192  1  0.88950605  0.07576672  0.58503717  1  0.456787  -0.004696  0.048022  0.088017  -0.005544  3.953128  -0.003
C  C193  1  0.98177687  0.16801302  0.55542776  1  0.485471  -0.004944  0.056605  0.12063  -0.005717  3.906524  -0.003
C  C194  1  0.01424128  0.11044597  0.52105888  1  -0.004688  0.004232  -0.080463  -0.168272  0.002316  3.932817  0.004
C  C195  1  0.54666561  0.21315771  0.75552647  1  1.531783  0.001398  0.198385  0.547946  0.000671  4.238016  0.0
C  C196  1  0.56345875  0.16341674  0.80026718  1  -0.01321  0.005489  -0.027351  -0.047934  0.003275  3.990686  0.004
C  C197  1  0.56710104  0.94730281  0.91064530  1  0.031561  0.000256  -0.08756  -0.173902  0.000145  3.926712  0.0
C  C198  1  0.66906044  0.15255405  0.91205297  1  -0.071855  -0.000121  -0.091007  -0.136043  -0.000195  3.989853  0.0
C  C199  1  0.49025647  0.08688128  0.77897263  1  -0.075839  0.001635  -0.08839  -0.097236  0.000774  3.9959  0.001
C  C200  1  0.60845170  0.03682872  0.94662862  1  -0.074251  -2.1e-05  -0.007843  0.07507  -4.9e-05  4.022167  0.0
C  C201  1  0.51701107  0.48189750  0.96893136  1  -0.049355  -0.007328  0.010821  0.10204  -0.008196  3.975378  -0.004
C  C202  1  0.59542422  0.07679945  0.89227584  1  -0.064404  0.000854  -0.005003  0.07181  0.000461  3.993885  0.001
C  C203  1  0.50651027  0.04324452  0.82323861  1  -0.023529  0.000344  -0.092644  -0.134775  0.000152  3.969475  0.0
C  C204  1  0.65362347  0.19447160  0.86585462  1  -0.021094  0.000729  -0.087597  -0.087668  0.000356  3.982473  0.0
C  C205  1  0.58206754  0.31799385  0.57844944  1  0.435448  0.002611  -0.079758  0.039189  0.001635  3.90718  0.001
C  C206  1  0.58152947  0.44863975  0.98555967  1  -0.011605  0.00439  -0.080713  -0.16934  0.00245  3.920215  0.004
C  C207  1  0.61049641  0.41496528  0.92423620  1  0.456904  -0.004694  0.047982  0.088042  -0.005543  3.953  -0.003
C  C208  1  0.51822352  0.44457279  0.83198919  1  0.4856  -0.004944  0.056649  0.120673  -0.005716  3.906351  -0.003
C  C209  1  0.48575646  0.47893907  0.88955423  1  -0.005403  0.004232  -0.080525  -0.168403  0.002316  3.932815  0.004
C  C210  1  0.79073727  0.24432648  0.45746523  1  1.535628  0.001386  0.19899  0.547986  0.000683  4.234908  0.0
C  C211  1  0.76278014  0.19951300  0.36295990  1  -0.033784  0.005522  -0.026808  -0.048895  0.003265  3.988887  0.004
C  C212  1  0.65625168  0.08907794  0.03647349  1  -0.05998  0.000258  -0.086553  -0.174779  0.000145  3.925684  0.0
C  C213  1  0.75671012  0.08771182  0.24037003  1  -0.023098  -0.000125  -0.090962  -0.135579  -0.000198  3.989438  0.0
C  C214  1  0.71096833  0.22086110  0.30770283  1  0.002508  0.001632  -0.089309  -0.09655  0.000784  3.995315  0.001
C  C215  1  0.66167562  0.05314206  0.09005001  1  -0.004044  -2.4e-05  -0.008203  0.076973  -4.9e-05  4.021341  0.0
C  C216  1  0.54807356  0.03103615  0.51293216  1  -0.02168  -0.007288  0.010667  0.101375  -0.008193  3.975547  -0.004
C  C217  1  0.70291190  0.10752589  0.18437668  1  -0.04766  0.000866  -0.005242  0.07  0.000471  3.994937  0.001
C  C218  1  0.68302177  0.17659069  0.21980341  1  -0.049798  0.000336  -0.093463  -0.136168  0.000149  3.971287  0.0
C  C219  1  0.78739877  0.13389682  0.32847711  1  -0.06089  0.000744  -0.087143  -0.086137  0.000364  3.979839  0.0
C  C220  1  0.00352000  0.42149391  0.73939159  1  0.43774  0.002633  -0.080174  0.036148  0.001637  3.908429  0.001
C  C221  1  0.59591692  0.01435522  0.46299841  1  -0.037014  0.004414  -0.080447  -0.168088  0.002453  3.920805  0.004
C  C222  1  0.68616901  0.07568137  0.49063801  1  0.459919  -0.004686  0.048034  0.088598  -0.005536  3.952095  -0.003
C  C223  1  0.68618698  0.16792177  0.61256886  1  0.483213  -0.00494  0.055781  0.118856  -0.005725  3.909553  -0.003
C  C224  1  0.59620303  0.11037839  0.58939221  1  0.014023  0.004253  -0.080186  -0.167187  0.002315  3.933287  0.004
C  C225  1  0.33355363  0.54245968  0.78684402  1  1.535181  0.001365  0.199009  0.550398  0.000663  4.236156  0.0
C  C226  1  0.40026166  0.63687091  0.83654934  1  -0.002085  0.005463  -0.026405  -0.048273  0.003268  3.990166  0.004
C  C227  1  0.61968600  0.96330238  0.05245315  1  -0.035063  0.000259  -0.08632  -0.174377  0.000146  3.926137  0.0
C  C228  1  0.51662170  0.75943062  0.84724839  1  -0.032719  -0.000125  -0.091222  -0.135484  -0.000199  3.98927  0.0
C  C229  1  0.40371716  0.69214288  0.91317416  1  -0.018261  0.001635  -0.089862  -0.097572  0.000778  3.995358  0.001
C  C230  1  0.57160013  0.90974777  0.96292131  1  -0.017398  -2.4e-05  -0.007805  0.076701  -4.9e-05  4.022705  0.0
C  C231  1  0.03507972  0.48698368  0.51808654  1  -0.001054  -0.007268  0.010608  0.10165  -0.008167  3.974216  -0.004
C  C232  1  0.51876365  0.81543528  0.92303601  1  -0.032708  0.000857  -0.005986  0.069445  0.000467  3.997104  0.001
C  C233  1  0.46357100  0.78002465  0.95675323  1  -0.09889  0.000352  -0.092538  -0.134945  0.000149  3.972329  0.0
C  C234  1  0.45929002  0.67131951  0.80536231  1  -0.042778  0.000735  -0.086746  -0.086707  0.000361  3.980288  0.0
C  C235  1  0.26396840  0.26042274  0.68197044  1  0.46012  0.00261  -0.079707  0.038302  0.001628  3.906623  0.001
C  C236  1  0.13282547  0.53686435  0.55135726  1  -0.015261  0.004407  -0.080008  -0.168141  0.002449  3.918766  0.004
C  C237  1  0.19543240  0.50922830  0.58509206  1  0.48139  -0.00471  0.048262  0.089064  -0.005532  3.951103  -0.003
C  C238  1  0.07358403  0.38734078  0.55540826  1  0.455366  -0.004901  0.05685  0.120299  -0.005696  3.907332  -0.003
C  C239  1  0.00676646  0.41050754  0.52096244  1  0.011301  0.004241  -0.08048  -0.168616  0.002323  3.931602  0.004
C  C240  1  0.29073692  0.45746627  0.24432713  1  1.535689  0.001386  0.199027  0.548063  0.000682  4.234777  0.0
C  C241  1  0.26278060  0.36295967  0.19951459  1  -0.033639  0.005522  -0.026868  -0.048987  0.003265  3.988774  0.004
C  C242  1  0.15625498  0.03647657  0.08908231  1  -0.059903  0.000258  -0.086554  -0.174729  0.000145  3.925753  0.0
C  C243  1  0.25670774  0.24036938  0.08770967  1  -0.023052  -0.000125  -0.090946  -0.135557  -0.000198  3.989333  0.0
C  C244  1  0.21096927  0.30770488  0.22086605  1  0.002395  0.001632  -0.08923  -0.096466  0.000784  3.995208  0.001
C  C245  1  0.16167629  0.09005286  0.05314647  1  -0.004152  -2.4e-05  -0.008186  0.07685  -4.9e-05  4.021569  0.0
C  C246  1  0.04807484  0.51293302  0.03103775  1  -0.021782  -0.007288  0.010642  0.101231  -0.008193  3.975594  -0.004
C  C247  1  0.20291151  0.18437856  0.10752913  1  -0.047641  0.000866  -0.005285  0.070004  0.000471  3.994845  0.001
C  C248  1  0.18302375  0.21980597  0.17659457  1  -0.049837  0.000336  -0.093472  -0.136144  0.000149  3.971253  0.0
C  C249  1  0.28739651  0.32847749  0.13389550  1  -0.0609  0.000744  -0.087103  -0.086138  0.000364  3.979792  0.0
C  C250  1  0.50352001  0.73939209  0.42149440  1  0.437652  0.002633  -0.080153  0.036168  0.001637  3.908505  0.001
C  C251  1  0.09591555  0.46299730  0.01435352  1  -0.037049  0.004414  -0.080446  -0.168081  0.002453  3.920813  0.004
C  C252  1  0.18616625  0.49063782  0.07568177  1  0.460003  -0.004686  0.048041  0.088623  -0.005536  3.952185  -0.003
C  C253  1  0.18618570  0.61256793  0.16792215  1  0.483193  -0.004939  0.055838  0.118927  -0.005724  3.909532  -0.003
C  C254  1  0.09620247  0.58939374  0.11037975  1  0.014029  0.004253  -0.080247  -0.167254  0.002315  3.933368  0.004
C  C255  1  0.83355515  0.78684289  0.54246114  1  1.534559  0.001363  0.199014  0.550374  0.000663  4.236289  0.0
C  C256  1  0.90026593  0.83654916  0.63687289  1  -0.001778  0.005463  -0.026425  -0.048225  0.003268  3.990203  0.004
C  C257  1  0.11969125  0.05245513  0.96330599  1  -0.034681  0.000259  -0.086283  -0.174267  0.000146  3.926124  0.0
C  C258  1  0.01662818  0.84725119  0.75943253  1  -0.033375  -0.000125  -0.091295  -0.135691  -0.000199  3.989313  0.0
C  C259  1  0.90371878  0.91317238  0.69214500  1  -0.017859  0.001634  -0.08979  -0.097443  0.000778  3.995406  0.001
C  C260  1  0.07160479  0.96292456  0.90974838  1  -0.018031  -2.4e-05  -0.0078  0.076769  -4.9e-05  4.022546  0.0
C  C261  1  0.53507593  0.51808654  0.48698410  1  -0.035199  -0.007298  0.01054  0.101496  -0.008168  3.974264  -0.004
C  C262  1  0.01876836  0.92303612  0.81543825  1  -0.033002  0.000857  -0.005947  0.069576  0.000467  3.997083  0.001
C  C263  1  0.96357195  0.95674981  0.78002281  1  -0.098702  0.000352  -0.09252  -0.135028  0.000149  3.972343  0.0
C  C264  1  0.95929222  0.80536274  0.67132039  1  -0.041801  0.000735  -0.086722  -0.086701  0.000361  3.980321  0.0
C  C265  1  0.76397175  0.68197187  0.26042402  1  0.460294  0.00261  -0.079665  0.038444  0.001627  3.906384  0.001
C  C266  1  0.63282285  0.55135589  0.53686434  1  -0.015146  0.004407  -0.080003  -0.168138  0.002449  3.918632  0.004
C  C267  1  0.69543003  0.58508886  0.50922704  1  0.481366  -0.004711  0.048297  0.089149  -0.005532  3.951016  -0.003
C  C268  1  0.57358263  0.55540532  0.38733992  1  0.455387  -0.004901  0.056905  0.120425  -0.005696  3.907419  -0.003
C  C269  1  0.50676623  0.52096300  0.41050739  1  0.010961  0.00424  -0.080507  -0.168611  0.002323  3.93162  0.004
C  C270  1  0.04665898  0.75552331  0.21315471  1  1.531016  0.001401  0.198354  0.547804  0.000672  4.238227  0.0
C  C271  1  0.06345679  0.80026851  0.16341741  1  -0.012934  0.005488  -0.027393  -0.048058  0.003276  3.990805  0.004
C  C272  1  0.06710861  0.91065106  0.94730653  1  0.031836  0.000256  -0.087585  -0.173977  0.000145  3.926488  0.0
C  C273  1  0.16906007  0.91205574  0.15255837  1  -0.071854  -0.000121  -0.090924  -0.135777  -0.000195  3.989843  0.0
C  C274  1  0.99025519  0.77897195  0.08687915  1  -0.075841  0.001635  -0.088365  -0.097196  0.000774  3.995876  0.001
C  C275  1  0.10845687  0.94663155  0.03683200  1  -0.074611  -2.1e-05  -0.007917  0.074947  -4.9e-05  4.022308  0.0
C  C276  1  0.01701396  0.96893171  0.48190098  1  -0.04936  -0.007329  0.010812  0.102037  -0.008197  3.975514  -0.004
C  C277  1  0.09542713  0.89228072  0.07680603  1  -0.064047  0.000854  -0.004983  0.071801  0.000461  3.993867  0.001
C  C278  1  0.00651222  0.82324285  0.04324617  1  -0.02352  0.000344  -0.092671  -0.134847  0.000152  3.969375  0.0
C  C279  1  0.15361809  0.86585654  0.19447421  1  -0.021099  0.000729  -0.087614  -0.087638  0.000356  3.982529  0.0
C  C280  1  0.08206686  0.57845132  0.31799527  1  0.435345  0.00261  -0.079782  0.039228  0.001635  3.907166  0.001
C  C281  1  0.08152635  0.98555612  0.44863850  1  -0.019208  0.004398  -0.080672  -0.169254  0.00245  3.920357  0.004
C  C282  1  0.11049448  0.92423428  0.41496437  1  0.464387  -0.004703  0.047992  0.087947  -0.005545  3.953106  -0.003
C  C283  1  0.01822270  0.83198733  0.44457329  1  0.485614  -0.004945  0.056616  0.120615  -0.005717  3.906561  -0.003
C  C284  1  0.98575672  0.88955375  0.47894099  1  -0.005238  0.004232  -0.08051  -0.168336  0.002316  3.932808  0.004
C  C285  1  0.45333807  0.78684458  0.24447691  1  1.531  0.001399  0.198415  0.547976  0.000671  4.238053  0.0
C  C286  1  0.43654270  0.83658233  0.19973390  1  -0.01281  0.005488  -0.027372  -0.047889  0.003275  3.99063  0.004
C  C287  1  0.43289664  0.05269497  0.08935217  1  0.032081  0.000256  -0.087636  -0.174014  0.000145  3.926681  0.0
C  C288  1  0.33093912  0.84744374  0.08794554  1  -0.071721  -0.000121  -0.090891  -0.13578  -0.000195  3.989788  0.0
C  C289  1  0.50974309  0.91311780  0.22102848  1  -0.076002  0.001635  -0.088444  -0.097347  0.000774  3.996061  0.001
C  C290  1  0.39154691  0.96316843  0.05336940  1  -0.074279  -2.1e-05  -0.007813  0.074994  -4.9e-05  4.022233  0.0
C  C291  1  0.48298688  0.51809964  0.03107074  1  -0.009218  -0.007292  0.010721  0.10191  -0.008197  3.975515  -0.004
C  C292  1  0.40457469  0.92319705  0.10772308  1  -0.064326  0.000854  -0.005054  0.071731  0.000461  3.993937  0.001
C  C293  1  0.49349023  0.95675390  0.17676145  1  -0.023479  0.000344  -0.092616  -0.134688  0.000152  3.969381  0.0
C  C294  1  0.34637766  0.80552683  0.13414561  1  -0.021167  0.000729  -0.08762  -0.087737  0.000356  3.982392  0.0
C  C295  1  0.41793298  0.68200587  0.42154950  1  0.435432  0.00261  -0.079768  0.039243  0.001635  3.907213  0.001
C  C296  1  0.41847197  0.55135933  0.01444248  1  -0.019156  0.004398  -0.080668  -0.16928  0.00245  3.920265  0.004
C  C297  1  0.38950537  0.58503572  0.07576567  1  0.46451  -0.004703  0.047985  0.08801  -0.005544  3.953105  -0.003
C  C298  1  0.48177731  0.55542886  0.16801427  1  0.485444  -0.004944  0.056594  0.120624  -0.005717  3.90642  -0.003
C  C299  1  0.51424181  0.52105872  0.11044820  1  -0.005259  0.004232  -0.08046  -0.16824  0.002316  3.932783  0.004
C  C300  1  0.20926169  0.75567387  0.54253354  1  1.535637  0.001386  0.199051  0.548083  0.000682  4.234872  0.0
C  C301  1  0.23722009  0.80048865  0.63703967  1  -0.033709  0.005521  -0.026774  -0.048934  0.003265  3.989116  0.004
C  C302  1  0.34374726  0.91091984  0.96352432  1  -0.060141  0.000258  -0.086606  -0.174806  0.000145  3.925848  0.0
C  C303  1  0.24328820  0.91228853  0.75963069  1  -0.023222  -0.000125  -0.090983  -0.135696  -0.000198  3.989279  0.0
C  C304  1  0.28903061  0.77913668  0.69229338  1  0.002489  0.001632  -0.089316  -0.096631  0.000784  3.995531  0.001
C  C305  1  0.33832519  0.94685444  0.90994782  1  -0.004119  -2.4e-05  -0.00814  0.076967  -4.9e-05  4.021486  0.0
C  C306  1  0.45192665  0.96896421  0.48706853  1  -0.051524  -0.00732  0.010649  0.101218  -0.008192  3.975583  -0.004
C  C307  1  0.29708893  0.89247190  0.81562056  1  -0.047596  0.000866  -0.005331  0.069942  0.000471  3.9948  0.001
C  C308  1  0.31697622  0.82340645  0.78019232  1  -0.049982  0.000336  -0.093465  -0.136107  0.000149  3.971158  0.0
C  C309  1  0.21260337  0.86610611  0.67152238  1  -0.060922  0.000744  -0.087061  -0.085957  0.000364  3.979659  0.0
C  C310  1  0.99648052  0.57850580  0.26060788  1  0.437924  0.002633  -0.080232  0.036094  0.001637  3.908428  0.001
C  C311  1  0.40408362  0.98564707  0.53700361  1  -0.036714  0.004414  -0.08044  -0.168037  0.002453  3.92067  0.004
C  C312  1  0.31383121  0.92431899  0.50936162  1  0.459969  -0.004685  0.048016  0.088514  -0.005536  3.952171  -0.003
C  C313  1  0.31381356  0.83208052  0.38743263  1  0.483191  -0.00494  0.055756  0.118744  -0.005725  3.909641  -0.003
C  C314  1  0.40379846  0.88962325  0.41060716  1  0.014031  0.004253  -0.080142  -0.167016  0.002315  3.933291  0.004
C  C315  1  0.66644657  0.45753939  0.21315513  1  1.535143  0.001365  0.19902  0.550413  0.000663  4.236071  0.0
C  C316  1  0.59973729  0.36312945  0.16345102  1  -0.002077  0.005463  -0.026426  -0.048344  0.003268  3.990247  0.004
C  C317  1  0.38030820  0.03669476  0.94754477  1  -0.034736  0.000259  -0.08637  -0.174419  0.000146  3.926192  0.0
C  C318  1  0.48337473  0.24056845  0.15275029  1  -0.032681  -0.000125  -0.09127  -0.135606  -0.000199  3.989328  0.0
C  C319  1  0.59628052  0.30785619  0.08682538  1  -0.017932  0.001635  -0.089826  -0.097494  0.000778  3.995344  0.001
C  C320  1  0.42839660  0.09025066  0.03707721  1  -0.018197  -2.4e-05  -0.007739  0.076856  -4.9e-05  4.022577  0.0
C  C321  1  0.96492079  0.51301604  0.48191453  1  -0.035311  -0.007298  0.010599  0.101601  -0.008168  3.974116  -0.004
C  C322  1  0.48123371  0.18456315  0.07696322  1  -0.03264  0.000857  -0.00591  0.069554  0.000467  3.997041  0.001
C  C323  1  0.53642667  0.21997442  0.04324632  1  -0.099013  0.000352  -0.092592  -0.135053  0.000149  3.972351  0.0
C  C324  1  0.54070861  0.32868021  0.19463666  1  -0.042656  0.000735  -0.086721  -0.086644  0.000361  3.98034  0.0
C  C325  1  0.73603242  0.73957633  0.31802941  1  0.431967  0.002622  -0.079762  0.038161  0.001628  3.90675  0.001
C  C326  1  0.86717474  0.46313601  0.44864343  1  -0.015272  0.004407  -0.080018  -0.168126  0.002449  3.918721  0.004
C  C327  1  0.80456780  0.49077206  0.41490969  1  0.481416  -0.004711  0.048183  0.088918  -0.005532  3.951155  -0.003
C  C328  1  0.92641775  0.61266022  0.44459468  1  0.455391  -0.004901  0.056834  0.120311  -0.005696  3.907459  -0.003
C  C329  1  0.99323406  0.58949217  0.47903809  1  0.011136  0.004241  -0.080489  -0.168586  0.002323  3.931609  0.004
N  N330  1  0.76843621  0.43531558  0.84859045  1  -1.21611  0.07341  -0.328207  -0.221398  0.042525  3.588114  0.066
N  N331  1  0.33317411  0.41318020  0.56478196  1  -1.204294  0.073423  -0.32927  -0.222957  0.042589  3.588463  0.066
N  N332  1  0.91982874  0.15148962  0.58672861  1  -1.21187  0.073455  -0.328767  -0.221016  0.042627  3.588197  0.066
N  N333  1  0.58017281  0.41327242  0.84851209  1  -1.211764  0.073453  -0.328831  -0.22116  0.042626  3.587918  0.066
N  N334  1  0.73156672  0.15141118  0.56468533  1  -1.216125  0.073411  -0.328204  -0.221333  0.042526  3.58811  0.066
N  N335  1  0.16682260  0.43521711  0.58681894  1  -1.204399  0.073426  -0.329215  -0.222775  0.042591  3.58839  0.066
N  N336  1  0.23156399  0.56468478  0.15141077  1  -1.216002  0.073411  -0.328212  -0.221365  0.042525  3.588135  0.066
N  N337  1  0.66682197  0.58681695  0.43521698  1  -1.204381  0.073423  -0.329222  -0.222865  0.042588  3.588502  0.066
N  N338  1  0.08017083  0.84851073  0.41327244  1  -1.211805  0.073457  -0.32876  -0.220989  0.042628  3.588177  0.066
N  N339  1  0.41982771  0.58672858  0.15148998  1  -1.211791  0.073455  -0.32877  -0.221021  0.042626  3.588081  0.066
N  N340  1  0.26843415  0.84859175  0.43531488  1  -1.216049  0.073409  -0.32815  -0.221211  0.042525  3.588027  0.066
N  N341  1  0.83317888  0.56478454  0.41318362  1  -1.204346  0.073425  -0.329203  -0.222803  0.04259  3.588471  0.066
O  O342  1  0.64761520  0.49638748  0.76874231  1  -1.158187  0.070055  -0.320306  -0.570345  0.039107  2.414085  0.064
O  O343  1  0.49326861  0.30605470  0.65747044  1  -1.129049  0.065935  -0.391722  -0.460649  0.037195  2.437929  0.059
O  O344  1  0.74628401  0.51417122  0.70845055  1  -1.1776  0.00176  -0.326847  -0.550123  0.000227  2.140534  0.001
O  O345  1  0.15112790  0.27247920  0.50380667  1  -1.156003  0.070167  -0.320186  -0.571565  0.039129  2.41718  0.064
O  O346  1  0.18728495  0.35153715  0.69420005  1  -1.12553  0.065987  -0.392017  -0.460396  0.037216  2.438505  0.059
O  O347  1  0.23180757  0.19423375  0.48575064  1  -1.1751  0.001737  -0.327292  -0.55168  0.000204  2.141147  0.001
O  O348  1  0.87865750  0.23131132  0.72754561  1  -1.158758  0.07008  -0.319897  -0.570245  0.039108  2.416011  0.064
O  O349  1  0.83573611  0.34265720  0.64853972  1  -1.1304  0.065905  -0.391475  -0.459794  0.037164  2.438187  0.059
O  O350  1  0.03756598  0.29169141  0.80570662  1  -1.172536  0.001762  -0.326088  -0.550207  0.000222  2.142771  0.001
O  O351  1  0.62135152  0.27245597  0.76869162  1  -1.158995  0.07008  -0.319794  -0.570151  0.039106  2.415995  0.064
O  O352  1  0.66426370  0.35146114  0.65734013  1  -1.130555  0.065903  -0.391514  -0.459805  0.037161  2.438324  0.059
O  O353  1  0.46244265  0.19430376  0.70831857  1  -1.17276  0.001761  -0.326041  -0.550148  0.000222  2.142728  0.001
O  O354  1  0.85238454  0.23125637  0.50361159  1  -1.158228  0.070051  -0.320314  -0.570331  0.039105  2.414155  0.064
O  O355  1  0.00673275  0.34252776  0.69394410  1  -1.129223  0.06594  -0.391766  -0.460699  0.037198  2.43788  0.059
O  O356  1  0.75371880  0.29155006  0.48583022  1  -1.177577  0.00176  -0.326833  -0.550078  0.000227  2.140523  0.001
O  O357  1  0.34886951  0.49619254  0.72752447  1  -1.156159  0.070156  -0.320176  -0.571579  0.039124  2.417255  0.064
O  O358  1  0.31271200  0.30579918  0.64846141  1  -1.125573  0.065985  -0.392038  -0.460443  0.037216  2.438565  0.059
O  O359  1  0.26818768  0.51425156  0.80577042  1  -1.175337  0.001738  -0.32737  -0.551788  0.000205  2.141016  0.001
O  O360  1  0.35238533  0.50361223  0.23125610  1  -1.158229  0.070057  -0.320339  -0.570398  0.039108  2.414114  0.064
O  O361  1  0.50673000  0.69394244  0.34252705  1  -1.129204  0.065938  -0.391735  -0.460634  0.037197  2.437895  0.059
O  O362  1  0.25371812  0.48583171  0.29155053  1  -1.177602  0.00176  -0.32685  -0.550095  0.000227  2.140532  0.001
O  O363  1  0.84887233  0.72752244  0.49619343  1  -1.155935  0.070165  -0.320162  -0.571556  0.039128  2.417172  0.064
O  O364  1  0.81271682  0.64846257  0.30580028  1  -1.125568  0.065987  -0.392084  -0.460482  0.037215  2.438526  0.059
O  O365  1  0.76819010  0.80576533  0.51425050  1  -1.175153  0.001737  -0.32736  -0.551765  0.000204  2.141132  0.001
O  O366  1  0.12134524  0.76869161  0.27245776  1  -1.15882  0.070084  -0.319798  -0.570086  0.039109  2.416097  0.064
O  O367  1  0.16426505  0.65734251  0.35145885  1  -1.130681  0.065909  -0.391505  -0.459841  0.037164  2.438203  0.059
O  O368  1  0.96243614  0.70831152  0.19429553  1  -1.17258  0.001761  -0.326039  -0.550083  0.000222  2.142864  0.001
O  O369  1  0.37864997  0.72754567  0.23130882  1  -1.158959  0.070083  -0.319826  -0.570208  0.039108  2.415998  0.064
O  O370  1  0.33573653  0.64854050  0.34265891  1  -1.130383  0.065903  -0.391513  -0.459828  0.037163  2.438248  0.059
O  O371  1  0.53756167  0.80569853  0.29168392  1  -1.172399  0.001761  -0.326031  -0.550147  0.000222  2.142758  0.001
O  O372  1  0.14761473  0.76874334  0.49638754  1  -1.158347  0.070047  -0.320345  -0.570384  0.039102  2.4142  0.064
O  O373  1  0.99326810  0.65747260  0.30605570  1  -1.129185  0.065942  -0.391717  -0.460646  0.037199  2.43776  0.059
O  O374  1  0.24628111  0.70844966  0.51416749  1  -1.177547  0.001761  -0.326904  -0.550148  0.000227  2.140417  0.001
O  O375  1  0.65112943  0.50380653  0.27247488  1  -1.156123  0.070158  -0.320211  -0.571629  0.039125  2.417091  0.064
O  O376  1  0.68728631  0.69419990  0.35153778  1  -1.125551  0.065985  -0.392028  -0.460442  0.037216  2.438556  0.059
O  O377  1  0.73181312  0.48574494  0.19422954  1  -1.175345  0.001738  -0.327338  -0.551727  0.000205  2.141023  0.001
