# generated using pymatgen
data_CoH18C26N4O5
_symmetry_space_group_name_H-M   'P 1'
_cell_length_a   12.39221047
_cell_length_b   20.27305961
_cell_length_c   21.44137320
_cell_angle_alpha   90.00024315
_cell_angle_beta   89.99953277
_cell_angle_gamma   89.99993039
_symmetry_Int_Tables_number   1
_chemical_formula_structural   CoH18C26N4O5
_chemical_formula_sum   'Co8 H144 C208 N32 O40'
_cell_volume   5386.67376972
_cell_formula_units_Z   8
loop_
 _symmetry_equiv_pos_site_id
 _symmetry_equiv_pos_as_xyz
  1  'x, y, z'
loop_
 _atom_site_type_symbol
 _atom_site_label
 _atom_site_symmetry_multiplicity
 _atom_site_fract_x
 _atom_site_fract_y
 _atom_site_fract_z
 _atom_site_occupancy
 _atom_site_pbe_bader_charge
 _atom_site_pbe_bader_spin_density
 _atom_site_pbe_cm5_charge
 _atom_site_pbe_ddec_charge
 _atom_site_pbe_ddec_spin_density
 _atom_site_pbe_ddec_sum_bond_order
 _atom_site_pbe_magmom
Co  Co0  1  0.51329010  0.95044153  0.91701845  1  1.291405  2.592977  0.672399  0.874138  2.836204  2.559819  2.574
Co  Co1  1  0.51329974  0.04956146  0.58297974  1  1.291526  2.592928  0.672531  0.874217  2.836181  2.560252  2.574
Co  Co2  1  0.98669431  0.54954921  0.91703379  1  1.291378  2.593021  0.67238  0.874242  2.836257  2.559442  2.574
Co  Co3  1  0.98668627  0.45045291  0.58295984  1  1.291462  2.592994  0.672467  0.874349  2.836266  2.559805  2.574
Co  Co4  1  0.48671883  0.04951250  0.08296799  1  1.291239  2.592912  0.672492  0.874299  2.836213  2.558984  2.574
Co  Co5  1  0.48672856  0.95049418  0.41703887  1  1.290916  2.592904  0.672568  0.874427  2.836224  2.558857  2.574
Co  Co6  1  0.01327105  0.45048374  0.08298296  1  1.291177  2.592904  0.672452  0.874223  2.836176  2.558708  2.574
Co  Co7  1  0.01327586  0.54951838  0.41702007  1  1.291055  2.5929  0.672478  0.874141  2.836189  2.559286  2.574
H  H8  1  0.22631039  0.56232352  0.65812681  1  0.111645  0.000213  0.113473  0.121441  4.7e-05  0.980257  0.0
H  H9  1  0.22631082  0.43768315  0.84186993  1  0.111629  0.000214  0.11344  0.121467  4.7e-05  0.980296  0.0
H  H10  1  0.27370999  0.93768372  0.65813678  1  0.111308  0.000214  0.1134  0.121346  4.7e-05  0.980521  0.0
H  H11  1  0.27372563  0.06232539  0.84186534  1  0.111317  0.000214  0.113437  0.12137  4.7e-05  0.980513  0.0
H  H12  1  0.77371629  0.43768082  0.34184096  1  0.110529  0.000214  0.113465  0.121446  4.7e-05  0.980349  0.0
H  H13  1  0.77371828  0.56231083  0.15815568  1  0.110696  0.000214  0.113484  0.1215  4.7e-05  0.980371  0.0
H  H14  1  0.72629491  0.06232753  0.34185665  1  0.111125  0.000214  0.113381  0.121359  4.7e-05  0.980259  0.0
H  H15  1  0.72629057  0.93767353  0.15814815  1  0.110945  0.000214  0.113457  0.121377  4.7e-05  0.980392  0.0
H  H16  1  0.27433843  0.94738632  0.91093451  1  0.144135  0.001417  0.122147  0.093302  0.000265  1.016327  0.001
H  H17  1  0.27433668  0.05262179  0.58907414  1  0.144062  0.001417  0.122214  0.093356  0.000265  1.016295  0.001
H  H18  1  0.22565902  0.55260577  0.91094269  1  0.144426  0.001417  0.122141  0.093317  0.000265  1.016235  0.001
H  H19  1  0.22567349  0.44739893  0.58904892  1  0.14446  0.001416  0.122128  0.093413  0.000265  1.016102  0.001
H  H20  1  0.72567857  0.05261111  0.08907851  1  0.143859  0.001414  0.122029  0.093097  0.000263  1.016627  0.001
H  H21  1  0.72567064  0.94738353  0.41092302  1  0.143948  0.001414  0.122147  0.09326  0.000264  1.016429  0.001
H  H22  1  0.77432974  0.44738327  0.08908712  1  0.143966  0.001415  0.122054  0.093082  0.000264  1.016625  0.001
H  H23  1  0.77432737  0.55261035  0.41092119  1  0.143807  0.001414  0.12202  0.0931  0.000263  1.016576  0.001
H  H24  1  0.38908010  0.62766295  0.69060676  1  0.06552  0.000156  0.107641  0.120903  7.5e-05  0.99144  0.0
H  H25  1  0.38908675  0.37233767  0.80939202  1  0.066063  0.000156  0.107604  0.12083  7.5e-05  0.991474  0.0
H  H26  1  0.11092772  0.87233111  0.69061863  1  0.066397  0.000156  0.107609  0.120923  7.5e-05  0.991422  0.0
H  H27  1  0.11095338  0.12767417  0.80938006  1  0.066254  0.000156  0.107661  0.120899  7.5e-05  0.991407  0.0
H  H28  1  0.61092561  0.37233695  0.30934610  1  0.067459  0.000156  0.107542  0.120675  7.6e-05  0.991267  0.0
H  H29  1  0.61093025  0.62765137  0.19064712  1  0.067032  0.000156  0.107525  0.120686  7.6e-05  0.991286  0.0
H  H30  1  0.88907960  0.12766632  0.30936921  1  0.067143  0.000156  0.107571  0.120836  7.6e-05  0.99131  0.0
H  H31  1  0.88907330  0.87233165  0.19063436  1  0.067193  0.000156  0.107585  0.1208  7.6e-05  0.991384  0.0
H  H32  1  0.65148759  0.77250901  0.79947119  1  0.108531  0.000577  0.105439  0.110089  0.000316  0.99719  0.0
H  H33  1  0.65149362  0.22749436  0.70053101  1  0.108111  0.000577  0.105409  0.110048  0.000316  0.997117  0.0
H  H34  1  0.84850494  0.72749254  0.79947857  1  0.108096  0.000577  0.105438  0.110189  0.000316  0.997111  0.0
H  H35  1  0.84850525  0.27251758  0.70052877  1  0.110256  0.000576  0.105446  0.110121  0.000316  0.997178  0.0
H  H36  1  0.34847374  0.22747461  0.20051804  1  0.110096  0.000575  0.105418  0.110016  0.000316  0.997209  0.0
H  H37  1  0.34849271  0.77252379  0.29949087  1  0.110245  0.000575  0.105431  0.109979  0.000316  0.997336  0.0
H  H38  1  0.15149350  0.27251821  0.20052512  1  0.110263  0.000575  0.105428  0.110116  0.000315  0.997151  0.0
H  H39  1  0.15148513  0.72748775  0.29948378  1  0.108326  0.000576  0.105476  0.110187  0.000316  0.997134  0.0
H  H40  1  0.34349837  0.78769496  0.65088025  1  0.085399  3.2e-05  0.102432  0.116078  8e-06  1.032213  0.0
H  H41  1  0.34348943  0.21230915  0.84912527  1  0.085191  3.2e-05  0.102392  0.116042  8e-06  1.032149  0.0
H  H42  1  0.15651647  0.71230237  0.65089686  1  0.085217  3.2e-05  0.102489  0.116118  8e-06  1.032192  0.0
H  H43  1  0.15652675  0.28770189  0.84909881  1  0.084657  3.2e-05  0.102468  0.116065  8e-06  1.032235  0.0
H  H44  1  0.65653235  0.21229754  0.34910339  1  0.084972  3.2e-05  0.10245  0.116073  8e-06  1.032233  0.0
H  H45  1  0.65653968  0.78769371  0.15090034  1  0.084476  3.2e-05  0.102509  0.116089  8e-06  1.032084  0.0
H  H46  1  0.84346907  0.28769506  0.34911429  1  0.084963  3.2e-05  0.102355  0.115882  8e-06  1.032419  0.0
H  H47  1  0.84345717  0.71229456  0.15088903  1  0.084693  3.2e-05  0.102401  0.115862  8e-06  1.032389  0.0
H  H48  1  0.65177159  0.70479035  0.70081739  1  0.074377  2e-05  0.101932  0.115634  -1.8e-05  1.019331  0.0
H  H49  1  0.65177530  0.29521894  0.79918621  1  0.074219  2e-05  0.101917  0.115596  -1.8e-05  1.019433  0.0
H  H50  1  0.84824331  0.79521273  0.70082691  1  0.07463  2e-05  0.101984  0.115678  -1.8e-05  1.019238  0.0
H  H51  1  0.84824396  0.20479393  0.79917064  1  0.074751  2e-05  0.101943  0.11557  -1.8e-05  1.019316  0.0
H  H52  1  0.34820426  0.29521448  0.29916578  1  0.074101  2e-05  0.101906  0.115592  -1.8e-05  1.019415  0.0
H  H53  1  0.34821104  0.70477898  0.20084360  1  0.074  2e-05  0.10196  0.1157  -1.8e-05  1.019312  0.0
H  H54  1  0.15178499  0.20478963  0.29917539  1  0.074275  2e-05  0.101909  0.115642  -1.8e-05  1.019455  0.0
H  H55  1  0.15177143  0.79521534  0.20082839  1  0.074493  2e-05  0.101957  0.115728  -1.8e-05  1.019238  0.0
H  H56  1  0.24051730  0.65009969  0.47583873  1  0.108106  0.000171  0.113722  0.124853  1.3e-05  0.985604  0.0
H  H57  1  0.24050220  0.34990866  0.02415717  1  0.114675  0.00017  0.113762  0.124883  1.3e-05  0.985564  0.0
H  H58  1  0.25949759  0.84990623  0.47584934  1  0.114657  0.00017  0.113678  0.124807  1.3e-05  0.985285  0.0
H  H59  1  0.25949819  0.15010260  0.02415206  1  0.108644  0.00017  0.113681  0.124768  1.3e-05  0.985444  0.0
H  H60  1  0.75950697  0.34990070  0.52412439  1  0.109014  0.00017  0.113705  0.124944  1.3e-05  0.985321  0.0
H  H61  1  0.75951641  0.65010061  0.97587497  1  0.109053  0.00017  0.113723  0.124962  1.3e-05  0.985359  0.0
H  H62  1  0.74047261  0.15010156  0.52414223  1  0.108755  0.000171  0.113574  0.124764  1.3e-05  0.98544  0.0
H  H63  1  0.74047604  0.84989927  0.97586236  1  0.108498  0.000171  0.113554  0.124743  1.3e-05  0.98541  0.0
H  H64  1  0.75506940  0.95028161  0.91799729  1  0.165039  0.001555  0.119647  0.091667  0.000401  1.039399  0.001
H  H65  1  0.75506291  0.04971970  0.58200069  1  0.164977  0.001556  0.11967  0.091676  0.000401  1.039405  0.001
H  H66  1  0.74492710  0.54970666  0.91801424  1  0.169665  0.001557  0.119677  0.091866  0.000401  1.039167  0.001
H  H67  1  0.74493118  0.45028628  0.58198333  1  0.169549  0.001558  0.119644  0.091796  0.000401  1.039121  0.001
H  H68  1  0.24494276  0.04973259  0.08201059  1  0.165086  0.001556  0.119677  0.091706  0.000401  1.039109  0.001
H  H69  1  0.24494038  0.95025504  0.41798341  1  0.16529  0.001556  0.11971  0.091676  0.000401  1.039187  0.001
H  H70  1  0.25506731  0.45025920  0.08202256  1  0.165394  0.001555  0.119704  0.091762  0.000401  1.038957  0.001
H  H71  1  0.25506484  0.54974914  0.41797093  1  0.165315  0.001556  0.119719  0.091746  0.000401  1.03894  0.001
H  H72  1  0.34875335  0.85865437  0.74641204  1  0.091682  0.000625  0.108237  0.113232  0.000342  0.995238  0.0
H  H73  1  0.34875234  0.14134628  0.75359112  1  0.091702  0.000626  0.108272  0.11328  0.000342  0.995164  0.0
H  H74  1  0.15124399  0.64134537  0.74642606  1  0.091633  0.000625  0.108162  0.113179  0.000342  0.995192  0.0
H  H75  1  0.15124259  0.35866235  0.75356963  1  0.09082  0.000625  0.108189  0.113171  0.000342  0.995199  0.0
H  H76  1  0.65121200  0.14133270  0.25356973  1  0.091044  0.000626  0.108279  0.113293  0.000342  0.995263  0.0
H  H77  1  0.65123803  0.85866003  0.24642703  1  0.091458  0.000625  0.108215  0.113212  0.000342  0.995183  0.0
H  H78  1  0.84875041  0.35865552  0.25357996  1  0.091526  0.000625  0.108222  0.113283  0.000342  0.995135  0.0
H  H79  1  0.84875101  0.64133607  0.24642613  1  0.091446  0.000626  0.108213  0.113216  0.000343  0.995312  0.0
H  H80  1  0.49106480  0.84791479  0.02408295  1  0.080405  0.001584  0.119739  0.089752  0.000313  0.995145  0.001
H  H81  1  0.49107434  0.15209040  0.47592482  1  0.080311  0.001585  0.119762  0.089805  0.000314  0.995053  0.001
H  H82  1  0.00892662  0.65207429  0.02409209  1  0.080272  0.001583  0.119734  0.089727  0.000313  0.995175  0.001
H  H83  1  0.00894146  0.34792833  0.47590489  1  0.08042  0.001584  0.119765  0.089795  0.000313  0.995299  0.001
H  H84  1  0.50892477  0.15207524  0.97594080  1  0.080404  0.001584  0.119762  0.089835  0.000313  0.995218  0.001
H  H85  1  0.50892491  0.84792084  0.52406861  1  0.080314  0.001583  0.119782  0.089822  0.000313  0.995137  0.001
H  H86  1  0.99106940  0.34791722  0.97594378  1  0.080457  0.001584  0.119766  0.089811  0.000313  0.995076  0.001
H  H87  1  0.99106990  0.65207897  0.52406195  1  0.08046  0.001584  0.119762  0.089781  0.000313  0.995108  0.001
H  H88  1  0.40346776  0.71548154  0.50793949  1  0.071296  0.000126  0.113507  0.132242  5.7e-05  0.97843  0.0
H  H89  1  0.40344860  0.28452746  0.99206388  1  0.070729  0.000126  0.113604  0.132398  5.7e-05  0.978412  0.0
H  H90  1  0.09655797  0.78452206  0.50793989  1  0.071027  0.000126  0.113615  0.132398  5.7e-05  0.978243  0.0
H  H91  1  0.09656152  0.21548127  0.99205467  1  0.070811  0.000126  0.113611  0.132413  5.7e-05  0.978219  0.0
H  H92  1  0.59656134  0.28452132  0.49203715  1  0.071414  0.000126  0.113563  0.132287  5.7e-05  0.978345  0.0
H  H93  1  0.59656841  0.71548182  0.00796686  1  0.071504  0.000126  0.113504  0.132187  5.7e-05  0.978176  0.0
H  H94  1  0.90343725  0.21549017  0.49205354  1  0.070882  0.000126  0.113578  0.13237  5.8e-05  0.978407  0.0
H  H95  1  0.90343369  0.78450975  0.00795182  1  0.071016  0.000126  0.113567  0.132383  5.7e-05  0.978311  0.0
H  H96  1  0.00564761  0.01920077  0.83894396  1  0.087855  0.000437  0.109583  0.071059  0.000185  1.008744  0.0
H  H97  1  0.00564153  0.98080066  0.66105615  1  0.087833  0.000437  0.109465  0.070931  0.000185  1.008786  0.0
H  H98  1  0.49433966  0.48079839  0.83895259  1  0.087949  0.000437  0.109589  0.071094  0.000185  1.008859  0.0
H  H99  1  0.49434815  0.51918982  0.66104289  1  0.088445  0.000437  0.109541  0.071036  0.000185  1.008883  0.0
H  H100  1  0.99435326  0.98080900  0.16106579  1  0.087806  0.000437  0.109495  0.070962  0.000185  1.008651  0.0
H  H101  1  0.99435530  0.01918346  0.33893121  1  0.087735  0.000437  0.109517  0.071053  0.000185  1.008599  0.0
H  H102  1  0.50564345  0.51919263  0.16107162  1  0.087502  0.000437  0.109531  0.070978  0.000185  1.008767  0.0
H  H103  1  0.50564142  0.48081304  0.33892163  1  0.087555  0.000437  0.109488  0.070959  0.000185  1.00868  0.0
H  H104  1  0.53231006  0.05276178  0.81154389  1  0.142183  0.001398  0.123592  0.103159  0.000274  0.988289  0.001
H  H105  1  0.53229802  0.94723527  0.68844862  1  0.142005  0.001398  0.123512  0.103127  0.000274  0.988375  0.001
H  H106  1  0.96768159  0.44722106  0.81155205  1  0.142285  0.001398  0.123566  0.103111  0.000274  0.988234  0.001
H  H107  1  0.96767833  0.55277663  0.68844307  1  0.142176  0.001398  0.123585  0.103194  0.000274  0.988336  0.001
H  H108  1  0.46768596  0.94722529  0.18845327  1  0.142107  0.001397  0.123579  0.103144  0.000274  0.988279  0.001
H  H109  1  0.46769236  0.05276315  0.31154435  1  0.142118  0.001398  0.123563  0.103174  0.000274  0.9883  0.001
H  H110  1  0.03229910  0.55275763  0.18846097  1  0.141872  0.001398  0.123546  0.10319  0.000274  0.988249  0.001
H  H111  1  0.03230559  0.44723856  0.31153590  1  0.141964  0.001398  0.123568  0.10322  0.000274  0.988386  0.001
H  H112  1  0.15138660  0.83696897  0.06767982  1  0.116756  -0.000218  0.103221  0.101908  -0.000317  1.044598  0.0
H  H113  1  0.15139674  0.16303205  0.43232163  1  0.116954  -0.000218  0.103248  0.101916  -0.000317  1.044601  0.0
H  H114  1  0.34861550  0.66302968  0.06768647  1  0.116627  -0.000218  0.1032  0.101805  -0.000317  1.044656  0.0
H  H115  1  0.34861644  0.33698056  0.43230052  1  0.116893  -0.000219  0.103217  0.101837  -0.000317  1.044691  0.0
H  H116  1  0.84861507  0.16302994  0.93232761  1  0.116782  -0.000218  0.103212  0.101884  -0.000317  1.04442  0.0
H  H117  1  0.84862107  0.83696686  0.56767134  1  0.116702  -0.000218  0.103221  0.101923  -0.000317  1.044395  0.0
H  H118  1  0.65139021  0.33697811  0.93233775  1  0.116766  -0.000219  0.103215  0.101871  -0.000317  1.044557  0.0
H  H119  1  0.65138684  0.66302526  0.56766539  1  0.116846  -0.000218  0.103171  0.101823  -0.000317  1.044584  0.0
H  H120  1  0.34362174  0.80490373  0.09191562  1  0.064863  0.000903  0.103182  0.10802  0.000406  1.020563  0.0
H  H121  1  0.34362893  0.19509171  0.40808865  1  0.064988  0.000903  0.103168  0.108003  0.000407  1.020569  0.0
H  H122  1  0.15637356  0.69509059  0.09192703  1  0.064554  0.000902  0.103228  0.108062  0.000406  1.02043  0.0
H  H123  1  0.15637007  0.30491685  0.40805899  1  0.064686  0.000902  0.10314  0.10801  0.000406  1.020433  0.0
H  H124  1  0.65636379  0.19508729  0.90809087  1  0.065143  0.000902  0.103207  0.108084  0.000406  1.020561  0.0
H  H125  1  0.65636386  0.80490918  0.59191644  1  0.064874  0.000903  0.103123  0.107979  0.000406  1.020563  0.0
H  H126  1  0.84362649  0.30491128  0.90810417  1  0.065293  0.000902  0.103298  0.108244  0.000406  1.020585  0.0
H  H127  1  0.84362595  0.69508305  0.59190599  1  0.065286  0.000903  0.103206  0.108101  0.000406  1.020646  0.0
H  H128  1  0.87212858  0.08501274  0.77755233  1  0.093084  -0.000153  0.106115  0.103945  -0.000259  0.99602  0.0
H  H129  1  0.87212499  0.91498700  0.72244511  1  0.093413  -0.000152  0.106125  0.103935  -0.000259  0.996101  0.0
H  H130  1  0.62785225  0.41498573  0.77754936  1  0.093001  -0.000152  0.106094  0.103816  -0.000259  0.996092  0.0
H  H131  1  0.62785813  0.58500730  0.72245155  1  0.093275  -0.000152  0.106123  0.10389  -0.000259  0.996038  0.0
H  H132  1  0.12785695  0.91498913  0.22246769  1  0.093248  -0.000152  0.106102  0.103864  -0.000259  0.996115  0.0
H  H133  1  0.12786135  0.08500353  0.27753107  1  0.093328  -0.000152  0.106123  0.10398  -0.000259  0.995941  0.0
H  H134  1  0.37212602  0.58501565  0.22246552  1  0.093212  -0.000152  0.106138  0.103933  -0.000259  0.996005  0.0
H  H135  1  0.37213385  0.41499506  0.27752882  1  0.093203  -0.000152  0.106109  0.103958  -0.000259  0.995944  0.0
H  H136  1  0.02251977  0.89886728  0.00184304  1  0.107446  0.000259  0.112013  0.077119  8.6e-05  1.015809  0.0
H  H137  1  0.02252183  0.10113286  0.49815901  1  0.1075  0.00026  0.112042  0.077165  8.6e-05  1.015802  0.0
H  H138  1  0.47747923  0.60113108  0.00184837  1  0.107339  0.00026  0.112031  0.077186  8.6e-05  1.015772  0.0
H  H139  1  0.47748720  0.39887314  0.49814127  1  0.106467  0.00026  0.112001  0.077185  8.6e-05  1.01563  0.0
H  H140  1  0.97748755  0.10114101  0.99817278  1  0.107558  0.000259  0.112041  0.077185  8.6e-05  1.015654  0.0
H  H141  1  0.97747903  0.89886210  0.50182603  1  0.107518  0.000259  0.11194  0.076996  8.6e-05  1.01588  0.0
H  H142  1  0.52251437  0.39886438  0.99817537  1  0.107682  0.000259  0.111946  0.077101  8.6e-05  1.015809  0.0
H  H143  1  0.52251608  0.60113219  0.50181904  1  0.107848  0.000259  0.11189  0.077042  8.6e-05  1.016022  0.0
H  H144  1  0.67853616  0.10975397  0.75154657  1  0.115116  0.000704  0.105538  0.113047  0.00027  1.027409  0.0
H  H145  1  0.67852095  0.89024000  0.74845038  1  0.115607  0.000704  0.105482  0.113017  0.00027  1.027373  0.0
H  H146  1  0.82144827  0.39023698  0.75155099  1  0.115059  0.000704  0.105492  0.113024  0.00027  1.027418  0.0
H  H147  1  0.82145616  0.60976674  0.74844575  1  0.114999  0.000704  0.1055  0.113055  0.00027  1.027383  0.0
H  H148  1  0.32146631  0.89022324  0.24845899  1  0.115365  0.000703  0.105506  0.113006  0.00027  1.027491  0.0
H  H149  1  0.32147265  0.10977124  0.25154165  1  0.115641  0.000703  0.105498  0.113037  0.00027  1.027466  0.0
H  H150  1  0.17851225  0.60976883  0.24846016  1  0.115656  0.000703  0.105532  0.113064  0.00027  1.027453  0.0
H  H151  1  0.17852292  0.39023168  0.25153929  1  0.115606  0.000703  0.105571  0.113081  0.00027  1.027452  0.0
C  C152  1  0.26571438  0.59602185  0.62572261  1  -0.058222  -0.001531  -0.077162  -0.066853  -0.001932  3.98494  -0.001
C  C153  1  0.26571522  0.40398282  0.87427161  1  -0.058334  -0.001526  -0.077127  -0.066988  -0.001928  3.984969  -0.001
C  C154  1  0.23430646  0.90398327  0.62573823  1  -0.058425  -0.001532  -0.077151  -0.06704  -0.001933  3.984916  -0.001
C  C155  1  0.23431513  0.09601699  0.87426547  1  -0.058473  -0.001529  -0.077159  -0.066962  -0.00193  3.98487  -0.001
C  C156  1  0.73431634  0.40398298  0.37424050  1  -0.045477  -0.001541  -0.077056  -0.067168  -0.001946  3.984549  -0.001
C  C157  1  0.73431308  0.59600623  0.12575866  1  -0.045968  -0.001537  -0.077003  -0.067106  -0.001942  3.984663  -0.001
C  C158  1  0.76570247  0.09601910  0.37426360  1  -0.057998  -0.001546  -0.077004  -0.066638  -0.001947  3.984643  -0.001
C  C159  1  0.76570591  0.90398291  0.12574288  1  -0.058341  -0.001542  -0.077089  -0.066835  -0.001943  3.984855  -0.001
C  C160  1  0.22454620  0.60194091  0.56500740  1  0.041631  0.008935  -0.024415  -0.060177  0.004525  3.992434  0.007
C  C161  1  0.22453893  0.39805836  0.93498329  1  0.042146  0.008928  -0.024432  -0.060122  0.004522  3.992507  0.007
C  C162  1  0.27547792  0.89806590  0.56502512  1  0.042238  0.00893  -0.024304  -0.059713  0.004523  3.992689  0.007
C  C163  1  0.27548572  0.10193728  0.93497698  1  0.04155  0.008926  -0.024423  -0.059891  0.00452  3.992502  0.007
C  C164  1  0.77546435  0.39806589  0.43496785  1  0.040176  0.008931  -0.024433  -0.059764  0.00452  3.992545  0.007
C  C165  1  0.77546113  0.60193266  0.06503253  1  0.042154  0.008927  -0.024446  -0.059694  0.004519  3.992627  0.007
C  C166  1  0.72454069  0.10193893  0.43498277  1  0.042062  0.008935  -0.024457  -0.060431  0.004524  3.992913  0.007
C  C167  1  0.72454500  0.89806607  0.06502344  1  0.042242  0.008931  -0.024353  -0.060066  0.004522  3.992805  0.007
C  C168  1  0.49758055  0.74267757  0.67117701  1  0.375996  -0.001839  0.080046  0.252266  -0.002035  4.060415  -0.001
C  C169  1  0.49758149  0.25732050  0.82882919  1  0.376711  -0.001838  0.079943  0.252081  -0.002034  4.060612  -0.001
C  C170  1  0.00243078  0.75731493  0.67118473  1  0.376008  -0.001835  0.080055  0.252206  -0.00203  4.060796  -0.001
C  C171  1  0.00243578  0.24268551  0.82881447  1  0.376132  -0.001836  0.080086  0.252267  -0.002031  4.060702  -0.001
C  C172  1  0.50241709  0.25731888  0.32880523  1  0.376631  -0.001831  0.080032  0.252058  -0.002026  4.060236  -0.001
C  C173  1  0.50242099  0.74267545  0.17119969  1  0.37648  -0.001831  0.080034  0.252143  -0.002026  4.060515  -0.001
C  C174  1  0.99757493  0.24268398  0.32881383  1  0.375814  -0.001831  0.080115  0.252255  -0.002026  4.06052  -0.001
C  C175  1  0.99756347  0.75731587  0.17119249  1  0.3762  -0.001834  0.07996  0.252003  -0.002028  4.060843  -0.001
C  C176  1  0.50507836  0.86522677  0.83266223  1  1.534908  -0.005369  0.184547  0.536062  -0.006919  4.24481  -0.006
C  C177  1  0.50510117  0.13478116  0.66733507  1  1.535588  -0.005366  0.184616  0.535954  -0.006919  4.244788  -0.006
C  C178  1  0.99491854  0.63477197  0.83266994  1  1.535253  -0.005359  0.184505  0.535948  -0.00691  4.245071  -0.006
C  C179  1  0.99491430  0.36523211  0.66732412  1  1.535333  -0.005362  0.184666  0.536105  -0.006914  4.245384  -0.006
C  C180  1  0.49489749  0.13478398  0.16734426  1  1.536023  -0.005345  0.184514  0.535766  -0.006895  4.245761  -0.006
C  C181  1  0.49490211  0.86520543  0.33267095  1  1.535516  -0.005344  0.184533  0.535878  -0.006894  4.245346  -0.006
C  C182  1  0.00507103  0.36520919  0.16734634  1  1.5352  -0.005348  0.184451  0.535536  -0.006896  4.245686  -0.006
C  C183  1  0.00506477  0.63478554  0.33266139  1  1.534813  -0.005354  0.184449  0.535844  -0.006902  4.245176  -0.006
C  C184  1  0.50026205  0.81957987  0.77841142  1  0.018169  0.003012  -0.022841  -0.04321  0.001618  3.989096  0.002
C  C185  1  0.50027191  0.18042264  0.72159382  1  0.01953  0.003013  -0.022929  -0.043102  0.001619  3.988792  0.002
C  C186  1  0.99973888  0.68042199  0.77841979  1  0.018425  0.003014  -0.022846  -0.042794  0.001619  3.988971  0.002
C  C187  1  0.99973477  0.31958585  0.72157802  1  0.019286  0.003013  -0.02287  -0.042814  0.001619  3.989229  0.002
C  C188  1  0.49971703  0.18043236  0.22158900  1  0.025447  0.003016  -0.022748  -0.042532  0.001622  3.989238  0.002
C  C189  1  0.49973218  0.81956197  0.27842153  1  0.019621  0.003018  -0.022846  -0.04269  0.001623  3.989024  0.002
C  C190  1  0.00024588  0.31956154  0.22159092  1  0.018526  0.003017  -0.022842  -0.0429  0.001622  3.989156  0.002
C  C191  1  0.00023627  0.68043714  0.27841729  1  0.017187  0.003017  -0.022754  -0.042891  0.001621  3.988759  0.002
C  C192  1  0.40552247  0.67376777  0.60034860  1  0.337415  -0.002005  0.080916  0.249982  -0.002232  4.060423  -0.001
C  C193  1  0.40551664  0.32623629  0.89965056  1  0.337846  -0.001999  0.080939  0.250012  -0.002226  4.060195  -0.001
C  C194  1  0.09448420  0.82623526  0.60035430  1  0.3384  -0.002006  0.080943  0.250162  -0.002233  4.059828  -0.001
C  C195  1  0.09449801  0.17376560  0.89964120  1  0.337626  -0.002  0.080963  0.250154  -0.002227  4.059824  -0.001
C  C196  1  0.59450986  0.32623312  0.39962431  1  0.337234  -0.002021  0.081199  0.250217  -0.002249  4.059189  -0.001
C  C197  1  0.59450601  0.67376509  0.10037551  1  0.337511  -0.002016  0.081166  0.250217  -0.002244  4.059279  -0.001
C  C198  1  0.90550375  0.17377154  0.39963820  1  0.338211  -0.00202  0.08097  0.250103  -0.002249  4.059714  -0.001
C  C199  1  0.90549882  0.82622345  0.10036716  1  0.338167  -0.002016  0.080899  0.250012  -0.002244  4.059471  -0.001
C  C200  1  0.82883077  0.01562675  0.85038298  1  0.073156  0.004095  -0.011495  0.015768  0.001789  4.042732  0.004
C  C201  1  0.82881920  0.98436957  0.64961746  1  0.073065  0.004095  -0.011532  0.015927  0.001789  4.042528  0.004
C  C202  1  0.67116437  0.48437106  0.85038009  1  0.072832  0.004094  -0.011467  0.016071  0.001789  4.042429  0.004
C  C203  1  0.67117140  0.51562983  0.64961316  1  0.073438  0.004097  -0.0115  0.015978  0.00179  4.042454  0.004
C  C204  1  0.17118623  0.98437166  0.14963050  1  0.072664  0.004097  -0.011473  0.016046  0.00179  4.042257  0.004
C  C205  1  0.17118731  0.01561800  0.35036431  1  0.072956  0.004098  -0.011569  0.015989  0.00179  4.042253  0.004
C  C206  1  0.32882197  0.51563130  0.14963200  1  0.07304  0.004098  -0.011551  0.015887  0.001791  4.042575  0.004
C  C207  1  0.32881735  0.48437895  0.35036161  1  0.07305  0.004098  -0.011601  0.015837  0.00179  4.042434  0.004
C  C208  1  0.13046792  0.56104131  0.54558061  1  1.536045  -0.003371  0.21348  0.56657  -0.004893  4.218514  -0.001
C  C209  1  0.13046272  0.43895706  0.95440633  1  1.535063  -0.003359  0.21354  0.56648  -0.004883  4.218537  -0.001
C  C210  1  0.36955648  0.93896838  0.54561205  1  1.534925  -0.00336  0.213259  0.56597  -0.00489  4.219626  -0.001
C  C211  1  0.36956165  0.06103916  0.95439335  1  1.535184  -0.00336  0.213251  0.566006  -0.004888  4.219613  -0.001
C  C212  1  0.86954989  0.43894379  0.45438950  1  1.534987  -0.003408  0.213395  0.566392  -0.004933  4.219808  -0.001
C  C213  1  0.86954621  0.56105912  0.04560343  1  1.535221  -0.003407  0.213369  0.566213  -0.004931  4.219524  -0.001
C  C214  1  0.63045891  0.06105569  0.45442056  1  1.535602  -0.003413  0.21354  0.566812  -0.00494  4.219263  -0.001
C  C215  1  0.63045858  0.93894544  0.04558842  1  1.535437  -0.003401  0.213522  0.566665  -0.004929  4.218718  -0.001
C  C216  1  0.28686297  0.91618392  0.95164309  1  0.492331  -0.011247  0.063887  0.081254  -0.012118  3.855612  -0.007
C  C217  1  0.28687142  0.08382517  0.54836689  1  0.492158  -0.011252  0.063781  0.081045  -0.012124  3.855537  -0.007
C  C218  1  0.21313712  0.58381675  0.95164400  1  0.49227  -0.011246  0.063874  0.081331  -0.012117  3.855663  -0.007
C  C219  1  0.21313770  0.41618056  0.54835327  1  0.492222  -0.011245  0.063781  0.081108  -0.012118  3.855703  -0.007
C  C220  1  0.71315080  0.08381697  0.04837692  1  0.492271  -0.011249  0.063845  0.081204  -0.01212  3.855886  -0.007
C  C221  1  0.71313832  0.91617374  0.45162421  1  0.492211  -0.011251  0.063691  0.080971  -0.012124  3.855782  -0.007
C  C222  1  0.78685083  0.41618266  0.04837881  1  0.492427  -0.011242  0.063861  0.081123  -0.012113  3.856253  -0.007
C  C223  1  0.78685105  0.58381835  0.45162151  1  0.492234  -0.011253  0.063842  0.081262  -0.012125  3.855862  -0.007
C  C224  1  0.35609438  0.63184575  0.64362245  1  0.013235  0.000893  -0.103063  -0.211208  0.000332  4.018234  0.001
C  C225  1  0.35609473  0.36815687  0.85637462  1  0.012561  0.000891  -0.103113  -0.211149  0.000331  4.018044  0.001
C  C226  1  0.14391330  0.86815649  0.64363228  1  0.012061  0.000894  -0.10316  -0.211359  0.000332  4.017527  0.001
C  C227  1  0.14393102  0.13184334  0.85636718  1  0.012935  0.000892  -0.103122  -0.211192  0.000331  4.017487  0.001
C  C228  1  0.64394037  0.36815711  0.35633274  1  -0.001729  0.000895  -0.103058  -0.210656  0.000334  4.016699  0.001
C  C229  1  0.64394083  0.63183563  0.14366079  1  -0.001203  0.000893  -0.103118  -0.210809  0.000333  4.016909  0.001
C  C230  1  0.85608434  0.13184144  0.35635882  1  0.011664  0.000898  -0.103066  -0.211204  0.000333  4.017379  0.001
C  C231  1  0.85607952  0.86815359  0.14364723  1  0.011651  0.000897  -0.103071  -0.211027  0.000333  4.017294  0.001
C  C232  1  0.19823368  0.89465349  0.98700247  1  0.001333  0.00412  -0.005213  0.02746  0.001868  4.006758  0.004
C  C233  1  0.19824340  0.10534630  0.51300327  1  0.001413  0.004122  -0.00513  0.027608  0.001869  4.006346  0.004
C  C234  1  0.30176592  0.60535128  0.98700398  1  0.001443  0.004122  -0.005286  0.027225  0.001869  4.006914  0.004
C  C235  1  0.30175977  0.39465434  0.51298774  1  0.000868  0.004122  -0.005207  0.027251  0.001869  4.007039  0.004
C  C236  1  0.80176880  0.10534888  0.01301428  1  0.001112  0.004119  -0.005225  0.027237  0.001867  4.007062  0.004
C  C237  1  0.80175747  0.89464275  0.48698457  1  0.001125  0.004119  -0.005216  0.027302  0.001867  4.006963  0.004
C  C238  1  0.69822688  0.39465453  0.01302023  1  0.001762  0.004115  -0.005275  0.027251  0.001865  4.007466  0.004
C  C239  1  0.69823221  0.60534260  0.48698237  1  0.001466  0.004117  -0.005294  0.02711  0.001866  4.007531  0.004
C  C240  1  0.58509773  0.77576846  0.76619783  1  -0.075787  -0.000443  -0.083883  -0.080276  -0.000783  3.998929  0.0
C  C241  1  0.58510814  0.22423891  0.73380888  1  -0.07618  -0.000441  -0.083981  -0.080491  -0.000782  3.998788  0.0
C  C242  1  0.91489446  0.72423195  0.76620115  1  -0.075457  -0.000438  -0.083974  -0.080712  -0.000778  3.998997  0.0
C  C243  1  0.91489510  0.27577416  0.73380028  1  -0.077628  -0.000439  -0.083956  -0.08057  -0.00078  3.998766  0.0
C  C244  1  0.41487086  0.22424278  0.23379373  1  -0.079212  -0.000434  -0.08399  -0.08058  -0.000776  3.998678  0.0
C  C245  1  0.41487981  0.77575852  0.26621207  1  -0.078614  -0.000434  -0.083923  -0.080353  -0.000776  3.998888  0.0
C  C246  1  0.08510398  0.27576400  0.23380114  1  -0.077983  -0.000435  -0.08395  -0.080521  -0.000776  3.998815  0.0
C  C247  1  0.08509204  0.72424004  0.26620668  1  -0.075169  -0.000437  -0.084029  -0.080545  -0.000778  3.998872  0.0
C  C248  1  0.41072183  0.78469349  0.68350533  1  -0.024022  0.000775  -0.102374  -0.202968  0.000252  3.996568  0.001
C  C249  1  0.41072221  0.21530662  0.81650267  1  -0.02422  0.000775  -0.102356  -0.202917  0.000252  3.996466  0.001
C  C250  1  0.08928529  0.71530547  0.68351248  1  -0.024082  0.000774  -0.102363  -0.202899  0.000252  3.996772  0.001
C  C251  1  0.08928635  0.28470230  0.81648491  1  -0.024096  0.000775  -0.102228  -0.20274  0.000252  3.9967  0.001
C  C252  1  0.58928791  0.21530394  0.31648857  1  -0.024074  0.000773  -0.102304  -0.202741  0.000251  3.996541  0.001
C  C253  1  0.58928914  0.78469032  0.18351641  1  -0.02299  0.000772  -0.102392  -0.202788  0.000251  3.996514  0.001
C  C254  1  0.91070751  0.28469689  0.31649681  1  -0.024128  0.000773  -0.102289  -0.202704  0.000251  3.996757  0.001
C  C255  1  0.91069756  0.71530056  0.18350712  1  -0.023758  0.000773  -0.10215  -0.202422  0.000251  3.996618  0.001
C  C256  1  0.58518852  0.73792008  0.71189713  1  -0.032822  0.000773  -0.109123  -0.217668  0.000275  4.021166  0.001
C  C257  1  0.58519407  0.26208778  0.78810725  1  -0.032689  0.000773  -0.10893  -0.217335  0.000275  4.021243  0.001
C  C258  1  0.91481170  0.76207713  0.71190340  1  -0.03299  0.000771  -0.109084  -0.217465  0.000275  4.021078  0.001
C  C259  1  0.91481567  0.23793047  0.78809943  1  -0.033189  0.000772  -0.109122  -0.21742  0.000275  4.021014  0.001
C  C260  1  0.41478813  0.26208278  0.28809117  1  -0.031676  0.00077  -0.10895  -0.21716  0.000275  4.020744  0.001
C  C261  1  0.41479469  0.73791113  0.21191556  1  -0.031999  0.000771  -0.109065  -0.217519  0.000275  4.020891  0.001
C  C262  1  0.08520289  0.23792228  0.28810309  1  -0.032045  0.000771  -0.1091  -0.21756  0.000275  4.021185  0.001
C  C263  1  0.08518439  0.76208423  0.21190659  1  -0.032727  0.000771  -0.109085  -0.217595  0.000275  4.021184  0.001
C  C264  1  0.27408484  0.64502457  0.52259963  1  -0.098481  -8.9e-05  -0.075767  -0.065907  -0.000677  3.962372  0.0
C  C265  1  0.27407220  0.35497910  0.97739688  1  -0.104974  -8.3e-05  -0.075742  -0.065805  -0.000673  3.962252  0.0
C  C266  1  0.22593746  0.85498304  0.52261556  1  -0.104344  -9e-05  -0.075763  -0.066037  -0.000678  3.962694  0.0
C  C267  1  0.22594539  0.14502512  0.97738399  1  -0.098373  -8.6e-05  -0.075719  -0.06583  -0.000674  3.962191  0.0
C  C268  1  0.72593297  0.35498470  0.47736721  1  -0.096911  -0.000106  -0.075732  -0.066041  -0.00069  3.962959  0.0
C  C269  1  0.72593915  0.64501439  0.02263059  1  -0.099027  -9.9e-05  -0.075784  -0.066165  -0.000687  3.962897  0.0
C  C270  1  0.77406259  0.14503067  0.47738627  1  -0.099064  -0.000102  -0.075528  -0.065585  -0.000689  3.962403  0.0
C  C271  1  0.77406758  0.85497675  0.02261831  1  -0.098833  -9.8e-05  -0.075661  -0.06582  -0.000686  3.96269  0.0
C  C272  1  0.74110925  0.98587557  0.88088690  1  0.458286  -0.00955  0.061524  0.075848  -0.010209  3.862845  -0.006
C  C273  1  0.74110230  0.01412329  0.61911208  1  0.45823  -0.009553  0.061512  0.075783  -0.010213  3.862811  -0.006
C  C274  1  0.75888616  0.51411500  0.88089711  1  0.453841  -0.009558  0.061402  0.075418  -0.010215  3.862373  -0.006
C  C275  1  0.75889369  0.48588039  0.61910086  1  0.453488  -0.009563  0.061439  0.07552  -0.01022  3.862443  -0.006
C  C276  1  0.25889969  0.01412630  0.11912145  1  0.458549  -0.009557  0.061559  0.075795  -0.010217  3.862763  -0.006
C  C277  1  0.25889776  0.98585885  0.38087202  1  0.457705  -0.009556  0.061565  0.075852  -0.010214  3.862742  -0.006
C  C278  1  0.24111308  0.48586665  0.11912943  1  0.457304  -0.009552  0.061611  0.075826  -0.010212  3.862345  -0.006
C  C279  1  0.24110717  0.51413924  0.38086506  1  0.45702  -0.009554  0.06164  0.075891  -0.010212  3.862594  -0.006
C  C280  1  0.41336582  0.82368476  0.73669416  1  -0.028398  -0.000282  -0.076526  -0.058998  -0.00063  3.962645  0.0
C  C281  1  0.41336945  0.17631831  0.76330777  1  -0.028978  -0.000283  -0.07654  -0.059103  -0.000631  3.9626  0.0
C  C282  1  0.08663732  0.67632233  0.73670863  1  -0.028745  -0.000279  -0.076548  -0.059262  -0.000628  3.962769  0.0
C  C283  1  0.08662857  0.32369086  0.76329297  1  -0.027987  -0.000279  -0.076686  -0.059453  -0.000629  3.963044  0.0
C  C284  1  0.58661729  0.17631464  0.26329601  1  -0.034101  -0.000274  -0.076825  -0.059744  -0.000624  3.963448  0.0
C  C285  1  0.58663222  0.82367814  0.23670945  1  -0.02952  -0.000276  -0.076666  -0.059501  -0.000625  3.962994  0.0
C  C286  1  0.91335225  0.32367806  0.26330393  1  -0.028619  -0.000276  -0.076596  -0.059278  -0.000624  3.962936  0.0
C  C287  1  0.91333759  0.67632137  0.23670279  1  -0.027791  -0.000278  -0.076672  -0.059352  -0.000626  3.962961  0.0
C  C288  1  0.40713551  0.86061984  0.01494243  1  0.539509  -0.006763  0.055709  0.112454  -0.007465  3.90602  -0.004
C  C289  1  0.40714899  0.13937900  0.48506480  1  0.539305  -0.006767  0.055592  0.112166  -0.007467  3.906439  -0.004
C  C290  1  0.09285684  0.63937512  0.01494693  1  0.539593  -0.006761  0.055684  0.112488  -0.007463  3.905826  -0.004
C  C291  1  0.09286426  0.36064026  0.48503940  1  0.540839  -0.006761  0.055551  0.112261  -0.007462  3.906364  -0.004
C  C292  1  0.59285244  0.13936822  0.98507851  1  0.539213  -0.006765  0.055425  0.11195  -0.007464  3.906256  -0.004
C  C293  1  0.59284865  0.86062829  0.51493283  1  0.539324  -0.006763  0.05541  0.111994  -0.007462  3.90597  -0.004
C  C294  1  0.90714241  0.36062675  0.98508055  1  0.539437  -0.006758  0.055466  0.112083  -0.007456  3.906379  -0.004
C  C295  1  0.90714225  0.63936753  0.51492698  1  0.539379  -0.006765  0.055349  0.111918  -0.007464  3.906256  -0.004
C  C296  1  0.36457539  0.68136887  0.54017906  1  0.039222  0.000966  -0.098643  -0.202413  0.000429  4.005991  0.001
C  C297  1  0.36456469  0.31863670  0.95982123  1  0.0397  0.000964  -0.098767  -0.202612  0.000429  4.00613  0.001
C  C298  1  0.13544746  0.81863537  0.54018407  1  0.039107  0.000966  -0.098722  -0.202496  0.000429  4.005982  0.001
C  C299  1  0.13545638  0.18136990  0.95980937  1  0.039415  0.000965  -0.098748  -0.202661  0.000428  4.0059  0.001
C  C300  1  0.63545371  0.31863202  0.45979432  1  0.040217  0.00097  -0.098865  -0.202667  0.00043  4.006112  0.001
C  C301  1  0.63545554  0.68136517  0.04020811  1  0.040192  0.000969  -0.098786  -0.202491  0.00043  4.005723  0.001
C  C302  1  0.86454614  0.18138032  0.45980936  1  0.039183  0.00097  -0.098773  -0.202689  0.000431  4.006096  0.001
C  C303  1  0.86454852  0.81862260  0.04019525  1  0.039294  0.000969  -0.098671  -0.202617  0.00043  4.005928  0.001
C  C304  1  0.93921765  0.99861256  0.86688782  1  0.568325  0.000366  0.068229  0.04894  0.000156  3.948929  0.0
C  C305  1  0.93920488  0.00139058  0.63311489  1  0.568729  0.000366  0.068367  0.048995  0.000156  3.948818  0.0
C  C306  1  0.56077957  0.50138634  0.86688819  1  0.567893  0.000366  0.068118  0.048693  0.000155  3.949124  0.0
C  C307  1  0.56078526  0.49861119  0.63309765  1  0.566938  0.000366  0.068179  0.048763  0.000155  3.949051  0.0
C  C308  1  0.06079612  0.00139326  0.13312286  1  0.568368  0.000365  0.068384  0.049096  0.000155  3.94827  0.0
C  C309  1  0.06079679  0.99859551  0.36687108  1  0.567673  0.000365  0.068296  0.048808  0.000155  3.948123  0.0
C  C310  1  0.43920435  0.49860863  0.13312670  1  0.568796  0.000364  0.068429  0.049274  0.000154  3.948433  0.0
C  C311  1  0.43920431  0.50140301  0.36686640  1  0.568337  0.000365  0.068472  0.049191  0.000155  3.948246  0.0
C  C312  1  0.61725933  0.04352340  0.82139472  1  0.442074  -0.008438  0.056655  0.105867  -0.009136  3.893139  -0.005
C  C313  1  0.61724660  0.95647506  0.67860112  1  0.441881  -0.008442  0.056697  0.105963  -0.009142  3.893297  -0.005
C  C314  1  0.88273137  0.45646491  0.82140378  1  0.441811  -0.008439  0.056789  0.10624  -0.009139  3.892708  -0.005
C  C315  1  0.88273714  0.54353729  0.67858614  1  0.442148  -0.008448  0.056654  0.105939  -0.009148  3.89308  -0.005
C  C316  1  0.38274637  0.95646466  0.17859964  1  0.442594  -0.00845  0.056618  0.10591  -0.009152  3.892673  -0.005
C  C317  1  0.38274781  0.04352336  0.32139978  1  0.442259  -0.00845  0.056671  0.105853  -0.009151  3.893103  -0.005
C  C318  1  0.11725255  0.54352167  0.17861204  1  0.442172  -0.008448  0.05661  0.105674  -0.009148  3.893108  -0.005
C  C319  1  0.11725162  0.45647494  0.32139050  1  0.442108  -0.008448  0.056505  0.10543  -0.009149  3.893374  -0.005
C  C320  1  0.21832400  0.85436043  0.03900662  1  -0.067648  -0.01054  -0.067746  -0.079996  -0.011087  3.929019  -0.006
C  C321  1  0.21833377  0.14563659  0.46099497  1  -0.067587  -0.010542  -0.067715  -0.079985  -0.01109  3.929014  -0.006
C  C322  1  0.28167528  0.64563908  0.03901538  1  -0.067953  -0.010535  -0.067576  -0.079602  -0.011083  3.928813  -0.006
C  C323  1  0.28167175  0.35436579  0.46097472  1  -0.067569  -0.010534  -0.067576  -0.079498  -0.011082  3.928785  -0.006
C  C324  1  0.78166879  0.14564193  0.96100733  1  -0.067504  -0.010539  -0.067704  -0.079775  -0.011087  3.928953  -0.006
C  C325  1  0.78166871  0.85435936  0.53899893  1  -0.06751  -0.010545  -0.067659  -0.079866  -0.011093  3.928877  -0.006
C  C326  1  0.71833043  0.35435786  0.96102002  1  -0.067154  -0.010531  -0.067718  -0.079713  -0.011079  3.929132  -0.006
C  C327  1  0.71832830  0.64563510  0.53898700  1  -0.067494  -0.010545  -0.067651  -0.079724  -0.011093  3.929235  -0.006
C  C328  1  0.32432922  0.83659152  0.05245324  1  -0.023776  0.004454  -0.086556  -0.124431  0.002128  3.988613  0.004
C  C329  1  0.32433915  0.16340739  0.44755485  1  -0.02342  0.004456  -0.08658  -0.124395  0.002129  3.98892  0.004
C  C330  1  0.17566583  0.66340805  0.05245930  1  -0.023142  0.004454  -0.086628  -0.124565  0.002128  3.98833  0.004
C  C331  1  0.17566737  0.33659641  0.44752663  1  -0.023743  0.004454  -0.086559  -0.124545  0.002128  3.988525  0.004
C  C332  1  0.67566196  0.16341430  0.94756678  1  -0.023275  0.004453  -0.086521  -0.124493  0.002128  3.98849  0.004
C  C333  1  0.67565768  0.83658807  0.55244324  1  -0.023393  0.004455  -0.086447  -0.12432  0.002129  3.988427  0.004
C  C334  1  0.82433423  0.33658396  0.94757517  1  -0.024422  0.004451  -0.08663  -0.124776  0.002127  3.98874  0.004
C  C335  1  0.82433188  0.66341336  0.55243089  1  -0.02358  0.004453  -0.08646  -0.124361  0.002128  3.988698  0.004
C  C336  1  0.80630643  0.06131192  0.80294307  1  -0.089525  -0.012291  -0.071989  -0.092249  -0.012862  3.966184  -0.007
C  C337  1  0.80630073  0.93868048  0.69705328  1  -0.089032  -0.012294  -0.071997  -0.092273  -0.012871  3.965949  -0.007
C  C338  1  0.69368211  0.43867878  0.80294315  1  -0.088887  -0.012292  -0.07193  -0.09214  -0.012868  3.96623  -0.007
C  C339  1  0.69368275  0.56131814  0.69705512  1  -0.089621  -0.01231  -0.071965  -0.092188  -0.012882  3.965879  -0.007
C  C340  1  0.19368959  0.93867664  0.19706949  1  -0.088772  -0.012306  -0.072032  -0.092376  -0.012883  3.966044  -0.007
C  C341  1  0.19369448  0.06131695  0.30292849  1  -0.08912  -0.012306  -0.071967  -0.092314  -0.012878  3.965829  -0.007
C  C342  1  0.30629615  0.56132507  0.19706707  1  -0.088515  -0.012298  -0.072043  -0.092391  -0.012875  3.966077  -0.007
C  C343  1  0.30630278  0.43868422  0.30292665  1  -0.089108  -0.012304  -0.072052  -0.092414  -0.012877  3.965926  -0.007
C  C344  1  0.08871256  0.91391749  0.97082423  1  0.621799  4.2e-05  0.077314  0.06952  -0.000113  3.919515  0.0
C  C345  1  0.08871159  0.08608535  0.52917782  1  0.621644  4.2e-05  0.077326  0.069438  -0.000114  3.91931  0.0
C  C346  1  0.41128888  0.58608475  0.97083261  1  0.621492  4.2e-05  0.077293  0.06951  -0.000113  3.919458  0.0
C  C347  1  0.41128651  0.41392128  0.52915580  1  0.622626  4.2e-05  0.077364  0.069456  -0.000113  3.919393  0.0
C  C348  1  0.91129718  0.08609376  0.02919205  1  0.622746  4.1e-05  0.077449  0.069621  -0.000114  3.919185  0.0
C  C349  1  0.91128766  0.91389580  0.47079975  1  0.620899  4.1e-05  0.077516  0.069754  -0.000114  3.918514  0.0
C  C350  1  0.58870310  0.41391071  0.02919813  1  0.622286  4.2e-05  0.077642  0.069825  -0.000113  3.919548  0.0
C  C351  1  0.58870548  0.58608700  0.47080032  1  0.62114  4.1e-05  0.077589  0.069733  -0.000115  3.91939  0.0
C  C352  1  0.69925217  0.07526049  0.78849838  1  -0.055223  0.005198  -0.088698  -0.131714  0.002452  3.997096  0.004
C  C353  1  0.69923984  0.92473594  0.71149707  1  -0.055146  0.005202  -0.088591  -0.131732  0.002453  3.997063  0.004
C  C354  1  0.80073980  0.42473064  0.78850396  1  -0.05515  0.0052  -0.088687  -0.131838  0.002453  3.997169  0.004
C  C355  1  0.80074747  0.57527064  0.71149334  1  -0.05477  0.005206  -0.088616  -0.131733  0.002455  3.996701  0.004
C  C356  1  0.30075918  0.92472461  0.21150951  1  -0.056003  0.005204  -0.088506  -0.131523  0.002454  3.996607  0.004
C  C357  1  0.30076264  0.07526544  0.28848983  1  -0.055931  0.0052  -0.088629  -0.131768  0.002453  3.996802  0.004
C  C358  1  0.19923201  0.57527025  0.21151372  1  -0.055818  0.005199  -0.088591  -0.131586  0.002452  3.996909  0.004
C  C359  1  0.19923725  0.42473222  0.28848517  1  -0.056058  0.005199  -0.088572  -0.131505  0.002453  3.996786  0.004
N  N360  1  0.38911341  0.90091142  0.96588585  1  -1.229924  0.04857  -0.319048  -0.24323  0.025678  3.582455  0.046
N  N361  1  0.38912849  0.09909068  0.53412132  1  -1.230111  0.048575  -0.319085  -0.243054  0.025682  3.582637  0.046
N  N362  1  0.11088164  0.59907994  0.96589056  1  -1.229902  0.04857  -0.319024  -0.243282  0.025679  3.58231  0.046
N  N363  1  0.11087761  0.40092634  0.53409926  1  -1.230827  0.048569  -0.318888  -0.243053  0.025678  3.582093  0.046
N  N364  1  0.61088342  0.09907022  0.03413044  1  -1.230572  0.048534  -0.318809  -0.242663  0.025657  3.582346  0.046
N  N365  1  0.61087318  0.90092500  0.46587631  1  -1.230188  0.048536  -0.318808  -0.242689  0.02566  3.581976  0.046
N  N366  1  0.88910954  0.40092194  0.03413412  1  -1.230989  0.048533  -0.318857  -0.242694  0.025655  3.582765  0.046
N  N367  1  0.88911679  0.59907110  0.46587178  1  -1.230419  0.048537  -0.318786  -0.242716  0.025658  3.582159  0.046
N  N368  1  0.63807767  0.99940487  0.86710354  1  -1.196216  0.050796  -0.316885  -0.235124  0.026978  3.564251  0.048
N  N369  1  0.63807136  0.00059309  0.63289127  1  -1.196228  0.050801  -0.316892  -0.235175  0.026981  3.564322  0.048
N  N370  1  0.86192035  0.50057726  0.86712021  1  -1.195865  0.05078  -0.316873  -0.23526  0.02697  3.563918  0.048
N  N371  1  0.86192443  0.49942002  0.63287401  1  -1.196299  0.050789  -0.316878  -0.235206  0.026974  3.564154  0.048
N  N372  1  0.36192965  0.00058122  0.13288803  1  -1.195993  0.050756  -0.316976  -0.235286  0.026961  3.564479  0.048
N  N373  1  0.36192870  0.99940582  0.36710869  1  -1.19636  0.05075  -0.31694  -0.235165  0.026956  3.564545  0.048
N  N374  1  0.13808132  0.49940340  0.13290354  1  -1.195673  0.050764  -0.316981  -0.235166  0.026963  3.564312  0.048
N  N375  1  0.13807805  0.50059665  0.36709517  1  -1.19518  0.050773  -0.316944  -0.235011  0.026968  3.564497  0.048
N  N376  1  0.95963906  0.96012217  0.91361512  1  -0.749768  0.001008  -0.213131  -0.167328  0.000532  3.333214  0.001
N  N377  1  0.95962687  0.03988786  0.58639217  1  -0.750246  0.001009  -0.213117  -0.167302  0.000532  3.333114  0.001
N  N378  1  0.54036315  0.53987053  0.91362273  1  -0.749624  0.001009  -0.213121  -0.167296  0.000532  3.333095  0.001
N  N379  1  0.54036957  0.46011912  0.58637067  1  -0.749167  0.00101  -0.213019  -0.167295  0.000533  3.333068  0.001
N  N380  1  0.04037633  0.03990535  0.08641283  1  -0.749861  0.00101  -0.213204  -0.167472  0.000533  3.333282  0.001
N  N381  1  0.04037802  0.96006912  0.41357235  1  -0.749163  0.001009  -0.213107  -0.167283  0.000533  3.332944  0.001
N  N382  1  0.45962480  0.46009879  0.08641361  1  -0.749702  0.00101  -0.213252  -0.167631  0.000533  3.333291  0.001
N  N383  1  0.45962726  0.53991382  0.41357705  1  -0.749463  0.001009  -0.21318  -0.167464  0.000532  3.333324  0.001
N  N384  1  0.06872694  0.94788759  0.92094135  1  -0.771559  0.000968  -0.217671  -0.183649  0.000522  3.322823  0.001
N  N385  1  0.06871645  0.05212267  0.57906360  1  -0.771255  0.000968  -0.217728  -0.183626  0.000522  3.322806  0.001
N  N386  1  0.43127440  0.55211196  0.92095136  1  -0.771107  0.000968  -0.217597  -0.183598  0.000522  3.322622  0.001
N  N387  1  0.43127449  0.44787531  0.57904628  1  -0.771404  0.000969  -0.217735  -0.183572  0.000522  3.322622  0.001
N  N388  1  0.93128361  0.05214635  0.07908753  1  -0.771825  0.000968  -0.217845  -0.183693  0.000521  3.322873  0.001
N  N389  1  0.93128522  0.94783185  0.42089812  1  -0.769725  0.000969  -0.217842  -0.183703  0.000522  3.322175  0.001
N  N390  1  0.56871355  0.44785983  0.07909197  1  -0.771627  0.000966  -0.217844  -0.1837  0.000521  3.323056  0.001
N  N391  1  0.56871830  0.55214925  0.42089958  1  -0.771175  0.000968  -0.217821  -0.183663  0.000522  3.32271  0.001
O  O392  1  0.50040613  0.70662073  0.61600975  1  -1.106851  -0.00059  -0.163709  -0.240813  -0.000441  2.568388  0.0
O  O393  1  0.50040784  0.29338277  0.88399410  1  -1.106912  -0.000588  -0.163611  -0.240762  -0.00044  2.568307  0.0
O  O394  1  0.99960190  0.79337704  0.61601575  1  -1.10646  -0.000589  -0.163712  -0.240881  -0.000441  2.568263  0.0
O  O395  1  0.99961022  0.20662260  0.88398016  1  -1.106181  -0.000588  -0.1638  -0.241055  -0.00044  2.568182  0.0
O  O396  1  0.49960361  0.29338164  0.38397388  1  -1.106649  -0.00059  -0.163771  -0.241058  -0.000442  2.568233  0.0
O  O397  1  0.49960916  0.70662305  0.11602359  1  -1.106865  -0.000589  -0.163681  -0.241002  -0.000441  2.568289  0.0
O  O398  1  0.00039896  0.20662089  0.38398095  1  -1.106428  -0.00059  -0.163749  -0.240973  -0.000442  2.568273  0.0
O  O399  1  0.00038903  0.79337237  0.11602214  1  -1.106418  -0.00059  -0.163714  -0.240918  -0.000442  2.568385  0.0
O  O400  1  0.07425894  0.53371699  0.58831536  1  -1.152553  0.082776  -0.310014  -0.553773  0.043331  2.421565  0.069
O  O401  1  0.07426076  0.46627698  0.91166485  1  -1.152441  0.082764  -0.310052  -0.55374  0.043326  2.421673  0.069
O  O402  1  0.42576565  0.96629437  0.58834664  1  -1.153261  0.082797  -0.30995  -0.5535  0.043338  2.422334  0.069
O  O403  1  0.42578116  0.03372348  0.91165523  1  -1.152701  0.082765  -0.309888  -0.553566  0.04333  2.42218  0.069
O  O404  1  0.92577258  0.46625677  0.41165336  1  -1.152823  0.082839  -0.310012  -0.553815  0.043371  2.422497  0.069
O  O405  1  0.92577400  0.53375054  0.08834304  1  -1.152752  0.082845  -0.310032  -0.553877  0.043369  2.422307  0.069
O  O406  1  0.57425216  0.03373660  0.41168130  1  -1.152794  0.082873  -0.310181  -0.554012  0.043392  2.422353  0.069
O  O407  1  0.57424875  0.96625915  0.08833214  1  -1.152915  0.082845  -0.310089  -0.553948  0.043377  2.421973  0.069
O  O408  1  0.44717098  0.91759827  0.83121573  1  -1.141139  0.087017  -0.32114  -0.540387  0.045151  2.201353  0.075
O  O409  1  0.44719709  0.08241168  0.66877857  1  -1.141609  0.087027  -0.320929  -0.54016  0.045157  2.20188  0.075
O  O410  1  0.05282437  0.58240334  0.83121832  1  -1.141305  0.086972  -0.321053  -0.540327  0.045127  2.201422  0.075
O  O411  1  0.05281275  0.41760496  0.66877317  1  -1.141145  0.086969  -0.321132  -0.540358  0.045131  2.201582  0.075
O  O412  1  0.55280003  0.08241199  0.16880009  1  -1.14164  0.086997  -0.32106  -0.540212  0.045136  2.201333  0.075
O  O413  1  0.55279651  0.91757885  0.33121859  1  -1.14111  0.08701  -0.320928  -0.540191  0.045147  2.201507  0.075
O  O414  1  0.94717650  0.41758374  0.16880169  1  -1.141289  0.087005  -0.321118  -0.540187  0.045139  2.201467  0.075
O  O415  1  0.94717359  0.58240629  0.33121279  1  -1.140812  0.087026  -0.32109  -0.540324  0.045149  2.201394  0.075
O  O416  1  0.11346168  0.55496859  0.48742205  1  -1.167775  0.089753  -0.309912  -0.563895  0.047332  2.541415  0.075
O  O417  1  0.11345465  0.44503986  0.01256651  1  -1.167593  0.089734  -0.309903  -0.563906  0.047319  2.540921  0.075
O  O418  1  0.38658129  0.94505070  0.48745716  1  -1.167293  0.089779  -0.309724  -0.563648  0.04735  2.541511  0.075
O  O419  1  0.38657415  0.05494521  0.01254830  1  -1.167513  0.089792  -0.309747  -0.563642  0.047354  2.541618  0.075
O  O420  1  0.88661988  0.44504018  0.51253734  1  -1.167296  0.08994  -0.309829  -0.563859  0.047436  2.542452  0.075
O  O421  1  0.88660189  0.55496102  0.98745210  1  -1.167432  0.089909  -0.309762  -0.563607  0.04742  2.541896  0.075
O  O422  1  0.61339375  0.05497238  0.51256845  1  -1.167705  0.089888  -0.309836  -0.563757  0.047408  2.542126  0.075
O  O423  1  0.61339604  0.94502954  0.98743813  1  -1.16727  0.089852  -0.309865  -0.563736  0.047388  2.541439  0.075
O  O424  1  0.56832181  0.85392318  0.87836109  1  -1.14886  0.077103  -0.328806  -0.557275  0.039531  2.14787  0.067
O  O425  1  0.56834283  0.14608519  0.62163265  1  -1.149361  0.077108  -0.32904  -0.557415  0.039538  2.147472  0.067
O  O426  1  0.93167283  0.64608070  0.87836448  1  -1.149114  0.077094  -0.328828  -0.557334  0.039529  2.147706  0.067
O  O427  1  0.93166684  0.35392590  0.62162661  1  -1.149467  0.077107  -0.328865  -0.557392  0.039536  2.147841  0.067
O  O428  1  0.43166049  0.14609250  0.12165147  1  -1.149727  0.076984  -0.328952  -0.557455  0.039472  2.147651  0.067
O  O429  1  0.43165239  0.85389794  0.37836125  1  -1.149696  0.076963  -0.329149  -0.557675  0.039463  2.147272  0.067
O  O430  1  0.06832480  0.35389404  0.12165926  1  -1.149129  0.076972  -0.32886  -0.557192  0.039466  2.147376  0.067
O  O431  1  0.06832273  0.64609866  0.37834537  1  -1.149243  0.076991  -0.328861  -0.5573  0.039477  2.14752  0.067
