# generated using pymatgen
data_CoH20C20(NO)4
_symmetry_space_group_name_H-M   'P 1'
_cell_length_a   11.96139967
_cell_length_b   13.91032648
_cell_length_c   26.37189224
_cell_angle_alpha   96.88539363
_cell_angle_beta   89.99986102
_cell_angle_gamma   89.99987501
_symmetry_Int_Tables_number   1
_chemical_formula_structural   CoH20C20(NO)4
_chemical_formula_sum   'Co8 H160 C160 N32 O32'
_cell_volume   4356.29326365
_cell_formula_units_Z   8
loop_
 _symmetry_equiv_pos_site_id
 _symmetry_equiv_pos_as_xyz
  1  'x, y, z'
loop_
 _atom_site_type_symbol
 _atom_site_label
 _atom_site_symmetry_multiplicity
 _atom_site_fract_x
 _atom_site_fract_y
 _atom_site_fract_z
 _atom_site_occupancy
 _atom_site_pbe_bader_charge
 _atom_site_pbe_bader_spin_density
 _atom_site_pbe_cm5_charge
 _atom_site_pbe_ddec_charge
 _atom_site_pbe_ddec_spin_density
 _atom_site_pbe_ddec_sum_bond_order
 _atom_site_pbe_magmom
Co  Co0  1  0.78885962  0.84461052  0.68810610  1  1.297476  2.612961  0.689335  0.883757  2.86137  2.51493  2.589
Co  Co1  1  0.28886349  0.15539160  0.81189094  1  1.297309  2.61296  0.689341  0.883745  2.861336  2.514941  2.589
Co  Co2  1  0.21114650  0.15538327  0.31188385  1  1.297198  2.612979  0.68934  0.883691  2.861322  2.515037  2.589
Co  Co3  1  0.71115183  0.84461584  0.18811317  1  1.297104  2.612976  0.689319  0.883647  2.861324  2.515009  2.589
Co  Co4  1  0.16118078  0.35905481  0.21269922  1  1.309778  2.614835  0.694912  0.894229  2.872421  2.548772  2.592
Co  Co5  1  0.66117523  0.64095306  0.28730260  1  1.309732  2.614849  0.694988  0.894495  2.872441  2.548596  2.592
Co  Co6  1  0.83881698  0.64094615  0.78729954  1  1.309909  2.614838  0.695034  0.894562  2.872429  2.548537  2.592
Co  Co7  1  0.33883089  0.35904642  0.71269910  1  1.309736  2.614845  0.694985  0.894509  2.872435  2.548561  2.592
H  H8  1  0.01768048  0.87285461  0.73396935  1  0.091256  0.00177  0.119479  0.087365  0.000387  1.00431  0.001
H  H9  1  0.51768720  0.12714375  0.76602812  1  0.091421  0.00177  0.119397  0.087362  0.000387  1.004264  0.001
H  H10  1  0.98232480  0.12714778  0.26603216  1  0.091271  0.001771  0.119469  0.087356  0.000388  1.004268  0.001
H  H11  1  0.48232895  0.87284780  0.23396964  1  0.09136  0.001771  0.119447  0.087425  0.000388  1.00424  0.001
H  H12  1  0.10114030  0.94326579  0.81769332  1  0.13344  0.001049  0.107446  0.125997  0.000542  1.056662  0.001
H  H13  1  0.60114263  0.05673168  0.68230248  1  0.133262  0.00105  0.107493  0.126044  0.000542  1.056773  0.001
H  H14  1  0.89885244  0.05672932  0.18231188  1  0.13336  0.00105  0.107486  0.126038  0.000542  1.056704  0.001
H  H15  1  0.39885931  0.94326135  0.31769159  1  0.133459  0.00105  0.107495  0.126093  0.000542  1.056676  0.001
H  H16  1  0.77506745  0.05762888  0.86095749  1  0.102204  0.000849  0.111196  0.116651  0.000417  1.005674  0.0
H  H17  1  0.27506692  0.94237034  0.63904316  1  0.102202  0.000849  0.111198  0.116659  0.000417  1.005669  0.0
H  H18  1  0.22491443  0.94236485  0.13903965  1  0.102478  0.000849  0.111207  0.116685  0.000417  1.005721  0.0
H  H19  1  0.72492332  0.05763275  0.36096104  1  0.102172  0.000849  0.111175  0.116627  0.000417  1.005736  0.0
H  H20  1  0.70688804  0.98669569  0.77450931  1  0.102456  0.001465  0.119232  0.088785  0.000405  1.00597  0.001
H  H21  1  0.20689188  0.01329931  0.72549341  1  0.102518  0.001466  0.119208  0.088745  0.000405  1.00591  0.001
H  H22  1  0.29310805  0.01330533  0.22548338  1  0.102676  0.001466  0.119224  0.088759  0.000405  1.005944  0.001
H  H23  1  0.79311340  0.98670086  0.27451288  1  0.102588  0.001466  0.119231  0.088806  0.000405  1.005951  0.001
H  H24  1  0.08167527  0.03161247  0.90090877  1  0.136416  7.4e-05  0.117073  0.090059  -0.000129  0.999008  0.0
H  H25  1  0.58167325  0.96837995  0.59908937  1  0.136475  7.3e-05  0.117113  0.090148  -0.000129  0.998945  0.0
H  H26  1  0.91830409  0.96838553  0.09909775  1  0.136113  7.3e-05  0.117016  0.089887  -0.000129  0.998934  0.0
H  H27  1  0.41830863  0.03161600  0.40090299  1  0.136212  7.3e-05  0.117052  0.089992  -0.000129  0.998893  0.0
H  H28  1  0.83992741  0.13654008  0.01413486  1  0.094967  1.8e-05  0.11115  0.071609  4.8e-05  0.988112  0.0
H  H29  1  0.33991853  0.86346670  0.48586479  1  0.094807  1.8e-05  0.111102  0.071501  4.8e-05  0.988127  0.0
H  H30  1  0.16004945  0.86347316  0.98586811  1  0.095153  1.9e-05  0.111185  0.071676  4.8e-05  0.988269  0.0
H  H31  1  0.66006418  0.13652853  0.51412714  1  0.094884  1.8e-05  0.111167  0.071597  4.8e-05  0.988197  0.0
H  H32  1  0.15568048  0.16080828  0.03591751  1  0.104853  0.000769  0.109623  0.116935  0.000374  1.003755  0.0
H  H33  1  0.65567431  0.83919743  0.46408455  1  0.104714  0.000769  0.109601  0.116893  0.000375  1.003803  0.0
H  H34  1  0.84430056  0.83916873  0.96408536  1  0.104715  0.000769  0.109633  0.116907  0.000374  1.003722  0.0
H  H35  1  0.34431509  0.16081079  0.53591279  1  0.104673  0.000769  0.109548  0.116877  0.000374  1.003786  0.0
H  H36  1  0.23653858  0.25198530  0.11590680  1  0.07843  0.001644  0.118572  0.093507  0.000442  1.00614  0.001
H  H37  1  0.73653725  0.74801805  0.38409616  1  0.078558  0.001644  0.11844  0.093279  0.000442  1.006115  0.001
H  H38  1  0.76345751  0.74798375  0.88409517  1  0.077935  0.001644  0.118498  0.093524  0.000442  1.006072  0.001
H  H39  1  0.26346553  0.25199450  0.61590336  1  0.078534  0.001643  0.118398  0.09323  0.000442  1.006279  0.001
H  H40  1  0.92426054  0.30151867  0.18028676  1  0.111769  0.001542  0.120015  0.096959  0.000325  1.006515  0.001
H  H41  1  0.42425380  0.69848207  0.31971885  1  0.111839  0.001542  0.119949  0.096868  0.000325  1.006644  0.001
H  H42  1  0.07573973  0.69849529  0.81971626  1  0.111875  0.001541  0.119951  0.096862  0.000325  1.006633  0.001
H  H43  1  0.57574814  0.30150222  0.68028071  1  0.111834  0.001541  0.11993  0.09683  0.000325  1.006728  0.001
H  H44  1  0.82929203  0.21621439  0.10304502  1  0.025332  0.000869  0.104118  0.104128  0.000405  1.030363  0.0
H  H45  1  0.32928801  0.78378583  0.39696180  1  0.025358  0.000869  0.104086  0.10411  0.000405  1.030398  0.0
H  H46  1  0.17069653  0.78380101  0.89695962  1  0.025271  0.000869  0.104088  0.104162  0.000405  1.030451  0.0
H  H47  1  0.67071059  0.21620065  0.60303600  1  0.025393  0.000869  0.104058  0.104086  0.000405  1.030411  0.0
H  H48  1  0.55384966  0.79119776  0.65456981  1  0.127595  0.001269  0.119353  0.096738  0.000138  1.010252  0.001
H  H49  1  0.05384485  0.20880270  0.84542700  1  0.127485  0.001269  0.119325  0.096751  0.000138  1.010221  0.001
H  H50  1  0.44617486  0.20880258  0.34541715  1  0.12693  0.001269  0.119335  0.096973  0.000138  1.010099  0.001
H  H51  1  0.94617716  0.79119316  0.15457522  1  0.127264  0.001269  0.119368  0.096906  0.000138  1.010128  0.001
H  H52  1  0.45782860  0.70433703  0.57759371  1  0.131151  0.00074  0.110646  0.11566  0.00037  1.014375  0.0
H  H53  1  0.95781566  0.29565966  0.92240165  1  0.130951  0.00074  0.110751  0.1158  0.00037  1.014359  0.0
H  H54  1  0.54220009  0.29564951  0.42239652  1  0.130792  0.00074  0.110815  0.11587  0.00037  1.014162  0.0
H  H55  1  0.04218795  0.70433117  0.07759568  1  0.130947  0.00074  0.110747  0.115798  0.00037  1.014355  0.0
H  H56  1  0.78442107  0.64743192  0.51099672  1  0.057702  0.00102  0.107412  0.111868  0.000511  0.995307  0.0
H  H57  1  0.28440258  0.35256729  0.98900203  1  0.057942  0.001019  0.107461  0.111945  0.000511  0.995192  0.0
H  H58  1  0.21560178  0.35253435  0.48899218  1  0.058424  0.001019  0.107485  0.111926  0.000511  0.995273  0.0
H  H59  1  0.71558682  0.64743865  0.01100729  1  0.057994  0.001019  0.107478  0.111945  0.000511  0.995139  0.0
H  H60  1  0.86593628  0.74043593  0.58994484  1  0.115528  0.001749  0.119706  0.093259  0.000453  0.995109  0.001
H  H61  1  0.36592682  0.25956962  0.91005461  1  0.115667  0.001749  0.119705  0.093296  0.000454  0.995049  0.001
H  H62  1  0.13408572  0.25954994  0.41003965  1  0.115851  0.001749  0.119672  0.093279  0.000453  0.995104  0.001
H  H63  1  0.63408265  0.74044355  0.08995670  1  0.115772  0.001749  0.11972  0.093255  0.000453  0.995199  0.001
H  H64  1  0.62219695  0.58304987  0.46255420  1  0.094961  -0.000138  0.116874  0.081944  -0.00016  0.985709  0.0
H  H65  1  0.12217989  0.41694434  0.03744525  1  0.095343  -0.000138  0.11694  0.081985  -0.00016  0.985714  0.0
H  H66  1  0.37781670  0.41693090  0.53743413  1  0.095519  -0.000137  0.11693  0.081952  -0.00016  0.986007  0.0
H  H67  1  0.87781536  0.58305585  0.96255801  1  0.095353  -0.000138  0.116902  0.081887  -0.00016  0.985858  0.0
H  H68  1  0.27315753  0.61973115  0.44669883  1  0.080046  -2e-05  0.109541  0.069607  -3.5e-05  0.991139  0.0
H  H69  1  0.77313549  0.38025983  0.05330137  1  0.07976  -2.1e-05  0.109518  0.069743  -3.5e-05  0.990768  0.0
H  H70  1  0.72685445  0.38026909  0.55329988  1  0.079927  -2e-05  0.109518  0.069658  -3.5e-05  0.991041  0.0
H  H71  1  0.22685391  0.61973390  0.94669539  1  0.080018  -2e-05  0.109552  0.069676  -3.5e-05  0.990988  0.0
H  H72  1  0.45510325  0.45840146  0.35243269  1  0.139088  0.001153  0.109122  0.120563  0.0006  1.051438  0.001
H  H73  1  0.95508113  0.54158986  0.14756545  1  0.139426  0.001153  0.109015  0.120179  0.0006  1.051557  0.001
H  H74  1  0.54488866  0.54159661  0.64756550  1  0.138941  0.001153  0.109099  0.120549  0.0006  1.051425  0.001
H  H75  1  0.04489907  0.45840825  0.85242744  1  0.139208  0.001152  0.109051  0.120448  0.0006  1.051477  0.001
H  H76  1  0.38773436  0.38420738  0.26773800  1  0.085933  0.00177  0.120789  0.090968  0.000405  0.988478  0.001
H  H77  1  0.88772080  0.61579570  0.23225870  1  0.086183  0.00177  0.120726  0.0908  0.000405  0.988496  0.001
H  H78  1  0.61225755  0.61579940  0.73225886  1  0.085848  0.001769  0.120798  0.091067  0.000405  0.988427  0.001
H  H79  1  0.11227445  0.38420603  0.76773517  1  0.085979  0.001769  0.120781  0.090959  0.000405  0.988429  0.001
H  H80  1  0.07816251  0.51545354  0.28907461  1  0.106068  0.00168  0.12195  0.095488  0.000519  0.99135  0.001
H  H81  1  0.57813602  0.48455811  0.21093058  1  0.105548  0.001681  0.121887  0.095355  0.000519  0.991209  0.001
H  H82  1  0.92183943  0.48456341  0.71091913  1  0.106271  0.00168  0.121983  0.095582  0.000519  0.991317  0.001
H  H83  1  0.42185255  0.51544135  0.78907452  1  0.105833  0.00168  0.121858  0.095386  0.000519  0.991322  0.001
H  H84  1  0.12991448  0.59202695  0.37648811  1  0.063821  0.00099  0.106268  0.109153  0.000479  1.001751  0.0
H  H85  1  0.62988531  0.40797155  0.12351654  1  0.063921  0.00099  0.106266  0.109149  0.000479  1.001841  0.0
H  H86  1  0.87008412  0.40798128  0.62350809  1  0.06395  0.00099  0.106252  0.1092  0.000479  1.001688  0.0
H  H87  1  0.37009657  0.59202285  0.87648747  1  0.064175  0.00099  0.106227  0.109156  0.000479  1.001712  0.0
H  H88  1  0.08327770  0.75114647  0.64874305  1  0.033513  0.000874  0.099383  0.088665  0.000318  0.95607  0.0
H  H89  1  0.58327948  0.24885750  0.85125926  1  0.033501  0.000874  0.099353  0.08858  0.000318  0.956058  0.0
H  H90  1  0.91672591  0.24886097  0.35126144  1  0.033136  0.000874  0.099334  0.088556  0.000318  0.956104  0.0
H  H91  1  0.41672163  0.75114493  0.14873732  1  0.03302  0.000874  0.099344  0.088605  0.000318  0.956099  0.0
H  H92  1  0.06588117  0.53267777  0.65362870  1  0.0621  0.000382  0.090118  0.09269  0.000157  1.010656  0.0
H  H93  1  0.56588409  0.46732765  0.84637714  1  0.062059  0.000383  0.090099  0.092682  0.000158  1.010687  0.0
H  H94  1  0.93410990  0.46732893  0.34637688  1  0.061987  0.000383  0.090093  0.092717  0.000157  1.010676  0.0
H  H95  1  0.43411785  0.53267764  0.15362379  1  0.062079  0.000383  0.090103  0.092651  0.000158  1.010721  0.0
H  H96  1  0.00012051  0.59895886  0.60850284  1  0.03541  0.000104  0.084623  0.0784  -6e-06  0.997264  0.0
H  H97  1  0.50012503  0.40104092  0.89150308  1  0.03538  0.000104  0.084569  0.078401  -6e-06  0.997226  0.0
H  H98  1  0.99987725  0.40105363  0.39150312  1  0.035233  0.000104  0.084581  0.078408  -6e-06  0.997184  0.0
H  H99  1  0.49987106  0.59895569  0.10849652  1  0.035409  0.000104  0.084566  0.078394  -6e-06  0.997172  0.0
H  H100  1  0.17262645  0.50948193  0.57420812  1  0.025705  0.000479  0.084647  0.078235  0.000237  0.996601  0.0
H  H101  1  0.67263474  0.49052184  0.92579484  1  0.02561  0.000479  0.084632  0.078179  0.000237  0.99657  0.0
H  H102  1  0.82736212  0.49052552  0.42579447  1  0.025484  0.000479  0.084627  0.078197  0.000237  0.996541  0.0
H  H103  1  0.32735884  0.50947400  0.07420927  1  0.025638  0.000479  0.084652  0.07822  0.000237  0.996516  0.0
H  H104  1  0.18496097  0.63614710  0.57268434  1  -0.012607  0.000547  0.083847  0.073913  0.000181  0.987505  0.0
H  H105  1  0.68496790  0.36385446  0.92731960  1  -0.013146  0.000547  0.083854  0.073882  0.000181  0.987431  0.0
H  H106  1  0.81503428  0.36386105  0.42732058  1  -0.013191  0.000547  0.08384  0.073873  0.000181  0.98755  0.0
H  H107  1  0.31503070  0.63614287  0.07268005  1  -0.013236  0.000547  0.08387  0.073881  0.000181  0.987427  0.0
H  H108  1  0.36010100  0.57922755  0.60355985  1  0.031012  5.5e-05  0.099058  0.080483  -1.8e-05  0.996352  0.0
H  H109  1  0.86010711  0.42077439  0.89643975  1  0.030906  5.5e-05  0.099093  0.080466  -1.8e-05  0.996383  0.0
H  H110  1  0.63989091  0.42077049  0.39644137  1  0.031104  5.5e-05  0.099055  0.080426  -1.8e-05  0.996393  0.0
H  H111  1  0.13988898  0.57923235  0.10356166  1  0.031151  5.5e-05  0.099099  0.080475  -1.8e-05  0.996413  0.0
H  H112  1  0.30042623  0.73865985  0.64429091  1  -0.004159  0.00041  0.085492  0.079238  0.000154  0.992048  0.0
H  H113  1  0.80041959  0.26133565  0.85571402  1  -0.003918  0.00041  0.085476  0.079203  0.000154  0.991998  0.0
H  H114  1  0.69958407  0.26133599  0.35571320  1  -0.004261  0.00041  0.085473  0.079209  0.000154  0.991963  0.0
H  H115  1  0.19957817  0.73867472  0.14428611  1  -0.004093  0.00041  0.085518  0.079273  0.000154  0.991994  0.0
H  H116  1  0.37155583  0.67577312  0.68925585  1  0.020199  0.000675  0.089086  0.086643  0.000323  1.017999  0.0
H  H117  1  0.87156264  0.32421644  0.81074710  1  0.020238  0.000675  0.089059  0.086629  0.000323  1.018013  0.0
H  H118  1  0.62844528  0.32421694  0.31074674  1  0.020142  0.000674  0.089065  0.086662  0.000323  1.018091  0.0
H  H119  1  0.12843679  0.67579172  0.18925630  1  0.019956  0.000674  0.08905  0.086641  0.000323  1.018063  0.0
H  H120  1  0.18907213  0.62932983  0.72589635  1  0.035754  0.000248  0.092583  0.099114  1.9e-05  0.985773  0.0
H  H121  1  0.68907902  0.37067029  0.77410635  1  0.035833  0.000248  0.092615  0.099181  1.9e-05  0.985727  0.0
H  H122  1  0.81092898  0.37067473  0.27410606  1  0.035817  0.000248  0.092589  0.099158  1.9e-05  0.985694  0.0
H  H123  1  0.31092292  0.62932924  0.22589117  1  0.035926  0.000248  0.092623  0.099154  1.9e-05  0.98569  0.0
H  H124  1  0.19859927  0.75627230  0.72776978  1  0.0107  3.7e-05  0.086351  0.079574  -2e-05  1.001438  0.0
H  H125  1  0.69859730  0.24372779  0.77223329  1  0.010696  3.7e-05  0.086355  0.079638  -2e-05  1.001427  0.0
H  H126  1  0.80141019  0.24373007  0.27223437  1  0.010666  3.7e-05  0.086323  0.079574  -2e-05  1.001539  0.0
H  H127  1  0.30140798  0.75627315  0.22776812  1  0.010626  3.7e-05  0.086334  0.07953  -2e-05  1.001556  0.0
H  H128  1  0.54268754  0.73418168  0.82492809  1  0.055361  0.000488  0.100404  0.088806  0.000147  0.955609  0.0
H  H129  1  0.04268433  0.26582021  0.67507337  1  0.055334  0.000488  0.100416  0.088844  0.000147  0.95554  0.0
H  H130  1  0.45731942  0.26582362  0.17507171  1  0.05557  0.000488  0.100413  0.088794  0.000148  0.955671  0.0
H  H131  1  0.95731259  0.73417997  0.32493140  1  0.055696  0.000487  0.100411  0.088836  0.000147  0.955651  0.0
H  H132  1  0.65313836  0.87070231  0.87058385  1  0.028565  5.8e-05  0.088341  0.083651  -5e-05  1.00971  0.0
H  H133  1  0.15313407  0.12930008  0.62941525  1  0.028265  5.8e-05  0.088329  0.083621  -5e-05  1.009663  0.0
H  H134  1  0.34687696  0.12931030  0.12940809  1  0.02672  5.8e-05  0.088287  0.083649  -5e-05  1.009613  0.0
H  H135  1  0.84686954  0.87070444  0.37059095  1  0.028209  5.8e-05  0.088299  0.083681  -5e-05  1.009672  0.0
H  H136  1  0.57927157  0.95371318  0.83708652  1  0.037711  0.000259  0.088945  0.088645  9.6e-05  1.00879  0.0
H  H137  1  0.07926815  0.04628792  0.66291334  1  0.037716  0.000259  0.088923  0.088578  9.6e-05  1.008859  0.0
H  H138  1  0.42072870  0.04629435  0.16290698  1  0.03727  0.000259  0.088942  0.088674  9.6e-05  1.008805  0.0
H  H139  1  0.92073379  0.95371373  0.33708888  1  0.037508  0.000259  0.088894  0.088579  9.6e-05  1.008862  0.0
H  H140  1  0.49634961  0.95208403  0.92217501  1  0.044093  0.000483  0.091758  0.09177  0.000209  0.97761  0.0
H  H141  1  0.99634500  0.04792558  0.57782494  1  0.044217  0.000483  0.091775  0.091826  0.000209  0.977486  0.0
H  H142  1  0.50367657  0.04792344  0.07782455  1  0.04381  0.000483  0.091792  0.091722  0.000209  0.977443  0.0
H  H143  1  0.00366447  0.95208550  0.42217675  1  0.044059  0.000483  0.091812  0.091906  0.000209  0.977593  0.0
H  H144  1  0.47725672  0.82484110  0.91122325  1  0.00513  0.000516  0.083382  0.071722  0.000177  0.987293  0.0
H  H145  1  0.97725173  0.17516489  0.58878028  1  0.005665  0.000516  0.083386  0.071773  0.000177  0.987261  0.0
H  H146  1  0.52276779  0.17516781  0.08877716  1  0.005544  0.000516  0.083368  0.07175  0.000177  0.987357  0.0
H  H147  1  0.02275690  0.82484253  0.41122497  1  0.00511  0.000516  0.083355  0.071744  0.000177  0.987292  0.0
H  H148  1  0.29873408  0.89600325  0.89797264  1  0.004041  0.000439  0.095198  0.073091  0.000166  0.985965  0.0
H  H149  1  0.79873003  0.10400241  0.60203030  1  0.004076  0.000439  0.095195  0.073077  0.000166  0.986082  0.0
H  H150  1  0.70128375  0.10400197  0.10203587  1  0.004484  0.000438  0.09521  0.073162  0.000166  0.986055  0.0
H  H151  1  0.20127693  0.89600289  0.39796912  1  0.004027  0.000438  0.095216  0.07314  0.000166  0.986062  0.0
H  H152  1  0.33367682  0.75661786  0.83616461  1  -0.009424  0.000189  0.081718  0.068656  5.3e-05  1.013258  0.0
H  H153  1  0.83367460  0.24338483  0.66383924  1  -0.009402  0.000189  0.081733  0.068652  5.3e-05  1.013216  0.0
H  H154  1  0.66633599  0.24339608  0.16384221  1  -0.009448  0.000189  0.081718  0.068578  5.3e-05  1.01326  0.0
H  H155  1  0.16632233  0.75661028  0.33616557  1  -0.009577  0.000189  0.081722  0.068661  5.3e-05  1.013225  0.0
H  H156  1  0.26218098  0.84377473  0.80477475  1  0.025152  0.000476  0.088288  0.082472  0.000187  1.016384  0.0
H  H157  1  0.76218132  0.15622593  0.69522904  1  0.025094  0.000476  0.088362  0.082531  0.000187  1.01633  0.0
H  H158  1  0.73782430  0.15623121  0.19523419  1  0.024711  0.000476  0.088347  0.082436  0.000187  1.016546  0.0
H  H159  1  0.23782063  0.84376704  0.30477109  1  0.025145  0.000476  0.088372  0.082548  0.000187  1.016348  0.0
H  H160  1  0.41907925  0.76762328  0.75154489  1  0.015004  6.9e-05  0.0881  0.084695  -7e-06  1.014299  0.0
H  H161  1  0.91908078  0.23237197  0.74845838  1  0.01495  6.9e-05  0.088112  0.08476  -7e-06  1.014331  0.0
H  H162  1  0.58091266  0.23237473  0.24845936  1  0.014905  6.9e-05  0.088107  0.084774  -7e-06  1.014301  0.0
H  H163  1  0.08091531  0.76762097  0.25154554  1  0.014992  6.9e-05  0.088073  0.084653  -7e-06  1.014336  0.0
H  H164  1  0.44326100  0.89255359  0.76676928  1  0.041045  0.000136  0.088614  0.090525  -5.2e-05  1.006725  0.0
H  H165  1  0.94326293  0.10744236  0.73323059  1  0.04099  0.000136  0.088628  0.090547  -5.2e-05  1.006599  0.0
H  H166  1  0.55673676  0.10744375  0.23322924  1  0.040985  0.000136  0.08864  0.0906  -5.2e-05  1.006622  0.0
H  H167  1  0.05673400  0.89255350  0.26677124  1  0.041047  0.000136  0.088638  0.090576  -5.2e-05  1.006577  0.0
C  C168  1  0.96679838  0.91309637  0.76353499  1  0.451476  -0.009091  0.04802  0.097971  -0.009924  3.947863  -0.005
C  C169  1  0.46680616  0.08689883  0.73646291  1  0.451509  -0.009091  0.048036  0.097886  -0.009923  3.947531  -0.005
C  C170  1  0.03319938  0.08689951  0.23646495  1  0.451369  -0.009097  0.048067  0.098123  -0.00993  3.94782  -0.005
C  C171  1  0.53320331  0.91309562  0.26353504  1  0.451291  -0.009095  0.04805  0.097909  -0.009927  3.947726  -0.005
C  C172  1  0.01238398  0.95096918  0.80993754  1  0.025936  0.000859  -0.076995  -0.158013  -0.000526  3.907157  0.002
C  C173  1  0.51238795  0.04902848  0.69005837  1  0.026306  0.00086  -0.077003  -0.157983  -0.000525  3.90708  0.002
C  C174  1  0.98760793  0.04903176  0.19006387  1  0.025996  0.000862  -0.077013  -0.157996  -0.000524  3.907216  0.002
C  C175  1  0.48761231  0.95096308  0.30993825  1  0.025893  0.000861  -0.07697  -0.157938  -0.000525  3.907062  0.002
C  C176  1  0.94329201  0.00190605  0.84699471  1  -0.090156  -0.011649  0.00762  0.10935  -0.012077  3.995893  -0.007
C  C177  1  0.44328960  0.99809137  0.65300375  1  -0.09011  -0.011648  0.007547  0.109169  -0.012077  3.995885  -0.007
C  C178  1  0.05669655  0.99809127  0.15300608  1  -0.090211  -0.011659  0.00748  0.108978  -0.012087  3.995678  -0.007
C  C179  1  0.55670315  0.00190380  0.34699425  1  -0.089991  -0.011652  0.007491  0.109047  -0.012081  3.995831  -0.007
C  C180  1  0.83113960  0.01670332  0.83388360  1  -0.00775  0.002182  -0.075263  -0.156499  0.00067  3.923904  0.002
C  C181  1  0.33113883  0.98329143  0.66611745  1  -0.007803  0.002182  -0.075178  -0.156429  0.00067  3.923821  0.002
C  C182  1  0.16885063  0.98328968  0.16611425  1  -0.007927  0.002185  -0.075163  -0.156396  0.000671  3.923591  0.002
C  C183  1  0.66885810  0.01670660  0.33388528  1  -0.007794  0.002184  -0.075276  -0.156482  0.000671  3.923771  0.002
C  C184  1  0.79313043  0.97739699  0.78628829  1  0.441977  -0.006823  0.043152  0.090475  -0.007084  3.951661  -0.004
C  C185  1  0.29313516  0.02260218  0.71371310  1  0.441726  -0.006821  0.04314  0.090543  -0.007083  3.951539  -0.004
C  C186  1  0.20686315  0.02260182  0.21370805  1  0.441921  -0.006829  0.0431  0.090462  -0.007089  3.951417  -0.004
C  C187  1  0.70686846  0.97739728  0.28629125  1  0.441949  -0.006825  0.043127  0.090418  -0.007085  3.951667  -0.004
C  C188  1  0.99074531  0.03758827  0.89635814  1  0.615411  -0.013583  0.073955  0.047022  -0.015053  3.927395  -0.007
C  C189  1  0.49074492  0.96240613  0.60364234  1  0.615326  -0.013582  0.07402  0.047128  -0.015052  3.927209  -0.007
C  C190  1  0.00923573  0.96241265  0.10364479  1  0.616053  -0.013579  0.074316  0.047779  -0.015049  3.926907  -0.007
C  C191  1  0.50924030  0.03758833  0.39635485  1  0.61565  -0.01358  0.074196  0.047533  -0.01505  3.926967  -0.007
C  C192  1  0.93184224  0.13925618  0.01586706  1  0.605689  -0.01081  0.071716  0.045843  -0.011811  3.929475  -0.005
C  C193  1  0.43183588  0.86074673  0.48413641  1  0.605708  -0.010809  0.071841  0.046075  -0.01181  3.929675  -0.005
C  C194  1  0.06813546  0.86074399  0.98413885  1  0.606258  -0.010814  0.071549  0.045743  -0.011817  3.929907  -0.005
C  C195  1  0.56814934  0.13925716  0.51585875  1  0.606159  -0.010811  0.071591  0.045774  -0.011813  3.930054  -0.005
C  C196  1  0.98510840  0.18220890  0.06260709  1  -0.045588  -0.017464  0.002583  0.100275  -0.018274  4.023018  -0.01
C  C197  1  0.48510240  0.81779318  0.43739627  1  -0.04513  -0.017463  0.002512  0.100243  -0.018272  4.023118  -0.01
C  C198  1  0.01487181  0.81778911  0.93739754  1  -0.045138  -0.017466  0.002494  0.099915  -0.018274  4.023048  -0.01
C  C199  1  0.51488867  0.18220344  0.56260220  1  -0.044723  -0.017467  0.002509  0.100264  -0.018275  4.023202  -0.01
C  C200  1  0.10212810  0.19116447  0.06719144  1  0.016302  0.002593  -0.079656  -0.158157  0.000753  3.935004  0.003
C  C201  1  0.60212468  0.80883917  0.43281130  1  0.016468  0.002592  -0.07973  -0.158282  0.000753  3.935167  0.003
C  C202  1  0.89785629  0.80882197  0.93281015  1  0.01644  0.002591  -0.079617  -0.157954  0.000753  3.934727  0.003
C  C203  1  0.39786639  0.19116323  0.56718793  1  0.016491  0.002592  -0.079649  -0.158251  0.000752  3.934865  0.003
C  C204  1  0.14686766  0.24076430  0.11109614  1  0.498223  -0.009531  0.043302  0.088631  -0.009826  3.945869  -0.006
C  C205  1  0.64686210  0.75923706  0.38890830  1  0.498124  -0.009528  0.043505  0.089057  -0.009822  3.945826  -0.006
C  C206  1  0.85312843  0.75921127  0.88890663  1  0.49858  -0.009532  0.043402  0.088729  -0.009826  3.945773  -0.006
C  C207  1  0.35313566  0.24077186  0.61109136  1  0.498143  -0.00953  0.043592  0.089209  -0.009824  3.945743  -0.006
C  C208  1  0.97184874  0.26935542  0.14729627  1  0.494937  -0.012695  0.047075  0.097004  -0.013398  3.944625  -0.008
C  C209  1  0.47184258  0.73064668  0.35270710  1  0.495014  -0.012695  0.047103  0.097294  -0.013399  3.944627  -0.008
C  C210  1  0.02814985  0.73064841  0.85270571  1  0.495043  -0.012693  0.047087  0.097201  -0.013396  3.94449  -0.008
C  C211  1  0.52816187  0.26934341  0.64729207  1  0.495119  -0.012695  0.047131  0.097413  -0.0134  3.944712  -0.008
C  C212  1  0.92018356  0.22143603  0.10435091  1  -0.025428  0.002026  -0.083282  -0.173349  0.000104  3.952785  0.003
C  C213  1  0.42017287  0.77856328  0.39565423  1  -0.026212  0.002027  -0.083217  -0.173439  0.000104  3.952734  0.003
C  C214  1  0.07981253  0.77857286  0.89565292  1  -0.025679  0.002027  -0.083232  -0.173323  0.000105  3.952769  0.003
C  C215  1  0.57982489  0.22142682  0.60434419  1  -0.026619  0.002027  -0.083211  -0.173451  0.000104  3.952827  0.003
C  C216  1  0.60088442  0.75876441  0.62148044  1  0.458144  -0.009975  0.045889  0.088535  -0.01053  3.935866  -0.006
C  C217  1  0.10087600  0.24123593  0.87851858  1  0.459209  -0.009968  0.045773  0.088408  -0.010526  3.935889  -0.006
C  C218  1  0.39914511  0.24122069  0.37850893  1  0.458497  -0.00997  0.045783  0.088173  -0.010529  3.935868  -0.006
C  C219  1  0.89913263  0.75876643  0.12148595  1  0.458401  -0.009969  0.045756  0.088292  -0.010528  3.935846  -0.006
C  C220  1  0.54850360  0.70970314  0.57927842  1  -0.069642  0.001222  -0.07191  -0.140231  3.2e-05  3.915524  0.002
C  C221  1  0.04849316  0.29029658  0.92072100  1  -0.070885  0.001218  -0.072103  -0.140518  3.1e-05  3.915798  0.002
C  C222  1  0.45152510  0.29027975  0.42071498  1  -0.070022  0.001221  -0.07221  -0.140604  3.3e-05  3.915887  0.002
C  C223  1  0.95151129  0.70970578  0.07928316  1  -0.070191  0.00122  -0.07216  -0.140574  3.2e-05  3.915855  0.002
C  C224  1  0.61348445  0.66766346  0.53810570  1  -0.03104  -0.015557  0.004436  0.097449  -0.016245  4.032205  -0.009
C  C225  1  0.11346951  0.33233830  0.96189340  1  -0.030872  -0.015551  0.004435  0.097433  -0.016238  4.032367  -0.009
C  C226  1  0.38653338  0.33231221  0.46188532  1  -0.031416  -0.015555  0.004501  0.097448  -0.01624  4.032486  -0.009
C  C227  1  0.88652407  0.66766695  0.03811247  1  -0.031013  -0.015555  0.004516  0.097499  -0.016242  4.032365  -0.009
C  C228  1  0.73011459  0.67854003  0.54195750  1  0.009923  0.00286  -0.082349  -0.173338  0.000726  3.952687  0.003
C  C229  1  0.23009802  0.32145786  0.95804122  1  0.009327  0.002858  -0.08227  -0.173298  0.000725  3.952366  0.003
C  C230  1  0.26990658  0.32142843  0.45802964  1  0.009267  0.002857  -0.082145  -0.172941  0.000725  3.952439  0.003
C  C231  1  0.76990141  0.67855029  0.04196446  1  0.009514  0.00286  -0.082287  -0.173304  0.000726  3.95249  0.003
C  C232  1  0.77603713  0.72988079  0.58537849  1  0.473671  -0.011815  0.046236  0.095009  -0.012287  3.952062  -0.007
C  C233  1  0.27602427  0.27011990  0.91461884  1  0.474222  -0.01181  0.046308  0.095051  -0.012282  3.952303  -0.007
C  C234  1  0.22398739  0.27009853  0.41460860  1  0.473854  -0.011811  0.046095  0.094793  -0.012283  3.952818  -0.007
C  C235  1  0.72397935  0.72988968  0.08538806  1  0.473919  -0.011817  0.046159  0.094994  -0.012289  3.952566  -0.007
C  C236  1  0.56510903  0.61561894  0.49249037  1  0.585248  -0.012578  0.074714  0.052936  -0.01374  3.929123  -0.006
C  C237  1  0.06508971  0.38437467  0.00750986  1  0.585138  -0.012579  0.074641  0.052858  -0.013743  3.929199  -0.006
C  C238  1  0.43490295  0.38436325  0.50750071  1  0.585323  -0.012577  0.074654  0.052823  -0.013741  3.929542  -0.006
C  C239  1  0.93490137  0.61562334  0.99249515  1  0.585311  -0.012579  0.074658  0.053065  -0.013743  3.929235  -0.006
C  C240  1  0.33161569  0.57204580  0.42324502  1  0.57831  -0.013335  0.067112  0.029932  -0.014637  3.951603  -0.007
C  C241  1  0.83159424  0.42794140  0.07675791  1  0.578641  -0.013335  0.067001  0.029629  -0.014636  3.9509  -0.007
C  C242  1  0.66838625  0.42794649  0.57675127  1  0.578737  -0.013331  0.067129  0.029988  -0.014632  3.951284  -0.007
C  C243  1  0.16839098  0.57205738  0.92324147  1  0.578134  -0.013335  0.067091  0.029904  -0.014636  3.951524  -0.007
C  C244  1  0.29636081  0.52794879  0.37307626  1  -0.042468  -0.011551  0.001027  0.093191  -0.012147  4.03461  -0.006
C  C245  1  0.79633647  0.47204720  0.12692463  1  -0.042892  -0.011554  0.001017  0.093433  -0.012151  4.033978  -0.006
C  C246  1  0.70363612  0.47205798  0.62692060  1  -0.050573  -0.011558  0.001062  0.093059  -0.012156  4.034401  -0.006
C  C247  1  0.20364540  0.52795087  0.87307355  1  -0.042602  -0.011556  0.000946  0.093123  -0.012154  4.034438  -0.006
C  C248  1  0.36938754  0.46947848  0.34094375  1  0.096979  0.00065  -0.07243  -0.13751  -0.000677  3.895493  0.001
C  C249  1  0.86936289  0.53051446  0.15905611  1  0.096992  0.000651  -0.072362  -0.137146  -0.000676  3.894963  0.001
C  C250  1  0.63060520  0.53052757  0.65905269  1  0.104427  0.000652  -0.072514  -0.137481  -0.000674  3.895571  0.001
C  C251  1  0.13061648  0.46948217  0.84094047  1  0.097067  0.000651  -0.07241  -0.137474  -0.000677  3.895384  0.001
C  C252  1  0.33259604  0.42950895  0.29334197  1  0.425941  -0.008304  0.052824  0.112103  -0.00904  3.919324  -0.005
C  C253  1  0.83257688  0.57049204  0.20665807  1  0.425051  -0.008312  0.052947  0.112255  -0.009044  3.918994  -0.005
C  C254  1  0.66739838  0.57049854  0.70665532  1  0.426172  -0.008311  0.052824  0.111838  -0.009046  3.919156  -0.005
C  C255  1  0.16741001  0.42950894  0.79333879  1  0.425389  -0.008311  0.052867  0.112147  -0.009044  3.918974  -0.005
C  C256  1  0.16005089  0.50347114  0.30530587  1  0.463086  -0.008507  0.043644  0.094431  -0.008944  3.949303  -0.005
C  C257  1  0.66003031  0.49653310  0.19469684  1  0.464158  -0.008509  0.043792  0.094622  -0.008947  3.949077  -0.005
C  C258  1  0.83994855  0.49653855  0.69468853  1  0.462873  -0.008511  0.04355  0.094078  -0.008949  3.949423  -0.005
C  C259  1  0.33996160  0.50346855  0.80530575  1  0.463551  -0.008507  0.043629  0.094358  -0.008946  3.949081  -0.005
C  C260  1  0.18970025  0.54579409  0.35379589  1  -0.030336  0.00145  -0.084411  -0.178491  -0.000191  3.965423  0.002
C  C261  1  0.68967669  0.45420865  0.14620669  1  -0.031051  0.001451  -0.084405  -0.178608  -0.00019  3.965491  0.002
C  C262  1  0.81030253  0.45421633  0.64619893  1  -0.030614  0.001453  -0.084366  -0.178387  -0.000189  3.965352  0.002
C  C263  1  0.31031439  0.54579012  0.85379495  1  -0.031147  0.00145  -0.084261  -0.178367  -0.000191  3.965338  0.002
C  C264  1  0.97847888  0.69559306  0.70318879  1  1.528921  0.003497  0.221562  0.599621  0.001538  4.126726  0.004
C  C265  1  0.47848747  0.30440571  0.79681275  1  1.52907  0.003493  0.221699  0.599818  0.001535  4.126505  0.004
C  C266  1  0.02152473  0.30440933  0.29681310  1  1.528967  0.003497  0.221604  0.599665  0.001539  4.12682  0.004
C  C267  1  0.52152283  0.69559959  0.20318667  1  1.52965  0.003493  0.2216  0.599831  0.001539  4.126587  0.004
C  C268  1  0.08388886  0.68809179  0.67048834  1  0.002639  0.010065  -0.089746  -0.114421  0.005417  3.866745  0.008
C  C269  1  0.58389644  0.31191146  0.82951317  1  0.002587  0.010065  -0.089739  -0.114325  0.005417  3.866643  0.008
C  C270  1  0.91611308  0.31191493  0.32951496  1  0.003129  0.010065  -0.089644  -0.114314  0.005417  3.866761  0.008
C  C271  1  0.41611052  0.68809168  0.17048460  1  0.003101  0.010067  -0.089697  -0.114403  0.005418  3.866591  0.008
C  C272  1  0.07544023  0.59523952  0.63215819  1  -0.047618  0.000361  -0.166573  -0.160614  3.3e-05  3.898191  0.0
C  C273  1  0.57544069  0.40476083  0.86784617  1  -0.047509  0.000361  -0.166502  -0.160626  3.3e-05  3.89809  0.0
C  C274  1  0.92455920  0.40476575  0.36784540  1  -0.047434  0.000361  -0.166548  -0.160723  3.3e-05  3.89822  0.0
C  C275  1  0.42455624  0.59523939  0.13215444  1  -0.047568  0.000361  -0.166524  -0.160646  3.4e-05  3.898111  0.0
C  C276  1  0.17961711  0.57936557  0.59843774  1  -0.000794  0.002032  -0.164939  -0.148479  0.00122  3.938772  0.001
C  C277  1  0.67962153  0.42063456  0.90156536  1  -0.000291  0.002032  -0.164934  -0.14844  0.00122  3.938422  0.001
C  C278  1  0.82037814  0.42063752  0.40156533  1  -0.000135  0.002032  -0.164921  -0.148424  0.00122  3.938606  0.001
C  C279  1  0.32037456  0.57936638  0.09843567  1  -0.000153  0.002032  -0.164906  -0.148301  0.001221  3.938287  0.001
C  C280  1  0.28779751  0.58223462  0.62971058  1  0.003539  0.003426  -0.091758  -0.110971  0.002011  3.869343  0.002
C  C281  1  0.78780210  0.41776384  0.87029039  1  0.003487  0.003426  -0.091801  -0.110765  0.00201  3.869153  0.002
C  C282  1  0.71219691  0.41776341  0.37029139  1  0.003283  0.003426  -0.091803  -0.11081  0.002011  3.869218  0.002
C  C283  1  0.21219399  0.58224650  0.12971278  1  0.002787  0.003426  -0.091941  -0.111078  0.00201  3.869496  0.002
C  C284  1  0.29458329  0.67662241  0.66661224  1  0.01321  0.001381  -0.163026  -0.159942  0.000739  3.919911  0.001
C  C285  1  0.79458664  0.32337312  0.83339081  1  0.013184  0.001381  -0.163003  -0.15999  0.000739  3.919843  0.001
C  C286  1  0.70542033  0.32337273  0.33338841  1  0.013681  0.001381  -0.162951  -0.159973  0.000739  3.91987  0.001
C  C287  1  0.20541363  0.67663867  0.16661283  1  0.013174  0.001381  -0.163  -0.160094  0.000739  3.920058  0.001
C  C288  1  0.19218714  0.68851425  0.70166428  1  -0.000982  0.001649  -0.167366  -0.158156  0.000864  3.916937  0.001
C  C289  1  0.69219405  0.31148513  0.79833837  1  -0.001427  0.001649  -0.167417  -0.158332  0.000863  3.91698  0.001
C  C290  1  0.80781648  0.31148885  0.29833803  1  -0.001219  0.001649  -0.167367  -0.158153  0.000863  3.91704  0.001
C  C291  1  0.30781541  0.68851944  0.20166214  1  -0.000628  0.001649  -0.167415  -0.158053  0.000863  3.916938  0.001
C  C292  1  0.30269880  0.49586143  0.65965409  1  1.520133  -0.003804  0.197454  0.56909  -0.005333  4.135754  -0.005
C  C293  1  0.80269247  0.50413413  0.84034326  1  1.520311  -0.003805  0.197389  0.56899  -0.005333  4.13586  -0.005
C  C294  1  0.69729812  0.50413879  0.34034651  1  1.520369  -0.003805  0.197413  0.568957  -0.005333  4.135832  -0.005
C  C295  1  0.19729609  0.49587406  0.15965787  1  1.520224  -0.003807  0.197275  0.568811  -0.005334  4.13614  -0.005
C  C296  1  0.64800471  0.79199913  0.77201450  1  1.544609  0.001625  0.221527  0.595837  0.000115  4.128193  0.003
C  C297  1  0.14800722  0.20800255  0.72798493  1  1.544454  0.001625  0.221562  0.596009  0.000114  4.128078  0.003
C  C298  1  0.35200225  0.20800693  0.22798117  1  1.54497  0.001613  0.221486  0.595845  0.000113  4.128178  0.003
C  C299  1  0.85200475  0.79199982  0.27201884  1  1.544928  0.00161  0.221544  0.595949  0.000111  4.127977  0.003
C  C300  1  0.54854216  0.80343971  0.80845246  1  -0.030102  0.010515  -0.090329  -0.113622  0.005604  3.872306  0.008
C  C301  1  0.04854489  0.19656072  0.69154890  1  -0.030151  0.010513  -0.090352  -0.113763  0.005603  3.872151  0.008
C  C302  1  0.45146062  0.19656416  0.19154573  1  -0.030582  0.010513  -0.090299  -0.113641  0.005602  3.872471  0.008
C  C303  1  0.95145621  0.80344018  0.30845668  1  -0.030619  0.010512  -0.090291  -0.113732  0.005601  3.872408  0.008
C  C304  1  0.57266203  0.88398325  0.85260177  1  -0.028329  0.000211  -0.164784  -0.158536  -9.7e-05  3.898032  0.0
C  C305  1  0.07265935  0.11601569  0.64739871  1  -0.027939  0.000211  -0.164692  -0.158234  -9.7e-05  3.897802  0.0
C  C306  1  0.42734995  0.11602064  0.14739339  1  -0.025693  0.000211  -0.164641  -0.158429  -9.7e-05  3.897881  0.0
C  C307  1  0.92734427  0.88398811  0.35260668  1  -0.027638  0.00021  -0.164615  -0.158358  -9.8e-05  3.898037  0.0
C  C308  1  0.47899143  0.89158613  0.89240190  1  -0.005847  0.002049  -0.163932  -0.150587  0.001207  3.937904  0.001
C  C309  1  0.97898651  0.10841843  0.60759964  1  -0.006708  0.002049  -0.163994  -0.150826  0.001207  3.937916  0.001
C  C310  1  0.52103141  0.10842207  0.10759809  1  -0.006552  0.002049  -0.163977  -0.150577  0.001207  3.937845  0.001
C  C311  1  0.02102296  0.89158828  0.39240404  1  -0.006416  0.002049  -0.164005  -0.150866  0.001207  3.93811  0.001
C  C312  1  0.36345233  0.90499446  0.86908684  1  -0.001674  0.003847  -0.090076  -0.103237  0.002224  3.864603  0.003
C  C313  1  0.86344898  0.09500673  0.63091498  1  -0.001197  0.003845  -0.090106  -0.103347  0.002223  3.86489  0.003
C  C314  1  0.63656132  0.09501295  0.13091954  1  -0.002093  0.003846  -0.090197  -0.103543  0.002223  3.865295  0.003
C  C315  1  0.13655714  0.90499350  0.36908449  1  -0.001052  0.003846  -0.090133  -0.103333  0.002223  3.864962  0.003
C  C316  1  0.34218330  0.82833870  0.82263432  1  0.001346  0.000947  -0.163072  -0.156743  0.000441  3.910918  0.001
C  C317  1  0.84218118  0.17166253  0.67736866  1  0.00125  0.000947  -0.163156  -0.156678  0.000441  3.910964  0.001
C  C318  1  0.65782784  0.17167161  0.17737339  1  0.002194  0.000947  -0.163067  -0.156393  0.000441  3.911289  0.001
C  C319  1  0.15782160  0.82833044  0.32263260  1  0.001491  0.000947  -0.163182  -0.156783  0.000441  3.911017  0.001
C  C320  1  0.43708869  0.82386732  0.78339697  1  -0.013148  0.001545  -0.168961  -0.15737  0.000814  3.914195  0.001
C  C321  1  0.93708719  0.17613370  0.71660476  1  -0.012904  0.001545  -0.16897  -0.157466  0.000814  3.914077  0.001
C  C322  1  0.56291409  0.17613795  0.21660510  1  -0.01279  0.001546  -0.168977  -0.157587  0.000814  3.914247  0.001
C  C323  1  0.06291392  0.82386215  0.28339821  1  -0.013007  0.001546  -0.168911  -0.157288  0.000814  3.914017  0.001
C  C324  1  0.34276277  0.00614593  0.85406970  1  1.524897  -0.003715  0.197017  0.571994  -0.005055  4.137644  -0.005
C  C325  1  0.84275792  0.99385676  0.64593149  1  1.524597  -0.003716  0.197083  0.572233  -0.005056  4.137644  -0.005
C  C326  1  0.65724502  0.99386364  0.14593872  1  1.524239  -0.003716  0.197091  0.572125  -0.005056  4.137952  -0.005
C  C327  1  0.15724653  0.00614205  0.35406447  1  1.524584  -0.003717  0.197071  0.572013  -0.005055  4.138107  -0.005
N  N328  1  0.85827263  0.92331757  0.75198495  1  -1.194859  0.047485  -0.330997  -0.248399  0.025556  3.608225  0.042
N  N329  1  0.35828038  0.07667857  0.74801503  1  -1.194685  0.047473  -0.331038  -0.248483  0.025558  3.608164  0.042
N  N330  1  0.14172513  0.07668559  0.24801130  1  -1.194424  0.047471  -0.331044  -0.24849  0.025559  3.608392  0.042
N  N331  1  0.64172992  0.92331511  0.25198742  1  -1.194477  0.047477  -0.330968  -0.24831  0.02556  3.608337  0.042
N  N332  1  0.92840463  0.07548829  0.93387895  1  -0.749241  -0.006313  -0.219578  -0.191088  -0.006179  3.325237  -0.004
N  N333  1  0.42840036  0.92450842  0.56612175  1  -0.749396  -0.006314  -0.219559  -0.191105  -0.00618  3.32506  -0.004
N  N334  1  0.07156972  0.92451337  0.06612327  1  -0.749815  -0.006321  -0.219784  -0.191615  -0.006187  3.32553  -0.004
N  N335  1  0.57157817  0.07548604  0.43387506  1  -0.749593  -0.006315  -0.219759  -0.191539  -0.006181  3.325459  -0.004
N  N336  1  0.99151332  0.10754981  0.97635548  1  -0.753014  -0.011615  -0.207409  -0.159322  -0.011872  3.359698  -0.009
N  N337  1  0.49150935  0.89244893  0.52364566  1  -0.75297  -0.011612  -0.207545  -0.159486  -0.011868  3.359768  -0.009
N  N338  1  0.00846020  0.89245692  0.02364706  1  -0.753618  -0.011612  -0.207347  -0.1591  -0.011867  3.360038  -0.009
N  N339  1  0.50847169  0.10754262  0.47635210  1  -0.753402  -0.011614  -0.207274  -0.159064  -0.01187  3.359995  -0.009
N  N340  1  0.08341925  0.28026739  0.15070842  1  -1.185333  0.048761  -0.325238  -0.234515  0.025717  3.570175  0.047
N  N341  1  0.58341483  0.71973701  0.34929515  1  -1.184991  0.048767  -0.325175  -0.234718  0.025719  3.570268  0.047
N  N342  1  0.91657684  0.71972486  0.84929242  1  -1.185596  0.048761  -0.325201  -0.234739  0.025717  3.56996  0.047
N  N343  1  0.41658795  0.28026321  0.65070545  1  -1.185139  0.048764  -0.325233  -0.234915  0.025719  3.570266  0.047
N  N344  1  0.71297328  0.76949202  0.62480524  1  -1.192884  0.048549  -0.326777  -0.236154  0.025542  3.578771  0.046
N  N345  1  0.21296324  0.23051098  0.87519270  1  -1.192908  0.048543  -0.326694  -0.236048  0.02554  3.579098  0.046
N  N346  1  0.28705541  0.23050108  0.37518049  1  -1.192502  0.048546  -0.32663  -0.23606  0.025542  3.579502  0.046
N  N347  1  0.78704204  0.76949499  0.12481321  1  -1.192655  0.048539  -0.326607  -0.236024  0.025538  3.579242  0.046
N  N348  1  0.45771861  0.60876105  0.48562007  1  -0.703104  -0.011427  -0.212459  -0.177756  -0.011578  3.324713  -0.008
N  N349  1  0.95770177  0.39123386  0.01438058  1  -0.703232  -0.011421  -0.212661  -0.17794  -0.011572  3.324663  -0.008
N  N350  1  0.54229169  0.39122401  0.51437423  1  -0.702556  -0.011421  -0.21254  -0.177629  -0.011572  3.324906  -0.008
N  N351  1  0.04228763  0.60876999  0.98561913  1  -0.703323  -0.011421  -0.212676  -0.178113  -0.011572  3.32499  -0.008
N  N352  1  0.43235889  0.55824400  0.43899471  1  -0.751855  -0.008756  -0.202541  -0.147713  -0.008722  3.364913  -0.006
N  N353  1  0.93233666  0.44174953  0.06100587  1  -0.751669  -0.008762  -0.20222  -0.147399  -0.008728  3.364358  -0.006
N  N354  1  0.56764556  0.44174976  0.56099941  1  -0.752495  -0.008761  -0.202455  -0.147804  -0.008726  3.365042  -0.006
N  N355  1  0.06765023  0.55824707  0.93899449  1  -0.751557  -0.008762  -0.202268  -0.147386  -0.008727  3.364866  -0.006
N  N356  1  0.22889583  0.44380483  0.27562257  1  -1.199521  0.046796  -0.326626  -0.251893  0.024527  3.590086  0.043
N  N357  1  0.72887494  0.55620002  0.22437670  1  -1.19929  0.046796  -0.326728  -0.252022  0.024527  3.589895  0.043
N  N358  1  0.77110611  0.55620701  0.72437463  1  -1.199215  0.046793  -0.326602  -0.251642  0.024527  3.58972  0.043
N  N359  1  0.27111781  0.44379877  0.77562191  1  -1.19909  0.046796  -0.326576  -0.25183  0.024525  3.589551  0.043
O  O360  1  0.89210939  0.73322028  0.68552215  1  -1.178546  0.093581  -0.317863  -0.587364  0.048842  2.503887  0.077
O  O361  1  0.39211631  0.26677870  0.81447684  1  -1.178533  0.09358  -0.317854  -0.587364  0.048838  2.503757  0.077
O  O362  1  0.10789004  0.26677922  0.31447840  1  -1.178561  0.093549  -0.317853  -0.587298  0.048825  2.503861  0.077
O  O363  1  0.60788982  0.73322592  0.18551874  1  -1.178651  0.093549  -0.31783  -0.587344  0.048828  2.503706  0.077
O  O364  1  0.97963921  0.65962046  0.74549881  1  -1.151746  0.093721  -0.301385  -0.544192  0.049248  2.368858  0.078
O  O365  1  0.47965045  0.34037397  0.75450169  1  -1.151568  0.093715  -0.30147  -0.544298  0.04925  2.368729  0.078
O  O366  1  0.02036440  0.34038915  0.25450469  1  -1.151694  0.093714  -0.301414  -0.544222  0.049244  2.368879  0.078
O  O367  1  0.52035400  0.65963495  0.24549835  1  -1.151968  0.093707  -0.301408  -0.544324  0.049243  2.368658  0.078
O  O368  1  0.23056770  0.42820746  0.65836282  1  -1.15598  0.08411  -0.317799  -0.55368  0.043184  2.179689  0.074
O  O369  1  0.73056203  0.57178753  0.84163496  1  -1.156064  0.084107  -0.317805  -0.553664  0.043183  2.179729  0.074
O  O370  1  0.76942504  0.57179347  0.34163973  1  -1.156085  0.084109  -0.317801  -0.553603  0.043183  2.179771  0.074
O  O371  1  0.26942821  0.42821918  0.15836873  1  -1.155803  0.084129  -0.317647  -0.553385  0.043193  2.179711  0.074
O  O372  1  0.39107468  0.49245269  0.68679075  1  -1.143727  0.094737  -0.312949  -0.550122  0.049282  2.243998  0.081
O  O373  1  0.89106681  0.50753836  0.81320317  1  -1.143788  0.094738  -0.312862  -0.550124  0.049283  2.244061  0.081
O  O374  1  0.60892308  0.50754465  0.31320815  1  -1.14377  0.094734  -0.312869  -0.550079  0.049281  2.244048  0.081
O  O375  1  0.10892092  0.49246695  0.18679549  1  -1.143818  0.094724  -0.312834  -0.550004  0.049277  2.24419  0.081
O  O376  1  0.73366861  0.74917277  0.78687847  1  -1.172712  0.10153  -0.314817  -0.58298  0.053022  2.525867  0.085
O  O377  1  0.23367026  0.25082512  0.71311911  1  -1.172771  0.101513  -0.314789  -0.58305  0.053015  2.525958  0.085
O  O378  1  0.26633584  0.25083253  0.21312133  1  -1.17314  0.101542  -0.314759  -0.58294  0.053025  2.525901  0.085
O  O379  1  0.76633252  0.74917151  0.28687747  1  -1.173079  0.101561  -0.314809  -0.583006  0.053034  2.525846  0.085
O  O380  1  0.64392917  0.82831511  0.72979263  1  -1.155565  0.090213  -0.302403  -0.54492  0.047036  2.341815  0.076
O  O381  1  0.14393489  0.17168225  0.77020539  1  -1.155378  0.090212  -0.302462  -0.544998  0.047037  2.341749  0.076
O  O382  1  0.35606943  0.17167578  0.27019864  1  -1.155374  0.090238  -0.302471  -0.544955  0.047047  2.341785  0.076
O  O383  1  0.85607374  0.82832084  0.22979919  1  -1.155447  0.090226  -0.302463  -0.545006  0.047039  2.341768  0.076
O  O384  1  0.24382454  0.02342694  0.83831445  1  -1.157388  0.093297  -0.319654  -0.565418  0.048448  2.300322  0.079
O  O385  1  0.74381965  0.97657235  0.66168624  1  -1.157435  0.093292  -0.319717  -0.565574  0.04845  2.300366  0.079
O  O386  1  0.75617991  0.97658042  0.16169838  1  -1.1573  0.093299  -0.319768  -0.565539  0.048453  2.300542  0.079
O  O387  1  0.25617978  0.02341710  0.33830341  1  -1.157501  0.09329  -0.319781  -0.565505  0.048448  2.300517  0.079
O  O388  1  0.41788433  0.07058461  0.85542671  1  -1.138775  0.074175  -0.315336  -0.549311  0.037807  2.144089  0.065
O  O389  1  0.91788132  0.92941936  0.64457448  1  -1.138608  0.07418  -0.315297  -0.549339  0.037809  2.144114  0.065
O  O390  1  0.58212346  0.92942496  0.14458171  1  -1.138391  0.074168  -0.31528  -0.549282  0.037803  2.144319  0.065
O  O391  1  0.08212814  0.07058452  0.35542181  1  -1.138482  0.074172  -0.315235  -0.54922  0.037805  2.144321  0.065
