# generated using pymatgen
data_NiH19C29(NO2)3
_symmetry_space_group_name_H-M   'P 1'
_cell_length_a   19.73069793
_cell_length_b   19.98057233
_cell_length_c   19.98049775
_cell_angle_alpha   71.87061770
_cell_angle_beta   60.41293537
_cell_angle_gamma   60.41302927
_symmetry_Int_Tables_number   1
_chemical_formula_structural   NiH19C29(NO2)3
_chemical_formula_sum   'Ni8 H152 C232 N24 O48'
_cell_volume   5932.96427840
_cell_formula_units_Z   8
loop_
 _symmetry_equiv_pos_site_id
 _symmetry_equiv_pos_as_xyz
  1  'x, y, z'
loop_
 _atom_site_type_symbol
 _atom_site_label
 _atom_site_symmetry_multiplicity
 _atom_site_fract_x
 _atom_site_fract_y
 _atom_site_fract_z
 _atom_site_occupancy
 _atom_site_pbe_bader_charge
 _atom_site_pbe_bader_spin_density
 _atom_site_pbe_cm5_charge
 _atom_site_pbe_ddec_charge
 _atom_site_pbe_ddec_spin_density
 _atom_site_pbe_ddec_sum_bond_order
 _atom_site_pbe_magmom
Ni  Ni0  1  0.11655141  0.53531568  0.86669221  1  1.165157  1.555523  0.646937  0.766728  1.77922  2.5042  1.54
Ni  Ni1  1  0.48144512  0.36668890  0.03531737  1  1.166126  1.555399  0.646947  0.766772  1.779212  2.504235  1.54
Ni  Ni2  1  0.38344994  0.13330769  0.46468121  1  1.165063  1.555522  0.646982  0.76683  1.77922  2.50422  1.54
Ni  Ni3  1  0.01855778  0.96468262  0.63330896  1  1.166257  1.555399  0.646949  0.766756  1.779216  2.504299  1.54
Ni  Ni4  1  0.88345037  0.46468181  0.13330927  1  1.165031  1.555523  0.646961  0.766749  1.779221  2.504281  1.54
Ni  Ni5  1  0.51855581  0.63331435  0.96468022  1  1.166078  1.555398  0.646894  0.766663  1.779211  2.504436  1.54
Ni  Ni6  1  0.61654848  0.86669211  0.53531868  1  1.16498  1.555521  0.646977  0.766742  1.779219  2.504306  1.54
Ni  Ni7  1  0.98144017  0.03531948  0.36669143  1  1.166164  1.555401  0.646934  0.766739  1.779217  2.504266  1.54
H  H8  1  0.06274722  0.50747448  0.02209301  1  0.658059  0.000988  0.291955  0.379772  0.001026  0.956082  0.001
H  H9  1  0.40768581  0.52208801  0.00747702  1  0.659194  0.000916  0.291957  0.379747  0.001026  0.956084  0.001
H  H10  1  0.43725298  0.97790747  0.49252520  1  0.658076  0.000989  0.291963  0.379751  0.001027  0.956105  0.001
H  H11  1  0.09231219  0.99252248  0.47791254  1  0.6592  0.000916  0.291998  0.37977  0.001026  0.956082  0.001
H  H12  1  0.93725693  0.49252417  0.97790997  1  0.658153  0.000989  0.291964  0.379702  0.001027  0.956171  0.001
H  H13  1  0.59230709  0.47791756  0.99252223  1  0.659108  0.000916  0.292006  0.379765  0.001026  0.956075  0.001
H  H14  1  0.56274634  0.02209290  0.50747456  1  0.658076  0.000989  0.291955  0.379722  0.001027  0.956135  0.001
H  H15  1  0.90768517  0.00747963  0.52208864  1  0.659208  0.000916  0.291956  0.379743  0.001027  0.956096  0.001
H  H16  1  0.11352767  0.56502072  0.98017148  1  0.650721  4e-05  0.280368  0.371829  0.000241  0.980475  0.0
H  H17  1  0.34128069  0.48016309  0.06502494  1  0.652942  5.7e-05  0.280372  0.371872  0.000241  0.980417  0.0
H  H18  1  0.38647841  0.01982871  0.43497535  1  0.650681  4.1e-05  0.280415  0.371869  0.000241  0.980408  0.0
H  H19  1  0.15871624  0.93497604  0.51983506  1  0.653012  5.7e-05  0.280408  0.371868  0.000242  0.980418  0.0
H  H20  1  0.88647732  0.43497735  0.01983178  1  0.650776  4e-05  0.280416  0.371876  0.000241  0.980402  0.0
H  H21  1  0.65871093  0.51984017  0.93497514  1  0.65305  5.7e-05  0.280408  0.371874  0.000241  0.980391  0.0
H  H22  1  0.61352377  0.98017050  0.56502390  1  0.650755  4.1e-05  0.280373  0.371798  0.000242  0.980503  0.0
H  H23  1  0.84128269  0.06502780  0.48016282  1  0.652898  5.7e-05  0.28039  0.371863  0.000241  0.98042  0.0
H  H24  1  0.16658709  0.93948110  0.27312876  1  0.084715  0.002095  0.118902  0.087497  0.000731  0.992752  0.001
H  H25  1  0.62078101  0.77313564  0.43949376  1  0.087278  0.002092  0.118934  0.087581  0.000731  0.992595  0.001
H  H26  1  0.33341623  0.72687274  0.06052003  1  0.084797  0.002096  0.118923  0.087567  0.000731  0.992693  0.001
H  H27  1  0.87921992  0.56050362  0.22686651  1  0.087254  0.002092  0.118978  0.087639  0.000731  0.99257  0.001
H  H28  1  0.83341672  0.06052217  0.72687245  1  0.085152  0.002095  0.11894  0.087559  0.00073  0.992661  0.001
H  H29  1  0.37921860  0.22686414  0.56050355  1  0.087321  0.002092  0.118957  0.087604  0.000731  0.992622  0.001
H  H30  1  0.66658419  0.27312649  0.93948157  1  0.084792  0.002095  0.118935  0.087561  0.000731  0.992682  0.001
H  H31  1  0.12078225  0.43949559  0.77313324  1  0.087257  0.002092  0.118977  0.087615  0.000731  0.992603  0.001
H  H32  1  0.27940984  0.95707990  0.14643676  1  0.051804  0.001108  0.107076  0.112825  0.000517  1.001522  0.0
H  H33  1  0.61705350  0.64644350  0.45709295  1  0.049502  0.001114  0.107062  0.112857  0.000517  1.001475  0.0
H  H34  1  0.22059112  0.85356241  0.04291878  1  0.051824  0.001109  0.107079  0.112826  0.000517  1.001487  0.0
H  H35  1  0.88294607  0.54290266  0.35356080  1  0.049917  0.001114  0.107088  0.112923  0.000517  1.001308  0.0
H  H36  1  0.72059502  0.04292105  0.85356315  1  0.051827  0.001108  0.10711  0.11285  0.000517  1.001475  0.0
H  H37  1  0.38294610  0.35355628  0.54290487  1  0.04962  0.001114  0.107077  0.112881  0.000517  1.001373  0.0
H  H38  1  0.77940576  0.14643565  0.95708188  1  0.051937  0.001108  0.107066  0.112783  0.000517  1.001414  0.0
H  H39  1  0.11705408  0.45709714  0.64644025  1  0.050059  0.001114  0.107098  0.112898  0.000517  1.001325  0.0
H  H40  1  0.08029303  0.15507318  0.08892787  1  0.143124  0.000994  0.113731  0.123064  0.000497  1.001659  0.0
H  H41  1  0.67570775  0.58892778  0.65507503  1  0.133275  0.001007  0.113728  0.123081  0.000497  1.001597  0.0
H  H42  1  0.41970430  0.91107632  0.84492353  1  0.143065  0.000994  0.113748  0.123087  0.000497  1.001583  0.0
H  H43  1  0.82429157  0.34492403  0.41107139  1  0.133257  0.001007  0.11374  0.123134  0.000497  1.001581  0.0
H  H44  1  0.91970729  0.84492372  0.91107150  1  0.143097  0.000994  0.113743  0.123065  0.000497  1.001599  0.0
H  H45  1  0.32428951  0.41107202  0.34492542  1  0.133275  0.001007  0.113725  0.123122  0.000497  1.001545  0.0
H  H46  1  0.58028825  0.08892868  0.15507906  1  0.143093  0.000994  0.113772  0.123141  0.000497  1.001528  0.0
H  H47  1  0.17571209  0.65507575  0.58892747  1  0.133072  0.001007  0.113739  0.123141  0.000497  1.001508  0.0
H  H48  1  0.97477814  0.12789266  0.21901849  1  0.127176  0.001968  0.12675  0.1041  0.000719  0.978605  0.001
H  H49  1  0.67831476  0.71901757  0.62789435  1  0.113444  0.001979  0.12679  0.104123  0.000719  0.978538  0.001
H  H50  1  0.52522513  0.78098608  0.87210237  1  0.1271  0.001969  0.126771  0.104099  0.000719  0.978593  0.001
H  H51  1  0.82168644  0.37210565  0.28098004  1  0.113488  0.001978  0.12677  0.104055  0.000719  0.978589  0.001
H  H52  1  0.02522560  0.87210308  0.78098159  1  0.12708  0.001968  0.126789  0.104142  0.000719  0.978679  0.001
H  H53  1  0.32168503  0.28098049  0.37210592  1  0.113513  0.001978  0.126806  0.104118  0.000719  0.978581  0.001
H  H54  1  0.47477326  0.21901892  0.12789691  1  0.12706  0.001969  0.126788  0.104094  0.000719  0.978701  0.001
H  H55  1  0.17831723  0.62789414  0.71901781  1  0.113429  0.001978  0.126792  0.104114  0.000719  0.978577  0.001
H  H56  1  0.35679892  0.96341483  0.02163246  1  0.095786  3.5e-05  0.104202  0.10937  -3e-05  1.029009  0.0
H  H57  1  0.65815309  0.52163226  0.46342079  1  0.068386  2.6e-05  0.104193  0.109331  -3e-05  1.029028  0.0
H  H58  1  0.14320357  0.97836548  0.03658156  1  0.095823  3.5e-05  0.104223  0.109395  -3e-05  1.029058  0.0
H  H59  1  0.84184708  0.53657645  0.47836728  1  0.068456  2.6e-05  0.104188  0.109319  -3e-05  1.029117  0.0
H  H60  1  0.64320408  0.03658381  0.97836857  1  0.09571  3.5e-05  0.10422  0.109401  -3e-05  1.029031  0.0
H  H61  1  0.34184591  0.47836753  0.53657932  1  0.0684  2.6e-05  0.104213  0.109374  -3e-05  1.028984  0.0
H  H62  1  0.85679679  0.02163259  0.96341993  1  0.095692  3.5e-05  0.104178  0.109303  -3e-05  1.029068  0.0
H  H63  1  0.15815602  0.46342333  0.52162935  1  0.068491  2.6e-05  0.10419  0.109309  -3e-05  1.029059  0.0
H  H64  1  0.41401740  0.14736147  0.85617039  1  0.035801  6.9e-05  0.103906  0.109499  1.2e-05  1.021959  0.0
H  H65  1  0.58245279  0.35616450  0.64735841  1  0.052872  6.9e-05  0.103917  0.10947  1.2e-05  1.021979  0.0
H  H66  1  0.08598318  0.14382917  0.85263535  1  0.035785  6.9e-05  0.103917  0.109476  1.2e-05  1.021894  0.0
H  H67  1  0.91754645  0.35263942  0.64383691  1  0.052827  6.9e-05  0.103902  0.109474  1.2e-05  1.021993  0.0
H  H68  1  0.58598086  0.85263485  0.14382915  1  0.035751  6.9e-05  0.103893  0.109454  1.2e-05  1.021932  0.0
H  H69  1  0.41754394  0.64383645  0.35264143  1  0.052856  6.9e-05  0.103876  0.109414  1.1e-05  1.021972  0.0
H  H70  1  0.91401894  0.85616889  0.14736329  1  0.036358  6.9e-05  0.103898  0.109489  1.2e-05  1.021992  0.0
H  H71  1  0.08245320  0.64736153  0.35616152  1  0.05276  6.9e-05  0.103899  0.109474  1.1e-05  1.022085  0.0
H  H72  1  0.37049744  0.27250415  0.85857066  1  0.041367  0.001266  0.104241  0.107769  0.000619  1.0092  0.0
H  H73  1  0.49842747  0.35856892  0.77250130  1  0.045853  0.001264  0.10422  0.107774  0.000619  1.009099  0.0
H  H74  1  0.12950713  0.14142873  0.72749063  1  0.041482  0.001266  0.104274  0.107851  0.000619  1.009202  0.0
H  H75  1  0.00156962  0.22749785  0.64143208  1  0.045775  0.001264  0.104234  0.107785  0.000619  1.009126  0.0
H  H76  1  0.62950824  0.72749506  0.14142641  1  0.041294  0.001266  0.104258  0.107833  0.000619  1.009214  0.0
H  H77  1  0.50157206  0.64142972  0.22749840  1  0.045715  0.001264  0.104207  0.107718  0.000619  1.009185  0.0
H  H78  1  0.87049506  0.85857047  0.27250712  1  0.041462  0.001266  0.104247  0.107825  0.000619  1.00921  0.0
H  H79  1  0.99842912  0.77250252  0.35856848  1  0.045798  0.001264  0.104233  0.107793  0.000619  1.009136  0.0
H  H80  1  0.30020918  0.41540725  0.83068590  1  0.097186  0.002247  0.117769  0.090547  0.000798  0.990395  0.001
H  H81  1  0.45369673  0.33067873  0.91540470  1  0.108016  0.002243  0.117763  0.090514  0.000798  0.990434  0.001
H  H82  1  0.19979612  0.16931665  0.58458803  1  0.097295  0.002248  0.117782  0.090583  0.000799  0.990329  0.001
H  H83  1  0.04630258  0.08459301  0.66932239  1  0.108153  0.002242  0.117815  0.090609  0.000799  0.990314  0.001
H  H84  1  0.69979414  0.58459197  0.16931530  1  0.097295  0.002247  0.117784  0.090607  0.000798  0.990377  0.001
H  H85  1  0.54629928  0.66932511  0.08459459  1  0.108173  0.002242  0.117769  0.090565  0.000798  0.99034  0.001
H  H86  1  0.80020748  0.83068198  0.41541122  1  0.097244  0.002247  0.117783  0.090491  0.000798  0.990411  0.001
H  H87  1  0.95369733  0.91540736  0.33067660  1  0.108143  0.002242  0.117805  0.090598  0.000799  0.990328  0.001
H  H88  1  0.05973882  0.41269830  0.94185620  1  0.184486  0.002322  0.121326  0.107244  0.000989  1.055069  0.002
H  H89  1  0.58570583  0.44184799  0.91269911  1  0.169687  0.002337  0.121374  0.107279  0.000988  1.055093  0.002
H  H90  1  0.44026551  0.05814729  0.58730022  1  0.184394  0.002322  0.1213  0.107216  0.000989  1.05501  0.002
H  H91  1  0.91429474  0.08729868  0.55815080  1  0.169597  0.002338  0.121359  0.107278  0.000988  1.05505  0.002
H  H92  1  0.94026546  0.58730265  0.05814400  1  0.184384  0.002322  0.121301  0.107193  0.000989  1.055071  0.002
H  H93  1  0.41428988  0.55815526  0.08729850  1  0.169892  0.002338  0.12136  0.107282  0.000989  1.055019  0.002
H  H94  1  0.55973687  0.94185020  0.41269998  1  0.184458  0.002322  0.12132  0.107243  0.000989  1.055014  0.002
H  H95  1  0.08571101  0.91270167  0.44184386  1  0.169881  0.002337  0.121376  0.107285  0.000988  1.055006  0.002
H  H96  1  0.11914365  0.27167267  0.97507441  1  0.119896  0.000932  0.114993  0.125959  0.000464  0.995424  0.0
H  H97  1  0.63410627  0.47507130  0.77167464  1  0.120843  0.000936  0.115035  0.12599  0.000464  0.995442  0.0
H  H98  1  0.38085912  0.02492687  0.72832660  1  0.120432  0.000931  0.114976  0.125896  0.000465  0.995474  0.0
H  H99  1  0.86589103  0.22832316  0.52492848  1  0.121092  0.000936  0.115018  0.125995  0.000464  0.995395  0.0
H  H100  1  0.88085779  0.72832944  0.02492480  1  0.120424  0.000931  0.114998  0.125965  0.000464  0.995463  0.0
H  H101  1  0.36589492  0.52492502  0.22832250  1  0.121453  0.000935  0.115015  0.125942  0.000464  0.995443  0.0
H  H102  1  0.61914392  0.97506657  0.27167404  1  0.12048  0.000931  0.115003  0.12596  0.000464  0.995511  0.0
H  H103  1  0.13411116  0.77167605  0.47506977  1  0.120785  0.000936  0.115029  0.125997  0.000464  0.995387  0.0
H  H104  1  0.51793803  0.04909552  0.78305106  1  0.052692  2.9e-05  0.104671  0.105914  1.4e-05  0.99321  0.0
H  H105  1  0.64992253  0.28305356  0.54909050  1  0.057733  2.9e-05  0.104689  0.105898  1.4e-05  0.993276  0.0
H  H106  1  0.98206737  0.21694476  0.95090351  1  0.05264  2.9e-05  0.104668  0.105893  1.4e-05  0.993245  0.0
H  H107  1  0.85007986  0.45090885  0.71694552  1  0.057761  2.9e-05  0.10469  0.105909  1.4e-05  0.993277  0.0
H  H108  1  0.48206595  0.95090485  0.21694746  1  0.052642  2.9e-05  0.104645  0.105838  1.4e-05  0.993271  0.0
H  H109  1  0.35007615  0.71694566  0.45090993  1  0.057676  2.9e-05  0.104688  0.1059  1.4e-05  0.993242  0.0
H  H110  1  0.01793279  0.78305503  0.04909653  1  0.052606  2.9e-05  0.104653  0.105894  1.4e-05  0.993271  0.0
H  H111  1  0.14992473  0.54909151  0.28305021  1  0.057568  2.9e-05  0.104735  0.105911  1.4e-05  0.993252  0.0
H  H112  1  0.67240359  0.96309506  0.73293794  1  0.123605  -1.2e-05  0.112577  0.136694  -2.6e-05  1.003013  0.0
H  H113  1  0.63157610  0.23293577  0.46308984  1  0.105666  -1.2e-05  0.112578  0.136687  -2.6e-05  1.00294  0.0
H  H114  1  0.82760296  0.26706210  0.03690246  1  0.123338  -1.2e-05  0.112584  0.136738  -2.6e-05  1.002893  0.0
H  H115  1  0.86842507  0.53690960  0.76706277  1  0.105618  -1.2e-05  0.112576  0.13671  -2.6e-05  1.002879  0.0
H  H116  1  0.32760154  0.03690531  0.26706203  1  0.123346  -1.2e-05  0.112586  0.136753  -2.6e-05  1.002959  0.0
H  H117  1  0.36842136  0.76706230  0.53691155  1  0.105674  -1.2e-05  0.112619  0.136692  -2.6e-05  1.003055  0.0
H  H118  1  0.17239720  0.73293769  0.96309708  1  0.123341  -1.2e-05  0.112594  0.136761  -2.6e-05  1.002951  0.0
H  H119  1  0.13158056  0.46308845  0.23293368  1  0.105602  -1.2e-05  0.112596  0.13666  -2.6e-05  1.002998  0.0
H  H120  1  0.63833135  0.84298096  0.95997881  1  0.081695  -9e-06  0.10504  0.121335  -1.4e-05  1.012976  0.0
H  H121  1  0.55870881  0.45998126  0.34297979  1  0.054905  -9e-06  0.105024  0.12132  -1.4e-05  1.012951  0.0
H  H122  1  0.86166962  0.04002063  0.15701744  1  0.081543  -9e-06  0.105041  0.121337  -1.4e-05  1.012982  0.0
H  H123  1  0.94129039  0.65701968  0.54001711  1  0.054878  -9e-06  0.105042  0.121302  -1.4e-05  1.012997  0.0
H  H124  1  0.36166934  0.15701768  0.04002083  1  0.081546  -9e-06  0.105043  0.121325  -1.4e-05  1.012961  0.0
H  H125  1  0.44128851  0.54001969  0.65702027  1  0.054965  -9e-06  0.105048  0.121285  -1.4e-05  1.013005  0.0
H  H126  1  0.13832880  0.95997916  0.84298294  1  0.081581  -9e-06  0.105054  0.121355  -1.4e-05  1.012937  0.0
H  H127  1  0.05871446  0.34298009  0.45997868  1  0.054872  -9e-06  0.105053  0.121276  -1.4e-05  1.012941  0.0
H  H128  1  0.48456077  0.92781088  0.00997667  1  0.070782  -1.4e-05  0.100154  0.100335  -1.5e-05  1.009301  0.0
H  H129  1  0.57764194  0.50998365  0.42781744  1  0.060345  -1.4e-05  0.100155  0.100294  -1.5e-05  1.009357  0.0
H  H130  1  0.01543995  0.99002078  0.07218553  1  0.070837  -1.4e-05  0.100145  0.100294  -1.5e-05  1.009304  0.0
H  H131  1  0.92235728  0.57218237  0.49001505  1  0.060295  -1.4e-05  0.100149  0.100298  -1.5e-05  1.00936  0.0
H  H132  1  0.51544101  0.07218543  0.99001867  1  0.070836  -1.4e-05  0.100148  0.100313  -1.5e-05  1.009367  0.0
H  H133  1  0.42235413  0.49001616  0.57218558  1  0.06032  -1.4e-05  0.100133  0.100253  -1.5e-05  1.009409  0.0
H  H134  1  0.98455676  0.00998018  0.92781631  1  0.070793  -1.4e-05  0.100146  0.100319  -1.5e-05  1.009307  0.0
H  H135  1  0.07764698  0.42781741  0.50998102  1  0.060389  -1.4e-05  0.100126  0.100295  -1.5e-05  1.009291  0.0
H  H136  1  0.66375549  0.76654405  0.85777239  1  0.088047  0.000173  0.107457  0.122835  0.000121  1.021337  0.0
H  H137  1  0.71192790  0.35778369  0.26653685  1  0.085743  0.000176  0.107482  0.122847  0.000121  1.021465  0.0
H  H138  1  0.83624897  0.14222298  0.23345830  1  0.08806  0.000173  0.107461  0.122828  0.000121  1.02139  0.0
H  H139  1  0.78806957  0.73346336  0.64221966  1  0.085687  0.000176  0.107475  0.122838  0.000121  1.021464  0.0
H  H140  1  0.33624798  0.23345747  0.14222351  1  0.088048  0.000173  0.107469  0.122833  0.000121  1.021435  0.0
H  H141  1  0.28806867  0.64222016  0.73346467  1  0.085094  0.000176  0.10748  0.122875  0.000121  1.021462  0.0
H  H142  1  0.16375118  0.85777683  0.76654375  1  0.088018  0.000173  0.107451  0.122822  0.000121  1.021377  0.0
H  H143  1  0.21193409  0.26653643  0.35777869  1  0.08539  0.000177  0.107461  0.122834  0.000121  1.021407  0.0
H  H144  1  0.85406270  0.55634963  0.90889243  1  0.094846  0.000666  0.108613  0.117058  0.000439  1.017177  0.0
H  H145  1  0.68069795  0.40889182  0.05634350  1  0.105886  0.000657  0.108578  0.117008  0.000439  1.017275  0.0
H  H146  1  0.64593602  0.09110589  0.44364929  1  0.094818  0.000666  0.108617  0.117051  0.000439  1.017252  0.0
H  H147  1  0.81929703  0.94365522  0.59111704  1  0.105979  0.000657  0.108574  0.117038  0.00044  1.017291  0.0
H  H148  1  0.14593800  0.44364900  0.09110621  1  0.09484  0.000666  0.108633  0.117092  0.000439  1.017185  0.0
H  H149  1  0.31929844  0.59111375  0.94365606  1  0.105907  0.000657  0.108597  0.117023  0.000439  1.017342  0.0
H  H150  1  0.35406273  0.90888929  0.55635337  1  0.094908  0.000666  0.108618  0.117083  0.000439  1.017221  0.0
H  H151  1  0.18070456  0.05634400  0.40888300  1  0.105942  0.000657  0.108577  0.116984  0.000439  1.017294  0.0
H  H152  1  0.89445569  0.76646748  0.83192581  1  0.128764  0.000496  0.112606  0.133465  0.000347  1.002567  0.0
H  H153  1  0.50716426  0.33190998  0.26646702  1  0.089111  0.000494  0.112583  0.13346  0.000347  1.002597  0.0
H  H154  1  0.60554234  0.16808692  0.23353377  1  0.12828  0.000496  0.112572  0.133415  0.000347  1.002709  0.0
H  H155  1  0.99283238  0.73353709  0.66809157  1  0.089253  0.000494  0.112606  0.133466  0.000347  1.002581  0.0
H  H156  1  0.10554298  0.23353292  0.16808278  1  0.12872  0.000496  0.112597  0.133431  0.000347  1.002601  0.0
H  H157  1  0.49282888  0.66809502  0.73353479  1  0.089311  0.000494  0.1126  0.133506  0.000347  1.002477  0.0
H  H158  1  0.39445802  0.83191751  0.76646874  1  0.128772  0.000496  0.112597  0.133474  0.000347  1.002528  0.0
H  H159  1  0.00717277  0.26646327  0.33190639  1  0.089401  0.000494  0.112616  0.133524  0.000347  1.002524  0.0
C  C160  1  0.14981591  0.98545956  0.22985632  1  0.46567  -0.00351  0.044238  0.090691  -0.004275  3.964145  -0.002
C  C161  1  0.63485494  0.72985991  0.48546884  1  0.455781  -0.003507  0.044121  0.090458  -0.004275  3.964303  -0.002
C  C162  1  0.35018503  0.77014561  0.01454183  1  0.465522  -0.003509  0.044188  0.090499  -0.004274  3.964138  -0.002
C  C163  1  0.86514415  0.51453091  0.27014221  1  0.455631  -0.003508  0.044125  0.090494  -0.004275  3.964204  -0.002
C  C164  1  0.85018667  0.01454255  0.77014584  1  0.464884  -0.003509  0.044253  0.09072  -0.004275  3.964014  -0.002
C  C165  1  0.36514427  0.27013815  0.51453121  1  0.455212  -0.003507  0.04411  0.090499  -0.004276  3.964257  -0.002
C  C166  1  0.64981401  0.22985535  0.98546040  1  0.46565  -0.00351  0.044225  0.090664  -0.004275  3.964149  -0.002
C  C167  1  0.13485835  0.48546888  0.72985721  1  0.455725  -0.003509  0.044112  0.090485  -0.004277  3.96425  -0.002
C  C168  1  0.21263010  0.99561082  0.15848149  1  0.046742  0.005038  -0.086466  -0.172636  0.00283  3.957287  0.004
C  C169  1  0.63326326  0.65848638  0.49561983  1  -0.025534  0.005006  -0.086367  -0.17256  0.00283  3.957341  0.004
C  C170  1  0.28737140  0.84151904  0.00438834  1  0.046408  0.005037  -0.086462  -0.172618  0.00283  3.957258  0.004
C  C171  1  0.86673434  0.50437800  0.34151602  1  -0.02572  0.005006  -0.086522  -0.172812  0.00283  3.957314  0.004
C  C172  1  0.78737274  0.00439072  0.84152123  1  0.046854  0.005037  -0.086545  -0.17276  0.00283  3.957402  0.004
C  C173  1  0.36673453  0.34151225  0.50437972  1  -0.025375  0.005006  -0.086399  -0.172613  0.002831  3.95715  0.004
C  C174  1  0.71262377  0.15848019  0.99561479  1  0.04604  0.005037  -0.086427  -0.172609  0.00283  3.957255  0.004
C  C175  1  0.13326815  0.49562179  0.65848340  1  -0.025817  0.005005  -0.086447  -0.172654  0.00283  3.957277  0.004
C  C176  1  0.18935759  0.05809689  0.10586149  1  -0.026857  -0.006549  0.012456  0.080245  -0.007046  3.966495  -0.004
C  C177  1  0.64667210  0.60586712  0.55810546  1  0.03878  -0.006543  0.012396  0.080142  -0.007046  3.966515  -0.004
C  C178  1  0.31064605  0.89413741  0.94189991  1  -0.026462  -0.006548  0.012449  0.080309  -0.007045  3.966509  -0.004
C  C179  1  0.85332656  0.44189123  0.39413493  1  0.038729  -0.006545  0.012487  0.080241  -0.007048  3.966523  -0.004
C  C180  1  0.81064754  0.94190348  0.89413798  1  -0.026574  -0.006547  0.012394  0.080107  -0.007045  3.966693  -0.004
C  C181  1  0.35332665  0.39413324  0.44189308  1  0.03885  -0.006545  0.012383  0.080164  -0.007049  3.966507  -0.004
C  C182  1  0.68935082  0.10586066  0.05810176  1  -0.02621  -0.006547  0.012398  0.080221  -0.007044  3.966732  -0.004
C  C183  1  0.14667587  0.55810740  0.60586488  1  0.038972  -0.006545  0.012426  0.080227  -0.007049  3.966526  -0.004
C  C184  1  0.10177639  0.10571581  0.12755209  1  -0.059938  0.005482  -0.073693  -0.153517  0.003056  3.926472  0.004
C  C185  1  0.66495290  0.62755371  0.60571921  1  -0.043969  0.005467  -0.073741  -0.153558  0.003057  3.926548  0.004
C  C186  1  0.39822644  0.87244805  0.89428156  1  -0.059999  0.005482  -0.073739  -0.153616  0.003056  3.92658  0.004
C  C187  1  0.83504703  0.39427797  0.37244482  1  -0.044086  0.005466  -0.073773  -0.153636  0.003057  3.926753  0.004
C  C188  1  0.89822806  0.89428224  0.87244593  1  -0.06001  0.005482  -0.073695  -0.153412  0.003056  3.926675  0.004
C  C189  1  0.33504568  0.37244319  0.39428000  1  -0.044084  0.005466  -0.07372  -0.153618  0.003057  3.926568  0.004
C  C190  1  0.60177086  0.12755291  0.10572101  1  -0.059986  0.005482  -0.073819  -0.153665  0.003057  3.926664  0.004
C  C191  1  0.16495513  0.60572125  0.62755544  1  -0.043982  0.005466  -0.073794  -0.153704  0.003057  3.926703  0.004
C  C192  1  0.04298014  0.09114488  0.19966979  1  0.487487  -0.00385  0.054981  0.10748  -0.004407  3.917748  -0.003
C  C193  1  0.66619927  0.69967401  0.59114870  1  0.477377  -0.003762  0.055018  0.107496  -0.004409  3.917674  -0.003
C  C194  1  0.45702236  0.80033187  0.90885375  1  0.487494  -0.00385  0.055004  0.107549  -0.004407  3.917723  -0.003
C  C195  1  0.83379952  0.40885055  0.30032633  1  0.477191  -0.003762  0.055078  0.107652  -0.004409  3.917671  -0.003
C  C196  1  0.95702371  0.90885318  0.80033051  1  0.48753  -0.003848  0.054981  0.107425  -0.004405  3.917916  -0.003
C  C197  1  0.33379625  0.30032578  0.40885108  1  0.477168  -0.003762  0.05502  0.107562  -0.004409  3.917671  -0.003
C  C198  1  0.54297589  0.19967082  0.09114831  1  0.487569  -0.003849  0.055023  0.107566  -0.004406  3.917794  -0.003
C  C199  1  0.16620524  0.59114808  0.69967285  1  0.477159  -0.003761  0.055037  0.10757  -0.004408  3.917798  -0.003
C  C200  1  0.25380139  0.07759865  0.03289243  1  0.531362  0.000759  0.119701  0.203788  0.00026  4.029609  0.001
C  C201  1  0.63570122  0.53289215  0.57760619  1  0.521833  0.000761  0.119734  0.203791  0.00026  4.029191  0.001
C  C202  1  0.24620002  0.96710593  0.92239670  1  0.531863  0.000759  0.11975  0.203852  0.00026  4.029314  0.001
C  C203  1  0.86429625  0.42239190  0.46711089  1  0.521111  0.000761  0.119724  0.203834  0.00026  4.029231  0.001
C  C204  1  0.74620076  0.92240057  0.96711034  1  0.531373  0.000759  0.119714  0.203847  0.00026  4.029387  0.001
C  C205  1  0.36429748  0.46710707  0.42239274  1  0.521524  0.000761  0.119747  0.203744  0.00026  4.029309  0.001
C  C206  1  0.75379806  0.03288693  0.07760401  1  0.532092  0.000759  0.119698  0.203678  0.00026  4.029467  0.001
C  C207  1  0.13570476  0.57760731  0.53288943  1  0.521012  0.000761  0.119737  0.203806  0.00026  4.029245  0.001
C  C208  1  0.33803713  0.02367757  0.99839264  1  -0.072002  -0.003504  -0.083027  -0.21688  -0.00373  3.911479  -0.002
C  C209  1  0.63989421  0.49839269  0.52368074  1  0.015622  -0.003488  -0.082986  -0.216694  -0.00373  3.911404  -0.002
C  C210  1  0.16196518  0.00160348  0.97632045  1  -0.072289  -0.003504  -0.083008  -0.216887  -0.00373  3.911503  -0.002
C  C211  1  0.86010546  0.47631735  0.50160878  1  0.016403  -0.003487  -0.08304  -0.216818  -0.00373  3.911553  -0.002
C  C212  1  0.66196588  0.97632107  0.00160840  1  -0.071943  -0.003503  -0.083027  -0.216873  -0.003729  3.911548  -0.002
C  C213  1  0.36010480  0.50160710  0.47631786  1  0.016018  -0.003487  -0.083084  -0.216876  -0.00373  3.911528  -0.002
C  C214  1  0.83803249  0.99839285  0.02367987  1  -0.072296  -0.003504  -0.082988  -0.216635  -0.00373  3.9114  -0.002
C  C215  1  0.13989568  0.52368417  0.49838925  1  0.016093  -0.003488  -0.083001  -0.216763  -0.00373  3.911415  -0.002
C  C216  1  0.39824183  0.04745661  0.93344789  1  0.025285  0.000751  0.009157  0.125379  0.000368  4.017759  0.001
C  C217  1  0.62085803  0.43344660  0.54745652  1  -0.042915  0.000741  0.009131  0.125286  0.000368  4.018007  0.001
C  C218  1  0.10175903  0.06654774  0.95254457  1  0.025496  0.000752  0.009128  0.125332  0.000368  4.017723  0.001
C  C219  1  0.87914151  0.45254362  0.56655380  1  -0.04306  0.000741  0.009205  0.125356  0.000368  4.017854  0.001
C  C220  1  0.60175989  0.95254491  0.06654937  1  0.025377  0.000752  0.00915  0.125384  0.000368  4.017803  0.001
C  C221  1  0.37913831  0.56655263  0.45254655  1  -0.042868  0.000741  0.009182  0.125371  0.000368  4.017923  0.001
C  C222  1  0.89824013  0.93344917  0.04745536  1  0.025528  0.000752  0.009159  0.125307  0.000368  4.017856  0.001
C  C223  1  0.12086217  0.54745616  0.43344204  1  -0.042885  0.000741  0.009184  0.125399  0.000368  4.017826  0.001
C  C224  1  0.36940188  0.12549408  0.90516706  1  -0.002972  -0.003344  -0.086064  -0.221765  -0.003574  3.918393  -0.002
C  C225  1  0.59994418  0.40516134  0.62549459  1  -0.000257  -0.003343  -0.085998  -0.221665  -0.003574  3.918441  -0.002
C  C226  1  0.13060111  0.09483068  0.87450386  1  -0.003066  -0.003344  -0.086064  -0.221721  -0.003574  3.918349  -0.002
C  C227  1  0.90005556  0.37450327  0.59484027  1  -0.000265  -0.003344  -0.086036  -0.221697  -0.003575  3.918445  -0.002
C  C228  1  0.63060081  0.87450398  0.09483281  1  -0.003001  -0.003344  -0.086064  -0.221758  -0.003574  3.918318  -0.002
C  C229  1  0.40005600  0.59483845  0.37450395  1  -0.000199  -0.003344  -0.086036  -0.221677  -0.003575  3.918208  -0.002
C  C230  1  0.86939903  0.90516276  0.12549667  1  -0.003937  -0.003345  -0.086051  -0.221796  -0.003575  3.918239  -0.002
C  C231  1  0.09994610  0.62549709  0.40515737  1  -0.000319  -0.003344  -0.086026  -0.221698  -0.003575  3.918302  -0.002
C  C232  1  0.28390952  0.17553608  0.94221315  1  0.49039  0.000858  0.118647  0.204018  0.000273  4.042121  0.001
C  C233  1  0.59834212  0.44220788  0.67553820  1  0.49236  0.00085  0.118576  0.203894  0.000273  4.042405  0.001
C  C234  1  0.21609142  0.05778830  0.82446031  1  0.490314  0.000857  0.118643  0.203955  0.000273  4.04246  0.001
C  C235  1  0.90165408  0.32446174  0.55779537  1  0.492247  0.00085  0.118591  0.203879  0.000273  4.042385  0.001
C  C236  1  0.71609231  0.82446257  0.05778996  1  0.490673  0.000858  0.118675  0.204025  0.000273  4.042352  0.001
C  C237  1  0.40165715  0.55779133  0.32446045  1  0.492417  0.00085  0.118625  0.203844  0.000273  4.04235  0.001
C  C238  1  0.78390561  0.94220687  0.17554018  1  0.49083  0.000858  0.118663  0.204062  0.000273  4.042261  0.001
C  C239  1  0.09834561  0.67554036  0.44220518  1  0.492776  0.00085  0.118622  0.203866  0.000273  4.042258  0.001
C  C240  1  0.25014715  0.25927089  0.91841776  1  -0.046783  -0.009388  0.00986  0.077721  -0.010093  3.980772  -0.006
C  C241  1  0.57216284  0.41841416  0.75927123  1  0.023555  -0.009381  0.009919  0.077853  -0.010094  3.980576  -0.006
C  C242  1  0.24985615  0.08158491  0.74072774  1  -0.046732  -0.009389  0.009827  0.077786  -0.010094  3.980943  -0.006
C  C243  1  0.92783089  0.24072809  0.58159109  1  0.022914  -0.009381  0.009923  0.077869  -0.010095  3.980641  -0.006
C  C244  1  0.74985512  0.74073065  0.08158373  1  -0.047174  -0.009388  0.00988  0.077806  -0.010093  3.981079  -0.006
C  C245  1  0.42783331  0.58158679  0.24072839  1  0.02352  -0.009379  0.009909  0.077839  -0.010092  3.980833  -0.006
C  C246  1  0.75014607  0.91840910  0.25927111  1  -0.046809  -0.00939  0.009882  0.07776  -0.010095  3.981032  -0.006
C  C247  1  0.07216811  0.75927171  0.41840901  1  0.022762  -0.00938  0.009973  0.077956  -0.010094  3.980612  -0.006
C  C248  1  0.30135444  0.30088256  0.87685411  1  -0.080212  0.006298  -0.089033  -0.180249  0.003476  3.968082  0.005
C  C249  1  0.52091003  0.37684833  0.80088010  1  -0.037447  0.006247  -0.089008  -0.18027  0.003477  3.967772  0.005
C  C250  1  0.19864916  0.12314772  0.69911483  1  -0.080246  0.006299  -0.08905  -0.180425  0.003477  3.968149  0.005
C  C251  1  0.97908779  0.19911884  0.62315286  1  -0.03657  0.006247  -0.089023  -0.180267  0.003477  3.967819  0.005
C  C252  1  0.69865065  0.69911665  0.12314425  1  -0.080082  0.006298  -0.089016  -0.180298  0.003476  3.968132  0.005
C  C253  1  0.47908722  0.62315147  0.19912034  1  -0.037126  0.006246  -0.088985  -0.180188  0.003476  3.967828  0.005
C  C254  1  0.80135136  0.87684746  0.30088599  1  -0.080174  0.006299  -0.089068  -0.180474  0.003477  3.968261  0.005
C  C255  1  0.02091122  0.80088095  0.37684674  1  -0.036884  0.006247  -0.089083  -0.180379  0.003477  3.967829  0.005
C  C256  1  0.26310948  0.38051889  0.86120767  1  0.498643  -0.00648  0.046904  0.090699  -0.007165  3.960612  -0.004
C  C257  1  0.49516560  0.36119852  0.88051849  1  0.430964  -0.006428  0.046849  0.090676  -0.007166  3.960372  -0.004
C  C258  1  0.23689537  0.13879697  0.61947783  1  0.498752  -0.006481  0.046954  0.090826  -0.007166  3.960535  -0.004
C  C259  1  0.00483317  0.11947954  0.63880203  1  0.430823  -0.006429  0.046853  0.090606  -0.007168  3.960236  -0.004
C  C260  1  0.73689500  0.61948033  0.13879447  1  0.49883  -0.006481  0.046892  0.09063  -0.007166  3.960533  -0.004
C  C261  1  0.50482924  0.63880532  0.11948186  1  0.430805  -0.006427  0.046884  0.090696  -0.007166  3.960285  -0.004
C  C262  1  0.76310785  0.86119994  0.38052314  1  0.498604  -0.006481  0.046969  0.091063  -0.007166  3.960496  -0.004
C  C263  1  0.99516961  0.88051966  0.36119543  1  0.430819  -0.006427  0.046871  0.090665  -0.007167  3.960316  -0.004
C  C264  1  0.12851246  0.37995263  0.92305070  1  0.446269  -0.005127  0.044897  0.085693  -0.005612  3.92461  -0.003
C  C265  1  0.56848285  0.42304449  0.87995557  1  0.41509  -0.005059  0.044832  0.085723  -0.005614  3.924656  -0.003
C  C266  1  0.37149171  0.07695416  0.62004614  1  0.448146  -0.005127  0.044882  0.085789  -0.005614  3.924362  -0.003
C  C267  1  0.93151619  0.12004214  0.57695487  1  0.414894  -0.005058  0.044921  0.085809  -0.005613  3.924574  -0.003
C  C268  1  0.87149124  0.62004833  0.07695078  1  0.44636  -0.005127  0.044884  0.085755  -0.005612  3.924428  -0.003
C  C269  1  0.43151401  0.57695876  0.12004248  1  0.414606  -0.005056  0.044813  0.085689  -0.005613  3.924449  -0.003
C  C270  1  0.62851113  0.92304101  0.37995455  1  0.448084  -0.005127  0.044871  0.08578  -0.005614  3.924382  -0.003
C  C271  1  0.06848771  0.87995590  0.42304092  1  0.414569  -0.005056  0.044857  0.085772  -0.005613  3.924527  -0.003
C  C272  1  0.16179004  0.30089527  0.94138127  1  0.00044  0.006748  -0.073321  -0.144106  0.003721  3.929311  0.005
C  C273  1  0.59593292  0.44137452  0.80089856  1  0.015119  0.006671  -0.073378  -0.144195  0.00372  3.929308  0.005
C  C274  1  0.33821137  0.05862297  0.69910418  1  -0.000288  0.006749  -0.073302  -0.144028  0.003721  3.929524  0.005
C  C275  1  0.90406415  0.19909951  0.55862692  1  0.014964  0.006672  -0.073436  -0.144287  0.003721  3.929313  0.005
C  C276  1  0.83821159  0.69910511  0.05862089  1  -0.000286  0.006749  -0.073339  -0.144117  0.003721  3.929436  0.005
C  C277  1  0.40406376  0.55862527  0.19910167  1  0.014163  0.006673  -0.073343  -0.144057  0.003721  3.929281  0.005
C  C278  1  0.66178973  0.94137220  0.30089635  1  -0.000266  0.006749  -0.073389  -0.144144  0.003721  3.929516  0.005
C  C279  1  0.09593883  0.80089796  0.44137048  1  0.015309  0.006672  -0.073434  -0.14424  0.003721  3.929267  0.005
C  C280  1  0.48911328  0.99478316  0.90042303  1  0.014259  -0.000107  -0.02274  0.023189  -0.000106  4.034828  0.0
C  C281  1  0.61568312  0.40042355  0.49478235  1  -0.014963  -0.000107  -0.022748  0.023117  -0.000106  4.034922  0.0
C  C282  1  0.01088677  0.09957621  0.00521556  1  0.014282  -0.000107  -0.022749  0.023187  -0.000106  4.034753  0.0
C  C283  1  0.88431807  0.50521724  0.59957702  1  -0.014951  -0.000107  -0.022737  0.023176  -0.000106  4.03487  0.0
C  C284  1  0.51088970  0.00521431  0.09957438  1  0.014346  -0.000107  -0.022751  0.023108  -0.000106  4.034881  0.0
C  C285  1  0.38431359  0.59957741  0.50522050  1  -0.015133  -0.000107  -0.022772  0.023082  -0.000106  4.034996  0.0
C  C286  1  0.98911164  0.90042359  0.99478532  1  0.014348  -0.000107  -0.022727  0.023163  -0.000106  4.034957  0.0
C  C287  1  0.11568618  0.49478254  0.40042005  1  -0.014888  -0.000107  -0.022785  0.023068  -0.000106  4.034894  0.0
C  C288  1  0.54386828  0.00477163  0.82273807  1  -0.069434  0.000171  -0.086701  -0.105971  0.000103  3.985378  0.0
C  C289  1  0.62862928  0.32273791  0.50476857  1  -0.045944  0.000171  -0.086681  -0.105791  0.000103  3.985347  0.0
C  C290  1  0.95613636  0.17726151  0.99522591  1  -0.069523  0.000171  -0.086656  -0.105831  0.000103  3.985338  0.0
C  C291  1  0.87137203  0.49523049  0.67726128  1  -0.046012  0.000171  -0.086688  -0.105829  0.000103  3.985409  0.0
C  C292  1  0.45613622  0.99522758  0.17726106  1  -0.069507  0.000171  -0.086601  -0.105675  0.000103  3.985265  0.0
C  C293  1  0.37136595  0.67726247  0.49523367  1  -0.046054  0.000171  -0.086628  -0.105738  0.000103  3.985202  0.0
C  C294  1  0.04386230  0.82273772  0.00477604  1  -0.069568  0.000171  -0.086685  -0.105861  0.000103  3.985337  0.0
C  C295  1  0.12863314  0.50476986  0.32273317  1  -0.045871  0.000171  -0.086664  -0.105726  0.000103  3.98515  0.0
C  C296  1  0.63101207  0.95696143  0.79389372  1  0.005324  -4e-05  -0.096703  -0.18692  -4.6e-05  3.964693  0.0
C  C297  1  0.61814237  0.29389573  0.45695622  1  0.00452  -4e-05  -0.096812  -0.187059  -4.6e-05  3.964712  0.0
C  C298  1  0.86899411  0.20610333  0.04303590  1  0.00531  -4e-05  -0.096708  -0.187039  -4.6e-05  3.964668  0.0
C  C299  1  0.88186063  0.54304144  0.70610215  1  0.004712  -4e-05  -0.096756  -0.187011  -4.6e-05  3.964518  0.0
C  C300  1  0.36899387  0.04303720  0.20610340  1  0.005296  -4e-05  -0.096739  -0.18714  -4.6e-05  3.964785  0.0
C  C301  1  0.38185287  0.70610465  0.54304602  1  0.004898  -4e-05  -0.096842  -0.18701  -4.6e-05  3.964749  0.0
C  C302  1  0.13100455  0.79389589  0.95696655  1  0.005303  -4e-05  -0.096684  -0.187006  -4.6e-05  3.964576  0.0
C  C303  1  0.11814760  0.45695602  0.29389222  1  0.004726  -4e-05  -0.096825  -0.18697  -4.6e-05  3.964626  0.0
C  C304  1  0.66445991  0.89856059  0.84371788  1  0.387295  0.000147  0.089212  0.264437  9e-05  4.035198  0.0
C  C305  1  0.59326610  0.34371839  0.39855574  1  0.424945  0.000147  0.089174  0.264338  9e-05  4.035277  0.0
C  C306  1  0.83554218  0.15628176  0.10143739  1  0.387634  0.000147  0.089214  0.26448  9e-05  4.035099  0.0
C  C307  1  0.90673328  0.60144409  0.65627880  1  0.424855  0.000147  0.089155  0.264269  9e-05  4.03495  0.0
C  C308  1  0.33554194  0.10143805  0.15628271  1  0.38767  0.000147  0.089232  0.264498  9e-05  4.035091  0.0
C  C309  1  0.40672740  0.65628199  0.60144584  1  0.42469  0.000147  0.089175  0.264232  9e-05  4.035077  0.0
C  C310  1  0.16445601  0.84371978  0.89856607  1  0.3877  0.000147  0.089259  0.26448  9e-05  4.034903  0.0
C  C311  1  0.09327612  0.39855337  0.34371551  1  0.424753  0.000147  0.08914  0.264154  9e-05  4.035271  0.0
C  C312  1  0.61138053  0.88806664  0.92149620  1  0.036908  -8e-05  -0.102577  -0.203387  -9.9e-05  4.025127  0.0
C  C313  1  0.57906231  0.42149747  0.38806308  1  0.012105  -7.9e-05  -0.102581  -0.203321  -9.9e-05  4.024932  0.0
C  C314  1  0.88862170  0.07850331  0.11193198  1  0.037126  -8e-05  -0.102626  -0.20348  -9.9e-05  4.025062  0.0
C  C315  1  0.92093861  0.61193625  0.57849910  1  0.011928  -7.9e-05  -0.102592  -0.203224  -9.9e-05  4.024734  0.0
C  C316  1  0.38862275  0.11193142  0.07850338  1  0.03718  -8e-05  -0.102614  -0.203416  -9.9e-05  4.024854  0.0
C  C317  1  0.42093203  0.57850233  0.61193877  1  0.011927  -7.9e-05  -0.102635  -0.203277  -9.9e-05  4.024926  0.0
C  C318  1  0.11137618  0.92149765  0.88807081  1  0.036852  -8e-05  -0.10271  -0.203564  -9.9e-05  4.025038  0.0
C  C319  1  0.07906858  0.38806352  0.42149456  1  0.011907  -7.9e-05  -0.102629  -0.203148  -9.9e-05  4.024917  0.0
C  C320  1  0.52474095  0.93515474  0.94891645  1  -0.043828  5.6e-05  -0.088779  -0.103767  1.1e-05  4.012245  0.0
C  C321  1  0.59118731  0.44892075  0.43515551  1  -0.0285  5.6e-05  -0.088761  -0.103725  1e-05  4.012147  0.0
C  C322  1  0.97526146  0.05108075  0.06484480  1  -0.043981  5.6e-05  -0.08871  -0.103657  1.1e-05  4.012032  0.0
C  C323  1  0.90881322  0.56484398  0.55107778  1  -0.028357  5.6e-05  -0.088758  -0.103764  1e-05  4.012014  0.0
C  C324  1  0.47526377  0.06484273  0.05108062  1  -0.044147  5.6e-05  -0.088735  -0.10371  1.1e-05  4.012103  0.0
C  C325  1  0.40881046  0.55107789  0.56484605  1  -0.02821  5.6e-05  -0.08865  -0.103543  1e-05  4.012051  0.0
C  C326  1  0.02473719  0.94891848  0.93515865  1  -0.043805  5.6e-05  -0.088671  -0.103615  1.1e-05  4.012138  0.0
C  C327  1  0.09119136  0.43515638  0.44891846  1  -0.028065  5.6e-05  -0.088635  -0.103667  1e-05  4.011916  0.0
C  C328  1  0.77618656  0.77502190  0.84204414  1  0.400769  0.000629  0.079398  0.247845  0.00026  4.050911  0.001
C  C329  1  0.60675335  0.34204252  0.27501800  1  0.363115  0.000628  0.079426  0.2479  0.00026  4.050647  0.001
C  C330  1  0.72381475  0.15795925  0.22497630  1  0.400599  0.000629  0.079466  0.247898  0.00026  4.050941  0.001
C  C331  1  0.89324251  0.72498408  0.65796053  1  0.36319  0.000628  0.07942  0.247833  0.00026  4.050668  0.001
C  C332  1  0.22381475  0.22497790  0.15795835  1  0.400694  0.000629  0.079486  0.247881  0.00026  4.050799  0.001
C  C333  1  0.39324009  0.65796307  0.72498548  1  0.36329  0.000627  0.07944  0.247929  0.00026  4.050748  0.001
C  C334  1  0.27618462  0.84204228  0.77502458  1  0.400673  0.000629  0.079469  0.247837  0.00026  4.050993  0.001
C  C335  1  0.10676318  0.27501512  0.34203604  1  0.36037  0.000628  0.079503  0.248005  0.00026  4.050713  0.001
C  C336  1  0.72533983  0.73646398  0.86140744  1  -0.007361  -0.001487  -0.094596  -0.212756  -0.001659  3.973554  -0.001
C  C337  1  0.67679464  0.36141148  0.23645767  1  -0.010031  -0.001481  -0.094612  -0.212799  -0.001659  3.973654  -0.001
C  C338  1  0.77466187  0.13858985  0.26353676  1  -0.007169  -0.001486  -0.094621  -0.212788  -0.001659  3.973546  -0.001
C  C339  1  0.82320026  0.76354243  0.63859436  1  -0.010101  -0.00148  -0.094663  -0.212899  -0.001658  3.973641  -0.001
C  C340  1  0.27466553  0.26353465  0.13858946  1  -0.007271  -0.001486  -0.094627  -0.212784  -0.001659  3.973578  -0.001
C  C341  1  0.32320174  0.63859409  0.76354189  1  -0.009491  -0.00148  -0.094672  -0.212969  -0.001658  3.973754  -0.001
C  C342  1  0.22533642  0.86140764  0.73646540  1  -0.007254  -0.001487  -0.094612  -0.21277  -0.001659  3.973593  -0.001
C  C343  1  0.17680452  0.23645620  0.36140281  1  -0.009931  -0.001481  -0.09465  -0.212831  -0.001659  3.973573  -0.001
C  C344  1  0.75268777  0.65815691  0.88719287  1  -0.019575  0.007365  -0.019913  -0.010981  0.004285  4.009132  0.006
C  C345  1  0.70196607  0.38719343  0.15814973  1  0.011795  0.007339  -0.019927  -0.011008  0.004284  4.009233  0.006
C  C346  1  0.74731278  0.11280271  0.34184696  1  -0.019606  0.007364  -0.019871  -0.010975  0.004284  4.008994  0.006
C  C347  1  0.79802742  0.84185126  0.61281601  1  0.011638  0.007338  -0.019959  -0.01077  0.004284  4.009096  0.006
C  C348  1  0.24731362  0.34184404  0.11280622  1  -0.01962  0.007364  -0.019857  -0.010909  0.004284  4.008974  0.006
C  C349  1  0.29803217  0.61281445  0.84184872  1  0.011229  0.007341  -0.019934  -0.010788  0.004284  4.009177  0.006
C  C350  1  0.25268687  0.88719305  0.65815660  1  -0.019583  0.007366  -0.019859  -0.010842  0.004285  4.008922  0.006
C  C351  1  0.20197736  0.15814737  0.38718067  1  0.011697  0.007336  -0.02002  -0.011045  0.004283  4.009325  0.006
C  C352  1  0.83226543  0.61798923  0.89086549  1  -0.042157  0.001289  -0.084991  -0.136622  0.000575  3.947955  0.001
C  C353  1  0.65888550  0.39086148  0.11798101  1  -0.061033  0.00131  -0.084941  -0.136552  0.000575  3.947988  0.001
C  C354  1  0.66773134  0.10913682  0.38201436  1  -0.041977  0.001289  -0.085075  -0.136656  0.000576  3.948029  0.001
C  C355  1  0.84110927  0.88201968  0.60914700  1  -0.060329  0.001311  -0.084922  -0.136647  0.000576  3.948001  0.001
C  C356  1  0.16773422  0.38201171  0.10913345  1  -0.042061  0.001289  -0.085076  -0.136752  0.000576  3.947977  0.001
C  C357  1  0.34111086  0.60914410  0.88202107  1  -0.060543  0.001311  -0.084918  -0.136565  0.000577  3.947981  0.001
C  C358  1  0.33226674  0.89086241  0.61798886  1  -0.041913  0.001289  -0.085096  -0.136833  0.000576  3.94805  0.001
C  C359  1  0.15889329  0.11798126  0.39085102  1  -0.060325  0.00131  -0.084904  -0.136481  0.000576  3.947875  0.001
C  C360  1  0.88294196  0.65718233  0.87102546  1  -0.040557  0.00435  -0.016619  -0.012206  0.002732  4.000428  0.003
C  C361  1  0.58885891  0.37102210  0.15717637  1  0.039457  0.004286  -0.016589  -0.012212  0.002732  4.000356  0.003
C  C362  1  0.61705854  0.12898125  0.34281732  1  -0.040435  0.00435  -0.01648  -0.012116  0.002732  4.000355  0.003
C  C363  1  0.91113497  0.84282557  0.62898659  1  0.039644  0.004285  -0.016588  -0.012281  0.002732  4.000671  0.003
C  C364  1  0.11705910  0.34281804  0.12897548  1  -0.04056  0.00435  -0.016568  -0.012159  0.002732  4.000492  0.003
C  C365  1  0.41113609  0.62898522  0.84282532  1  0.039522  0.004286  -0.016617  -0.012296  0.002732  4.000532  0.003
C  C366  1  0.38294284  0.87101971  0.65718328  1  -0.040686  0.00435  -0.016503  -0.011987  0.002732  4.000294  0.003
C  C367  1  0.08886499  0.15717596  0.37101351  1  0.039283  0.004286  -0.016568  -0.012146  0.002732  4.000432  0.003
C  C368  1  0.85479616  0.73635288  0.84704051  1  0.034565  -0.000181  -0.085672  -0.189976  -0.00043  3.928962  0.0
C  C369  1  0.56181538  0.34703649  0.23635066  1  0.020896  -0.000167  -0.085701  -0.189974  -0.00043  3.928831  0.0
C  C370  1  0.64520353  0.15296397  0.26364453  1  0.034851  -0.000181  -0.085788  -0.190072  -0.00043  3.929141  0.0
C  C371  1  0.93818104  0.76365154  0.65296818  1  0.020414  -0.000167  -0.08573  -0.189918  -0.000429  3.928948  0.0
C  C372  1  0.14520450  0.26364577  0.15296265  1  0.034668  -0.000181  -0.085756  -0.190041  -0.00043  3.928971  0.0
C  C373  1  0.43817950  0.65296851  0.76365131  1  0.020718  -0.000167  -0.085767  -0.190075  -0.000429  3.928894  0.0
C  C374  1  0.35479441  0.84703814  0.73635586  1  0.034381  -0.000181  -0.08579  -0.190154  -0.00043  3.928978  0.0
C  C375  1  0.06182353  0.23634883  0.34702906  1  0.023256  -0.000167  -0.085788  -0.190189  -0.00043  3.928991  0.0
C  C376  1  0.69560907  0.61810648  0.91141605  1  1.599028  -0.001408  0.2111  0.575986  -0.001812  4.190355  -0.002
C  C377  1  0.77486552  0.41142374  0.11809801  1  1.581634  -0.001383  0.211103  0.575895  -0.001812  4.190079  -0.002
C  C378  1  0.80439152  0.08857776  0.38189678  1  1.598652  -0.001409  0.211148  0.576016  -0.001813  4.190257  -0.002
C  C379  1  0.72512999  0.88190611  0.58857967  1  1.581274  -0.001382  0.211065  0.575635  -0.001813  4.190236  -0.002
C  C380  1  0.30439149  0.38189504  0.08858126  1  1.599031  -0.001408  0.211068  0.575884  -0.001811  4.190181  -0.002
C  C381  1  0.22513461  0.58857607  0.88190605  1  1.581739  -0.001383  0.211083  0.575775  -0.001812  4.189952  -0.002
C  C382  1  0.19560699  0.91141799  0.61810432  1  1.598708  -0.001409  0.211109  0.575975  -0.001813  4.190075  -0.002
C  C383  1  0.27487111  0.11809425  0.41141624  1  1.581021  -0.001381  0.211059  0.575766  -0.001813  4.189928  -0.002
C  C384  1  0.96854610  0.61417479  0.87332579  1  1.529323  -0.00294  0.197616  0.552657  -0.004323  4.176825  -0.005
C  C385  1  0.54395659  0.37332158  0.11417256  1  1.532695  -0.00298  0.197664  0.552666  -0.004325  4.176693  -0.005
C  C386  1  0.53145137  0.12668104  0.38582416  1  1.529305  -0.002941  0.197677  0.552644  -0.004324  4.176573  -0.005
C  C387  1  0.95603532  0.88583327  0.62668481  1  1.532339  -0.002982  0.197665  0.552551  -0.004325  4.176695  -0.005
C  C388  1  0.03145404  0.38582501  0.12667676  1  1.529353  -0.002941  0.197763  0.552773  -0.004324  4.176608  -0.005
C  C389  1  0.45603547  0.62668575  0.88583205  1  1.532623  -0.002982  0.197657  0.552641  -0.004325  4.176669  -0.005
C  C390  1  0.46854865  0.87332164  0.61417505  1  1.52959  -0.002941  0.197669  0.552539  -0.004323  4.176652  -0.005
C  C391  1  0.04396013  0.11417174  0.37331838  1  1.532526  -0.00298  0.197611  0.55252  -0.004324  4.176729  -0.005
N  N392  1  0.06621472  0.03271779  0.25110696  1  -1.22126  0.071855  -0.324091  -0.231545  0.041904  3.580801  0.064
N  N393  1  0.64995374  0.75110813  0.53272343  1  -1.1977  0.071757  -0.324034  -0.231435  0.041901  3.580896  0.064
N  N394  1  0.43378599  0.74889772  0.96728358  1  -1.221042  0.071859  -0.324052  -0.231434  0.041907  3.580788  0.064
N  N395  1  0.85004420  0.46727827  0.24889120  1  -1.197479  0.071758  -0.324075  -0.231507  0.041902  3.580756  0.064
N  N396  1  0.93378981  0.96728259  0.74889530  1  -1.221252  0.071859  -0.324068  -0.231512  0.041906  3.580745  0.064
N  N397  1  0.35004430  0.24888993  0.46727767  1  -1.197268  0.071758  -0.32405  -0.231508  0.041903  3.580897  0.064
N  N398  1  0.56621279  0.25110382  0.03271809  1  -1.22123  0.071854  -0.324054  -0.231516  0.041905  3.580813  0.064
N  N399  1  0.14995803  0.53272210  0.75110817  1  -1.197551  0.071752  -0.324039  -0.231511  0.041899  3.580887  0.064
N  N400  1  0.22701420  0.15181588  0.00429496  1  -1.18829  -0.002527  -0.304858  -0.32712  -0.002731  3.294617  -0.002
N  N401  1  0.61687054  0.50429237  0.65182330  1  -1.182172  -0.002527  -0.304864  -0.32708  -0.002731  3.294524  -0.002
N  N402  1  0.27298601  0.99570513  0.84817886  1  -1.188256  -0.002527  -0.304928  -0.32719  -0.002731  3.294632  -0.002
N  N403  1  0.88312324  0.34817700  0.49571241  1  -1.182042  -0.002527  -0.30484  -0.327062  -0.002731  3.29449  -0.002
N  N404  1  0.77298762  0.84818277  0.99570815  1  -1.18823  -0.002527  -0.304914  -0.327199  -0.002731  3.294613  -0.002
N  N405  1  0.38312930  0.49570684  0.34817708  1  -1.182218  -0.002527  -0.304878  -0.326998  -0.002731  3.294577  -0.002
N  N406  1  0.72701177  0.00428715  0.15182018  1  -1.188562  -0.002527  -0.304874  -0.327142  -0.002731  3.294655  -0.002
N  N407  1  0.11687433  0.65182338  0.50428921  1  -1.182497  -0.002527  -0.304928  -0.327166  -0.002731  3.294579  -0.002
N  N408  1  0.17789757  0.41980336  0.88400467  1  -1.18831  0.07417  -0.333406  -0.238307  0.043175  3.640694  0.067
N  N409  1  0.51829074  0.38399912  0.91980559  1  -1.193344  0.074161  -0.333412  -0.238381  0.043173  3.640486  0.067
N  N410  1  0.32210700  0.11599882  0.58019229  1  -1.1903  0.07417  -0.333467  -0.238553  0.043176  3.640622  0.067
N  N411  1  0.98170741  0.08019327  0.61600061  1  -1.193418  0.074161  -0.333482  -0.238427  0.043173  3.640526  0.067
N  N412  1  0.82210652  0.58019413  0.11599819  1  -1.188385  0.074167  -0.333435  -0.238406  0.043173  3.6406  0.067
N  N413  1  0.48170469  0.61600472  0.08019398  1  -1.193015  0.074152  -0.333394  -0.238471  0.04317  3.640595  0.067
N  N414  1  0.67789590  0.88399751  0.41980802  1  -1.19019  0.074171  -0.333443  -0.238587  0.043177  3.640674  0.067
N  N415  1  0.01829426  0.91980710  0.38399652  1  -1.193051  0.074159  -0.333407  -0.238422  0.043174  3.640578  0.067
O  O416  1  0.73000337  0.54596996  0.90741297  1  -1.186469  -0.001046  -0.318124  -0.527689  -0.001981  2.144124  -0.001
O  O417  1  0.81662069  0.40742189  0.04595790  1  -1.170566  -0.001045  -0.318052  -0.527667  -0.001981  2.143932  -0.001
O  O418  1  0.76999500  0.09258827  0.45403236  1  -1.186196  -0.001046  -0.318074  -0.527682  -0.001981  2.144158  -0.001
O  O419  1  0.68337373  0.95404379  0.59258731  1  -1.170716  -0.001046  -0.317955  -0.527463  -0.001982  2.144147  -0.001
O  O420  1  0.26999541  0.45403157  0.09258819  1  -1.186566  -0.001046  -0.318027  -0.527601  -0.001981  2.144025  -0.001
O  O421  1  0.18338246  0.59258023  0.95404548  1  -1.170694  -0.001045  -0.318041  -0.527615  -0.001981  2.143989  -0.001
O  O422  1  0.23000543  0.90741094  0.54596673  1  -1.186199  -0.001045  -0.318072  -0.527669  -0.001981  2.143955  -0.001
O  O423  1  0.31662450  0.04595255  0.40741525  1  -1.170707  -0.001045  -0.317985  -0.527543  -0.001981  2.143815  -0.001
O  O424  1  0.06943406  0.55046223  0.98194802  1  -1.277216  0.069065  -0.575877  -0.747564  0.038745  2.201859  0.06
O  O425  1  0.39815421  0.48194365  0.05046626  1  -1.280458  0.069133  -0.575862  -0.747562  0.038743  2.201892  0.06
O  O426  1  0.43056673  0.01805350  0.44953937  1  -1.277206  0.069059  -0.575923  -0.747576  0.038742  2.201874  0.06
O  O427  1  0.10184405  0.94953786  0.51805589  1  -1.280553  0.069125  -0.575921  -0.747573  0.038739  2.202015  0.06
O  O428  1  0.93056704  0.44953931  0.01805403  1  -1.277363  0.069059  -0.57591  -0.747483  0.038741  2.201909  0.06
O  O429  1  0.60184114  0.51805904  0.94953521  1  -1.28048  0.069122  -0.575909  -0.747539  0.038737  2.201994  0.06
O  O430  1  0.56943636  0.98194629  0.55045827  1  -1.277241  0.069058  -0.57589  -0.747467  0.038742  2.20195  0.06
O  O431  1  0.89815656  0.05046481  0.48194253  1  -1.280456  0.069126  -0.575866  -0.747544  0.03874  2.202023  0.06
O  O432  1  0.61510732  0.66234305  0.93530933  1  -1.154822  0.072892  -0.325382  -0.569464  0.040943  2.357194  0.067
O  O433  1  0.78723545  0.43531886  0.16233617  1  -1.157071  0.072876  -0.32546  -0.569386  0.040943  2.357095  0.067
O  O434  1  0.88489542  0.06467640  0.33766043  1  -1.15479  0.072899  -0.32545  -0.569466  0.040946  2.357043  0.067
O  O435  1  0.71276794  0.83767051  0.56467088  1  -1.156828  0.072877  -0.325473  -0.569373  0.040944  2.356922  0.067
O  O436  1  0.38489465  0.33766190  0.06467923  1  -1.154797  0.072887  -0.325453  -0.569465  0.04094  2.357047  0.067
O  O437  1  0.21277119  0.56467171  0.83766963  1  -1.156823  0.072875  -0.325439  -0.569373  0.040942  2.356859  0.067
O  O438  1  0.11510526  0.93531588  0.66233921  1  -1.154851  0.072892  -0.325432  -0.569508  0.040943  2.357173  0.067
O  O439  1  0.28723760  0.16233040  0.43531822  1  -1.156751  0.072873  -0.325415  -0.569351  0.040941  2.356894  0.067
O  O440  1  0.99534415  0.54046785  0.89200672  1  -1.151232  0.078153  -0.314134  -0.557929  0.043865  2.279478  0.07
O  O441  1  0.57218549  0.39199910  0.04046378  1  -1.149039  0.078245  -0.314144  -0.557991  0.043867  2.279346  0.07
O  O442  1  0.50465200  0.10800351  0.45953242  1  -1.151061  0.078159  -0.314247  -0.558046  0.043869  2.279413  0.07
O  O443  1  0.92780087  0.95954371  0.60801163  1  -1.149137  0.078247  -0.314172  -0.557963  0.043867  2.279275  0.07
O  O444  1  0.00465714  0.45953196  0.10799728  1  -1.151094  0.078158  -0.314195  -0.557998  0.043867  2.279476  0.07
O  O445  1  0.42780386  0.60800649  0.95954167  1  -1.149119  0.078248  -0.314185  -0.557988  0.043868  2.279254  0.07
O  O446  1  0.49534385  0.89200322  0.54046755  1  -1.151089  0.078156  -0.314208  -0.557932  0.043866  2.279441  0.07
O  O447  1  0.07219090  0.04046421  0.39199644  1  -1.149026  0.078242  -0.314117  -0.557916  0.043865  2.279316  0.07
O  O448  1  0.01617381  0.64810343  0.85493663  1  -1.119183  0.074495  -0.307634  -0.506681  0.04174  2.142247  0.066
O  O449  1  0.48079290  0.35492692  0.14810341  1  -1.134253  0.074562  -0.307714  -0.506677  0.041745  2.142141  0.066
O  O450  1  0.48382420  0.14506920  0.35189388  1  -1.119266  0.074495  -0.307652  -0.50664  0.041741  2.142115  0.066
O  O451  1  0.01920583  0.85190286  0.64507062  1  -1.13394  0.07456  -0.307651  -0.506506  0.041744  2.142171  0.066
O  O452  1  0.98382293  0.35189870  0.14506985  1  -1.11921  0.074497  -0.307711  -0.506705  0.041742  2.142123  0.066
O  O453  1  0.51920079  0.64507809  0.85190264  1  -1.134199  0.074565  -0.307633  -0.506569  0.041746  2.142173  0.066
O  O454  1  0.51617870  0.85493231  0.64810181  1  -1.119282  0.074491  -0.307618  -0.506568  0.041739  2.14215  0.066
O  O455  1  0.98079256  0.14810213  0.35492866  1  -1.133971  0.074559  -0.307702  -0.506605  0.041743  2.1421  0.066
O  O456  1  0.75100561  0.85276657  0.81458970  1  -1.096432  0.000117  -0.147108  -0.205695  1.6e-05  2.54492  0.0
O  O457  1  0.58164221  0.31459024  0.35276246  1  -1.089809  0.000117  -0.146929  -0.205545  1.6e-05  2.545014  0.0
O  O458  1  0.74899559  0.18541153  0.14723275  1  -1.09643  0.000117  -0.147065  -0.205601  1.6e-05  2.545043  0.0
O  O459  1  0.91835897  0.64723824  0.68540941  1  -1.089838  0.000117  -0.146959  -0.205577  1.6e-05  2.544833  0.0
O  O460  1  0.24899707  0.14723150  0.18541167  1  -1.096397  0.000117  -0.147153  -0.205667  1.6e-05  2.544892  0.0
O  O461  1  0.41835280  0.68541189  0.64724235  1  -1.090008  0.000117  -0.146951  -0.205553  1.6e-05  2.544913  0.0
O  O462  1  0.25100307  0.81458769  0.85276919  1  -1.096409  0.000117  -0.147148  -0.205641  1.6e-05  2.544932  0.0
O  O463  1  0.08164638  0.35276039  0.31458899  1  -1.089688  0.000117  -0.146984  -0.205629  1.6e-05  2.544992  0.0
