# generated using pymatgen
data_Zn4H36C60O13
_symmetry_space_group_name_H-M   'P 1'
_cell_length_a   23.38292081
_cell_length_b   23.38292021
_cell_length_c   29.79969019
_cell_angle_alpha   66.90790776
_cell_angle_beta   66.90788008
_cell_angle_gamma   60.01073554
_symmetry_Int_Tables_number   1
_chemical_formula_structural   Zn4H36C60O13
_chemical_formula_sum   'Zn16 H144 C240 O52'
_cell_volume   12581.59185863
_cell_formula_units_Z   4
loop_
 _symmetry_equiv_pos_site_id
 _symmetry_equiv_pos_as_xyz
  1  'x, y, z'
loop_
 _atom_site_type_symbol
 _atom_site_label
 _atom_site_symmetry_multiplicity
 _atom_site_fract_x
 _atom_site_fract_y
 _atom_site_fract_z
 _atom_site_occupancy
 _atom_site_pbe_bader_charge
 _atom_site_pbe_bader_spin_density
 _atom_site_pbe_cm5_charge
 _atom_site_pbe_ddec_charge
 _atom_site_pbe_ddec_spin_density
 _atom_site_pbe_ddec_sum_bond_order
 _atom_site_pbe_magmom
Zn  Zn0  1  0.07655649  0.13453960  0.55762969  1  1.316456  0  0.670632  0.957215  0  2.397234  0
Zn  Zn1  1  0.13446392  0.23134125  0.55767859  1  1.317364  0  0.670308  0.957545  0  2.396017  0
Zn  Zn2  1  0.23124647  0.07665902  0.55762460  1  1.315679  0  0.669947  0.956799  0  2.396521  0
Zn  Zn3  1  0.73134080  0.63446407  0.05767908  1  1.317389  0  0.670313  0.957529  0  2.396044  0
Zn  Zn4  1  0.57665943  0.73124575  0.05762480  1  1.315656  0  0.66994  0.956759  0  2.396489  0
Zn  Zn5  1  0.63453941  0.57655661  0.05763045  1  1.316449  0  0.670611  0.957166  0  2.397282  0
Zn  Zn6  1  0.18084744  0.18087070  0.45749933  1  1.306706  0  0.672114  0.971634  0  2.355511  0
Zn  Zn7  1  0.68087049  0.68084795  0.95749959  1  1.30672  0  0.672131  0.971656  0  2.355463  0
Zn  Zn8  1  0.80538508  0.96041284  0.37358021  1  1.315232  0  0.670117  0.956766  0  2.388914  0
Zn  Zn9  1  0.96047887  0.86056421  0.37356873  1  1.315048  0  0.671387  0.959687  0  2.385015  0
Zn  Zn10  1  0.86051713  0.80540577  0.37361970  1  1.315438  0  0.671042  0.958752  0  2.385858  0
Zn  Zn11  1  0.36056423  0.46047754  0.87356974  1  1.31502  0  0.67133  0.959588  0  2.385133  0
Zn  Zn12  1  0.30540632  0.36051695  0.87362018  1  1.31538  0  0.671075  0.958837  0  2.385772  0
Zn  Zn13  1  0.46041454  0.30538282  0.87357961  1  1.315189  0  0.670091  0.956739  0  2.388925  0
Zn  Zn14  1  0.90870619  0.90878169  0.27389954  1  1.328226  0  0.671885  0.96859  0  2.346015  0
Zn  Zn15  1  0.40878160  0.40870591  0.77389958  1  1.328227  0  0.671883  0.968599  0  2.345997  0
H  H16  1  0.95628362  0.13491299  0.48859787  1  0.085996  0  0.100431  0.10276  0  1.033066  0
H  H17  1  0.07393945  0.22333221  0.35411614  1  0.089805  0  0.106776  0.11073  0  0.991658  0
H  H18  1  0.05197145  0.94473165  0.64199509  1  0.07897  0  0.103826  0.104885  0  1.015261  0
H  H19  1  0.22293323  0.91938147  0.68064866  1  0.082322  0  0.102234  0.104173  0  1.029816  0
H  H20  1  0.88817671  0.14218886  0.43871378  1  0.069894  0  0.094256  0.092676  0  1.046628  0
H  H21  1  0.00520642  0.23218497  0.30359080  1  0.055079  0  0.10061  0.100832  0  1.002751  0
H  H22  1  0.04934693  0.83903695  0.70685877  1  0.049923  0  0.101618  0.101536  0  1.001736  0
H  H23  1  0.21956430  0.81465908  0.74737094  1  0.06976  0  0.098934  0.096721  0  1.021213  0
H  H24  1  0.89522062  0.09574682  0.38028863  1  0.048103  0  0.096116  0.094146  0  1.038698  0
H  H25  1  0.89345503  0.29232651  0.29112413  1  0.048927  0  0.100003  0.098794  0  1.020691  0
H  H26  1  0.24186757  0.70714703  0.76310333  1  0.048633  0  0.094703  0.091303  0  1.044935  0
H  H27  1  0.82283777  0.10568480  0.33254622  1  0.082195  0  0.095515  0.099608  0  1.034333  0
H  H28  1  0.13485012  0.42035301  0.48862044  1  0.086184  0  0.100738  0.102831  0  1.032699  0
H  H29  1  0.22335383  0.34858078  0.35419243  1  0.099795  0  0.107425  0.111841  0  0.992933  0
H  H30  1  0.94465591  0.36140759  0.64208112  1  0.075012  0  0.104113  0.105436  0  1.01543  0
H  H31  1  0.91925271  0.17719402  0.68066020  1  0.069875  0  0.10268  0.105009  0  1.031196  0
H  H32  1  0.14216708  0.53099866  0.43867340  1  0.060884  0  0.094726  0.093332  0  1.048694  0
H  H33  1  0.23222417  0.45894277  0.30361740  1  0.050972  0  0.10069  0.100582  0  1.002594  0
H  H34  1  0.83897845  0.40479863  0.70697334  1  0.030072  0  0.101628  0.102277  0  1.002385  0
H  H35  1  0.81458252  0.21849047  0.74741151  1  0.077414  0  0.099806  0.097066  0  1.022083  0
H  H36  1  0.09590473  0.62870371  0.38035563  1  0.068872  0  0.096536  0.095  0  1.038439  0
H  H37  1  0.29230399  0.52317231  0.29097626  1  0.043077  0  0.09944  0.098229  0  1.022387  0
H  H38  1  0.70710004  0.28794013  0.76311221  1  0.072978  0  0.094907  0.092255  0  1.043762  0
H  H39  1  0.10578165  0.73889255  0.33258348  1  0.084746  0  0.095482  0.09986  0  1.0332  0
H  H40  1  0.42009088  0.95610508  0.48865716  1  0.077075  0  0.10021  0.102289  0  1.032005  0
H  H41  1  0.34849412  0.07383209  0.35416945  1  0.109747  0  0.107252  0.111243  0  0.99332  0
H  H42  1  0.36135886  0.05173393  0.64209181  1  0.077868  0  0.103881  0.105361  0  1.014044  0
H  H43  1  0.17731261  0.22284928  0.68063832  1  0.082436  0  0.103364  0.105249  0  1.031298  0
H  H44  1  0.53085722  0.88824882  0.43871718  1  0.101032  0  0.0951  0.094129  0  1.048566  0
H  H45  1  0.45889824  0.00524070  0.30360840  1  0.04584  0  0.100868  0.10051  0  1.003275  0
H  H46  1  0.40491547  0.04917892  0.70687727  1  0.060975  0  0.101344  0.101941  0  1.001896  0
H  H47  1  0.21874230  0.21953243  0.74730983  1  0.081865  0  0.099232  0.096752  0  1.021306  0
H  H48  1  0.62865941  0.89515535  0.38043102  1  0.060858  0  0.09597  0.094506  0  1.038925  0
H  H49  1  0.52314809  0.89371529  0.29097575  1  0.053379  0  0.100214  0.098658  0  1.021783  0
H  H50  1  0.28807993  0.24182597  0.76312993  1  0.040902  0  0.094969  0.092413  0  1.043877  0
H  H51  1  0.73883011  0.82280311  0.33268380  1  0.071893  0  0.095247  0.099461  0  1.033114  0
H  H52  1  0.92035180  0.63485079  0.98862091  1  0.086178  0  0.100768  0.10287  0  1.032606  0
H  H53  1  0.84858182  0.72335295  0.85419170  1  0.099982  0  0.107396  0.111783  0  0.992969  0
H  H54  1  0.86140889  0.44465547  0.14208073  1  0.074985  0  0.104103  0.10542  0  1.015447  0
H  H55  1  0.67719431  0.41925271  0.18065969  1  0.069873  0  0.102702  0.105076  0  1.031141  0
H  H56  1  0.03099880  0.64216648  0.93867404  1  0.060877  0  0.094754  0.093388  0  1.048644  0
H  H57  1  0.95894427  0.73222231  0.80361749  1  0.050925  0  0.100706  0.100602  0  1.002586  0
H  H58  1  0.90479856  0.33897877  0.20697413  1  0.030064  0  0.101638  0.102302  0  1.002364  0
H  H59  1  0.71849029  0.31458381  0.24741071  1  0.07738  0  0.099808  0.097054  0  1.022109  0
H  H60  1  0.12870412  0.59590575  0.88035699  1  0.068863  0  0.096552  0.095007  0  1.038497  0
H  H61  1  0.02317296  0.79230377  0.79097631  1  0.043157  0  0.099432  0.098231  0  1.022364  0
H  H62  1  0.78793970  0.20710024  0.26311180  1  0.072915  0  0.094876  0.092195  0  1.04381  0
H  H63  1  0.23889271  0.60578263  0.83258391  1  0.08473  0  0.095453  0.099835  0  1.033259  0
H  H64  1  0.45610437  0.92009066  0.98865758  1  0.077054  0  0.100227  0.102326  0  1.032014  0
H  H65  1  0.57383123  0.84849334  0.85417002  1  0.10959  0  0.107272  0.111286  0  0.993301  0
H  H66  1  0.55173315  0.86135918  0.14209108  1  0.077849  0  0.103901  0.105373  0  1.014012  0
H  H67  1  0.72284838  0.67731167  0.18063897  1  0.082434  0  0.103372  0.105237  0  1.031308  0
H  H68  1  0.38824857  0.03085720  0.93871813  1  0.10093  0  0.095087  0.094135  0  1.048544  0
H  H69  1  0.50524022  0.95889743  0.80360922  1  0.04588  0  0.10089  0.100523  0  1.003267  0
H  H70  1  0.54917858  0.90491553  0.20687717  1  0.060969  0  0.101349  0.101946  0  1.001904  0
H  H71  1  0.71953031  0.71874152  0.24731114  1  0.081624  0  0.099228  0.096732  0  1.021325  0
H  H72  1  0.39515460  0.12865837  0.88043246  1  0.060806  0  0.095946  0.094513  0  1.038966  0
H  H73  1  0.39371493  0.02314858  0.79097624  1  0.053387  0  0.100195  0.098661  0  1.021795  0
H  H74  1  0.74182503  0.78807957  0.26312874  1  0.040628  0  0.094983  0.092421  0  1.043917  0
H  H75  1  0.32280312  0.23882994  0.83268610  1  0.071867  0  0.095262  0.099433  0  1.033172  0
H  H76  1  0.63491136  0.45628336  0.98859899  1  0.08617  0  0.10044  0.102746  0  1.033029  0
H  H77  1  0.72333136  0.57393955  0.85411771  1  0.089878  0  0.106755  0.110669  0  0.991723  0
H  H78  1  0.44473095  0.55197133  0.14199481  1  0.078972  0  0.103835  0.104923  0  1.015264  0
H  H79  1  0.41938241  0.72293142  0.18064943  1  0.082317  0  0.102234  0.104144  0  1.029878  0
H  H80  1  0.64218817  0.38817686  0.93871413  1  0.069877  0  0.094253  0.092647  0  1.046647  0
H  H81  1  0.73218545  0.50520586  0.80359215  1  0.055111  0  0.100629  0.100891  0  1.002734  0
H  H82  1  0.33903633  0.54934611  0.20685869  1  0.050222  0  0.101609  0.101527  0  1.001704  0
H  H83  1  0.31466000  0.71956231  0.24737146  1  0.069863  0  0.098915  0.096678  0  1.021271  0
H  H84  1  0.59574721  0.39522020  0.88028917  1  0.048086  0  0.096103  0.094101  0  1.038752  0
H  H85  1  0.79232662  0.39345670  0.79112340  1  0.048902  0  0.099987  0.098735  0  1.020675  0
H  H86  1  0.20714818  0.74186603  0.26310366  1  0.048663  0  0.094686  0.091276  0  1.04494  0
H  H87  1  0.60568497  0.32283676  0.83254767  1  0.082192  0  0.095509  0.099607  0  1.034332  0
H  H88  1  0.97273238  0.92013692  0.48209967  1  0.100335  0  0.109013  0.114799  0  0.989969  0
H  H89  1  0.96618981  0.96444757  0.54782429  1  0.059401  0  0.104326  0.10263  0  1.006506  0
H  H90  1  0.76883068  0.12325662  0.52993476  1  0.05781  0  0.103155  0.103149  0  1.002711  0
H  H91  1  0.77467801  0.07585541  0.46629124  1  0.109953  0  0.109025  0.114205  0  0.9911  0
H  H92  1  0.97339551  0.03626994  0.56921801  1  0.051979  0  0.103316  0.101716  0  1.012739  0
H  H93  1  0.96786802  0.07301855  0.63810815  1  0.089273  0  0.101537  0.105894  0  1.0215  0
H  H94  1  0.85539920  0.13385093  0.69133053  1  0.071648  0  0.099798  0.095115  0  1.038091  0
H  H95  1  0.75365766  0.11783714  0.60708063  1  0.049442  0  0.100486  0.098295  0  1.023707  0
H  H96  1  0.76277716  0.12182304  0.75180892  1  0.075731  0  0.103088  0.102825  0  1.000449  0
H  H97  1  0.65329754  0.19105538  0.80228895  1  0.113781  0  0.109351  0.113885  0  0.991176  0
H  H98  1  0.57434320  0.29931253  0.67056147  1  0.080701  0  0.108542  0.113302  0  0.990172  0
H  H99  1  0.68385383  0.23052652  0.61950098  1  0.083221  0  0.102898  0.102153  0  0.999822  0
H  H100  1  0.92016991  0.62486663  0.48213299  1  0.09139  0  0.109498  0.115112  0  0.989879  0
H  H101  1  0.96448424  0.52144596  0.54784054  1  0.059873  0  0.104851  0.104037  0  1.005798  0
H  H102  1  0.12320733  0.57804598  0.52999524  1  0.047547  0  0.103045  0.103745  0  1.001465  0
H  H103  1  0.07581610  0.68314865  0.46632999  1  0.102732  0  0.109035  0.114149  0  0.991629  0
H  H104  1  0.03629878  0.42100859  0.56917352  1  0.064194  0  0.102794  0.101884  0  1.012619  0
H  H105  1  0.07309750  0.32084885  0.63797491  1  0.086076  0  0.101321  0.105732  0  1.021465  0
H  H106  1  0.13400229  0.31914461  0.69123138  1  0.081122  0  0.09942  0.094753  0  1.037258  0
H  H107  1  0.11792708  0.52118845  0.60715065  1  0.066155  0  0.100097  0.097615  0  1.02456  0
H  H108  1  0.12206833  0.36340758  0.75182308  1  0.049307  0  0.102631  0.102212  0  1.000244  0
H  H109  1  0.19125154  0.35345575  0.80223706  1  0.081792  0  0.109307  0.11406  0  0.991065  0
H  H110  1  0.29931642  0.45595355  0.67041972  1  0.091495  0  0.109435  0.113993  0  0.990599  0
H  H111  1  0.23053737  0.46610335  0.61944332  1  0.042287  0  0.102931  0.103166  0  0.999526  0
H  H112  1  0.62497825  0.97279115  0.48204364  1  0.101035  0  0.109019  0.114815  0  0.989752  0
H  H113  1  0.52148624  0.96632007  0.54776032  1  0.059301  0  0.10368  0.102906  0  1.005345  0
H  H114  1  0.57778405  0.76893604  0.52994045  1  0.050665  0  0.10376  0.104201  0  1.002733  0
H  H115  1  0.68298342  0.77471874  0.46629433  1  0.104858  0  0.108807  0.113496  0  0.990545  0
H  H116  1  0.42092230  0.97352179  0.56921243  1  0.074798  0  0.104188  0.102905  0  1.010851  0
H  H117  1  0.32086796  0.96788671  0.63810800  1  0.094059  0  0.101814  0.105599  0  1.022293  0
H  H118  1  0.31937671  0.85535482  0.69129419  1  0.070578  0  0.099306  0.093611  0  1.039186  0
H  H119  1  0.52133119  0.75378357  0.60698272  1  0.05504  0  0.10078  0.098707  0  1.024402  0
H  H120  1  0.36364134  0.76274984  0.75174035  1  0.062302  0  0.102887  0.102698  0  1.001012  0
H  H121  1  0.35351890  0.65319939  0.80222705  1  0.076062  0  0.10861  0.113975  0  0.991564  0
H  H122  1  0.45591846  0.57427859  0.67048766  1  0.073499  0  0.109211  0.114454  0  0.98972  0
H  H123  1  0.46616566  0.68382475  0.61942301  1  0.045533  0  0.103344  0.103102  0  0.999546  0
H  H124  1  0.12486698  0.42016938  0.98213302  1  0.091687  0  0.109527  0.11515  0  0.989831  0
H  H125  1  0.02144541  0.46448330  0.04784174  1  0.059918  0  0.104823  0.103985  0  1.005717  0
H  H126  1  0.07804489  0.62320803  0.02999456  1  0.047557  0  0.103079  0.103828  0  1.001463  0
H  H127  1  0.18314803  0.57581606  0.96632998  1  0.102798  0  0.109045  0.114161  0  0.991613  0
H  H128  1  0.92100753  0.53629878  0.06917318  1  0.064131  0  0.102778  0.101864  0  1.01257  0
H  H129  1  0.82084836  0.57309836  0.13797450  1  0.086064  0  0.101343  0.105783  0  1.021496  0
H  H130  1  0.81914431  0.63400297  0.19123097  1  0.081067  0  0.099423  0.094754  0  1.037266  0
H  H131  1  0.02118753  0.61792868  0.10714932  1  0.066211  0  0.100106  0.097646  0  1.024576  0
H  H132  1  0.86340779  0.62206966  0.25182264  1  0.049345  0  0.10264  0.102171  0  1.000246  0
H  H133  1  0.85345596  0.69125165  0.30223701  1  0.08178  0  0.109316  0.114051  0  0.991046  0
H  H134  1  0.95595451  0.79931584  0.17041932  1  0.091489  0  0.109443  0.113986  0  0.990586  0
H  H135  1  0.96610408  0.73053744  0.11944211  1  0.042291  0  0.10296  0.103198  0  0.999507  0
H  H136  1  0.47279149  0.12497806  0.98204346  1  0.100985  0  0.109021  0.114816  0  0.989751  0
H  H137  1  0.46631998  0.02148593  0.04775901  1  0.059334  0  0.103693  0.102958  0  1.005334  0
H  H138  1  0.26893518  0.07778499  0.02994038  1  0.050561  0  0.103737  0.104175  0  1.002725  0
H  H139  1  0.27471850  0.18298471  0.96629457  1  0.104843  0  0.108838  0.113539  0  0.990536  0
H  H140  1  0.47352256  0.92092209  0.06921144  1  0.074748  0  0.104188  0.102923  0  1.010827  0
H  H141  1  0.46788786  0.82086782  0.13810718  1  0.094045  0  0.101806  0.105615  0  1.022326  0
H  H142  1  0.35535648  0.81937622  0.19129368  1  0.070596  0  0.09933  0.093658  0  1.039122  0
H  H143  1  0.25378457  0.02133063  0.10698185  1  0.055063  0  0.100783  0.0987  0  1.024356  0
H  H144  1  0.26275087  0.86364084  0.25173973  1  0.062266  0  0.102868  0.102672  0  1.001035  0
H  H145  1  0.15320006  0.85351777  0.30222742  1  0.07609  0  0.108597  0.113963  0  0.991568  0
H  H146  1  0.07427776  0.95591943  0.17048821  1  0.073457  0  0.109216  0.11446  0  0.9897  0
H  H147  1  0.18382388  0.96616591  0.11942312  1  0.045536  0  0.103334  0.103095  0  0.999536  0
H  H148  1  0.42013689  0.47273255  0.98209989  1  0.100346  0  0.109013  0.11481  0  0.989939  0
H  H149  1  0.46444809  0.46619013  0.04782402  1  0.0594  0  0.104314  0.102624  0  1.006499  0
H  H150  1  0.62325668  0.26883046  0.02993470  1  0.057809  0  0.103162  0.103165  0  1.002664  0
H  H151  1  0.57585521  0.27467762  0.96629193  1  0.109958  0  0.109027  0.114199  0  0.991121  0
H  H152  1  0.53626941  0.47339562  0.06921842  1  0.051952  0  0.10331  0.101703  0  1.012756  0
H  H153  1  0.57301870  0.46786800  0.13810771  1  0.089239  0  0.101562  0.105938  0  1.0215  0
H  H154  1  0.63385227  0.35539961  0.19132989  1  0.071629  0  0.09975  0.095025  0  1.038196  0
H  H155  1  0.61783760  0.25365744  0.10708044  1  0.049523  0  0.10052  0.098364  0  1.023627  0
H  H156  1  0.62182248  0.26277732  0.25180859  1  0.075737  0  0.103115  0.102845  0  1.000399  0
H  H157  1  0.69105511  0.15329843  0.30228895  1  0.113769  0  0.109356  0.113871  0  0.991187  0
H  H158  1  0.79931211  0.07434187  0.17056251  1  0.080696  0  0.108538  0.113301  0  0.990213  0
H  H159  1  0.73052690  0.18385253  0.11950112  1  0.083217  0  0.102913  0.102184  0  0.999837  0
C  C160  1  0.06001036  0.17296417  0.45491383  1  1.54166  0  0.225726  0.606004  0  4.164407  0
C  C161  1  0.14256622  0.00032506  0.61790258  1  1.53696  0  0.223658  0.601453  0  4.165826  0
C  C162  1  0.01928467  0.17856666  0.42437666  1  -0.003243  0  -0.025981  -0.054325  0  3.992047  0
C  C163  1  0.13828390  0.93814920  0.65717285  1  -0.068768  0  -0.025332  -0.049428  0  3.994849  0
C  C164  1  0.96692036  0.15558584  0.44798867  1  -0.027422  0  -0.082898  -0.078619  0  3.975911  0
C  C165  1  0.03273586  0.20623722  0.37219043  1  -0.034441  0  -0.081804  -0.082171  0  3.987326  0
C  C166  1  0.08863315  0.91588254  0.66515463  1  -0.032499  0  -0.083816  -0.085718  0  3.988998  0
C  C167  1  0.18538899  0.90081686  0.68698286  1  0.002368  0  -0.082769  -0.082421  0  3.989911  0
C  C168  1  0.92904580  0.15975410  0.41987393  1  -0.044132  0  -0.091284  -0.131909  0  3.972371  0
C  C169  1  0.99400096  0.21128281  0.34425377  1  -0.0617  0  -0.091174  -0.137721  0  3.988175  0
C  C170  1  0.08704439  0.85688227  0.70190166  1  -0.06327  0  -0.090001  -0.134585  0  3.974931  0
C  C171  1  0.18333376  0.84241314  0.72386543  1  -0.038571  0  -0.092031  -0.13559  0  3.981803  0
C  C172  1  0.94166226  0.18794962  0.36757026  1  0.006039  0  -0.001895  0.082328  0  3.98613  0
C  C173  1  0.13420851  0.81902171  0.73204967  1  0.020492  0  0.001596  0.087346  0  3.980072  0
C  C174  1  0.90025190  0.19298471  0.33826938  1  0.012827  0  -0.010785  0.06795  0  4.016584  0
C  C175  1  0.13263001  0.75691743  0.77177346  1  0.049999  0  -0.011616  0.064172  0  4.021689  0
C  C176  1  0.87906681  0.14095947  0.35020283  1  -0.079041  0  -0.090517  -0.125899  0  3.963719  0
C  C177  1  0.87978961  0.25042972  0.29898462  1  -0.072873  0  -0.088776  -0.177952  0  3.936333  0
C  C178  1  0.19314553  0.70386205  0.78435611  1  -0.046215  0  -0.090952  -0.128473  0  3.969891  0
C  C179  1  0.83871134  0.14642893  0.32328753  1  0.010249  0  -0.096408  -0.075447  0  4.032899  0
C  C180  1  0.17297818  0.31214136  0.45497661  1  1.513913  0  0.226955  0.609684  0  4.164095  0
C  C181  1  0.00019384  0.23931462  0.61790777  1  1.537803  0  0.225858  0.603939  0  4.166161  0
C  C182  1  0.17855721  0.37779880  0.42443935  1  -0.03779  0  -0.024408  -0.054426  0  3.993351  0
C  C183  1  0.93805696  0.26651524  0.65720489  1  -0.111232  0  -0.02569  -0.051577  0  3.994569  0
C  C184  1  0.15555770  0.42957587  0.44801004  1  -0.021969  0  -0.084072  -0.079456  0  3.977271  0
C  C185  1  0.20624381  0.38882916  0.37224823  1  -0.020354  0  -0.083024  -0.082998  0  3.98668  0
C  C186  1  0.91581903  0.33041224  0.66522901  1  -0.036812  0  -0.0841  -0.08527  0  3.988578  0
C  C187  1  0.90071240  0.22694350  0.68700437  1  -0.009282  0  -0.08238  -0.082204  0  3.991027  0
C  C188  1  0.15976027  0.49137238  0.41986036  1  -0.04237  0  -0.092284  -0.132089  0  3.975104  0
C  C189  1  0.21130579  0.45044190  0.34428284  1  -0.014527  0  -0.092376  -0.138601  0  3.986113  0
C  C190  1  0.85683242  0.35423069  0.70200049  1  -0.002811  0  -0.089563  -0.135815  0  3.973718  0
C  C191  1  0.84234039  0.25048923  0.72391120  1  -0.002193  0  -0.092182  -0.134985  0  3.982161  0
C  C192  1  0.18799304  0.50283142  0.36756048  1  -0.025331  0  -0.001229  0.081428  0  3.988628  0
C  C193  1  0.81897399  0.31477894  0.73213343  1  0.014201  0  0.000364  0.086476  0  3.978464  0
C  C194  1  0.19304949  0.56850237  0.33824070  1  -0.011104  0  -0.00809  0.070825  0  4.016016  0
C  C195  1  0.75688031  0.33869963  0.77185379  1  0.014442  0  -0.013175  0.062506  0  4.023404  0
C  C196  1  0.14106354  0.62976158  0.35020990  1  -0.132017  0  -0.092043  -0.127937  0  3.96567  0
C  C197  1  0.25044746  0.57085225  0.29889822  1  -0.043045  0  -0.089674  -0.178609  0  3.93679  0
C  C198  1  0.70380355  0.31869229  0.78438036  1  -0.105373  0  -0.09129  -0.12926  0  3.970246  0
C  C199  1  0.14650574  0.69156478  0.32329018  1  -0.029422  0  -0.09736  -0.076591  0  4.033211  0
C  C200  1  0.31201906  0.05995893  0.45492633  1  1.542913  0  0.226954  0.607508  0  4.167471  0
C  C201  1  0.23931692  0.14246753  0.61794187  1  1.539427  0  0.224731  0.60324  0  4.166559  0
C  C202  1  0.37763485  0.01914245  0.42443380  1  -0.039914  0  -0.025066  -0.053892  0  3.99309  0
C  C203  1  0.26655095  0.13815580  0.65720690  1  -0.075853  0  -0.024395  -0.049109  0  3.99338  0
C  C204  1  0.42937888  0.96680135  0.44803425  1  -0.044915  0  -0.084017  -0.07886  0  3.973917  0
C  C205  1  0.38872151  0.03262526  0.37223194  1  -0.050856  0  -0.083133  -0.082364  0  3.986945  0
C  C206  1  0.33044144  0.08844350  0.66521900  1  -0.044149  0  -0.084103  -0.086711  0  3.985005  0
C  C207  1  0.22705627  0.18528750  0.68698170  1  0.009458  0  -0.085101  -0.084743  0  3.992338  0
C  C208  1  0.49122859  0.92905588  0.41988833  1  -0.02119  0  -0.092434  -0.133417  0  3.973696  0
C  C209  1  0.45036434  0.99396690  0.34428093  1  0.029273  0  -0.092129  -0.138738  0  3.987667  0
C  C210  1  0.35434289  0.08688069  0.70192725  1  -0.0162  0  -0.08996  -0.134868  0  3.974112  0
C  C211  1  0.25068333  0.18325337  0.72383343  1  -0.034366  0  -0.090576  -0.133484  0  3.980582  0
C  C212  1  0.50275270  0.94168732  0.36757176  1  -0.084017  0  -0.00027  0.082823  0  3.987362  0
C  C213  1  0.31498524  0.13411286  0.73202310  1  -0.030586  0  0.000553  0.085769  0  3.979752  0
C  C214  1  0.56847377  0.90036674  0.33826020  1  -0.039751  0  -0.009589  0.069358  0  4.016463  0
C  C215  1  0.33893912  0.13258500  0.77173620  1  -0.021477  0  -0.010999  0.065225  0  4.018523  0
C  C216  1  0.62971701  0.87912578  0.35026047  1  -0.005718  0  -0.090762  -0.126507  0  3.964503  0
C  C217  1  0.57082844  0.88000665  0.29888679  1  -0.018746  0  -0.089607  -0.178372  0  3.934956  0
C  C218  1  0.31886102  0.19309643  0.78435562  1  -0.063936  0  -0.093072  -0.131498  0  3.971205  0
C  C219  1  0.69150219  0.83879457  0.32334280  1  -0.03917  0  -0.096428  -0.075646  0  4.032188  0
C  C220  1  0.81214009  0.67297924  0.95497633  1  1.513945  0  0.227006  0.60973  0  4.163984  0
C  C221  1  0.73931666  0.50019364  0.11790791  1  1.537671  0  0.225824  0.603905  0  4.166087  0
C  C222  1  0.87779887  0.67855736  0.92443859  1  -0.037749  0  -0.024382  -0.054309  0  3.993218  0
C  C223  1  0.76651525  0.43805590  0.15720511  1  -0.111107  0  -0.02572  -0.051578  0  3.994681  0
C  C224  1  0.92957554  0.65555809  0.94800999  1  -0.022002  0  -0.084092  -0.079533  0  3.977214  0
C  C225  1  0.88882981  0.70624318  0.87224754  1  -0.02053  0  -0.083044  -0.083027  0  3.986703  0
C  C226  1  0.83041194  0.41582002  0.16522867  1  -0.036621  0  -0.084037  -0.085184  0  3.988507  0
C  C227  1  0.72694436  0.40071390  0.18700320  1  -0.009359  0  -0.082391  -0.082283  0  3.991091  0
C  C228  1  0.99137160  0.65975989  0.91986067  1  -0.04235  0  -0.092291  -0.132083  0  3.975096  0
C  C229  1  0.95044348  0.71130487  0.84428227  1  -0.014498  0  -0.092373  -0.138592  0  3.986128  0
C  C230  1  0.85423066  0.35683184  0.20200088  1  -0.002959  0  -0.089566  -0.135903  0  3.973667  0
C  C231  1  0.75048776  0.34234027  0.22391158  1  -0.002103  0  -0.092246  -0.135047  0  3.98211  0
C  C232  1  0.00283146  0.68799291  0.86756034  1  -0.025469  0  -0.001253  0.081365  0  3.988627  0
C  C233  1  0.81477792  0.31897568  0.23213342  1  0.014254  0  0.000358  0.086589  0  3.978424  0
C  C234  1  0.06850337  0.69304878  0.83824110  1  -0.010958  0  -0.008138  0.07079  0  4.016124  0
C  C235  1  0.83869858  0.25688140  0.27185396  1  0.013856  0  -0.013176  0.062418  0  4.023459  0
C  C236  1  0.12976299  0.64106322  0.85021071  1  -0.132028  0  -0.091999  -0.127871  0  3.965732  0
C  C237  1  0.07085273  0.75044668  0.79889915  1  -0.043055  0  -0.089644  -0.178575  0  3.936777  0
C  C238  1  0.81869156  0.20380451  0.28437980  1  -0.105336  0  -0.091298  -0.129209  0  3.970303  0
C  C239  1  0.19156624  0.64650479  0.82329082  1  -0.029477  0  -0.097399  -0.076647  0  4.033241  0
C  C240  1  0.55995839  0.81201855  0.95492705  1  1.542899  0  0.226903  0.607355  0  4.167504  0
C  C241  1  0.64246760  0.73931745  0.11794144  1  1.539328  0  0.224732  0.603305  0  4.166692  0
C  C242  1  0.51914165  0.87763504  0.92443440  1  -0.039908  0  -0.025066  -0.053755  0  3.992941  0
C  C243  1  0.63815434  0.76654993  0.15720710  1  -0.075761  0  -0.024473  -0.04928  0  3.993504  0
C  C244  1  0.46680167  0.92937845  0.94803475  1  -0.044961  0  -0.08401  -0.078929  0  3.973964  0
C  C245  1  0.53262487  0.88872145  0.87223249  1  -0.050681  0  -0.083134  -0.082425  0  3.986928  0
C  C246  1  0.58844300  0.83044077  0.16521948  1  -0.044104  0  -0.084125  -0.086699  0  3.985071  0
C  C247  1  0.68528666  0.72705578  0.18698253  1  0.009657  0  -0.085126  -0.084786  0  3.992328  0
C  C248  1  0.42905583  0.99122718  0.91988993  1  -0.021111  0  -0.092443  -0.133485  0  3.973714  0
C  C249  1  0.49396662  0.95036325  0.84428215  1  0.029459  0  -0.092116  -0.138712  0  3.987664  0
C  C250  1  0.58687929  0.85434255  0.20192725  1  -0.016214  0  -0.089948  -0.134896  0  3.974212  0
C  C251  1  0.68325081  0.75068320  0.22383502  1  -0.034147  0  -0.090593  -0.133434  0  3.980528  0
C  C252  1  0.44168687  0.00275300  0.86757266  1  -0.084185  0  -0.000322  0.082818  0  3.987302  0
C  C253  1  0.63411040  0.81498539  0.23202393  1  -0.03084  0  0.000549  0.085851  0  3.979663  0
C  C254  1  0.40036632  0.06847436  0.83826102  1  -0.039541  0  -0.009628  0.069274  0  4.016486  0
C  C255  1  0.63258434  0.83893884  0.27173560  1  -0.021035  0  -0.01096  0.065215  0  4.018636  0
C  C256  1  0.37912585  0.12971580  0.85026238  1  -0.005712  0  -0.090779  -0.126545  0  3.964456  0
C  C257  1  0.38000613  0.07082883  0.79888736  1  -0.01887  0  -0.089551  -0.17831  0  3.93487  0
C  C258  1  0.69309543  0.81886130  0.28435427  1  -0.064159  0  -0.093109  -0.131503  0  3.971266  0
C  C259  1  0.33879506  0.19150152  0.82334442  1  -0.039259  0  -0.096425  -0.075588  0  4.032222  0
C  C260  1  0.67296297  0.56000979  0.95491538  1  1.541589  0  0.225761  0.606099  0  4.164355  0
C  C261  1  0.50032439  0.64256614  0.11790292  1  1.537275  0  0.223672  0.60146  0  4.165831  0
C  C262  1  0.67856509  0.51928371  0.92437911  1  -0.002791  0  -0.026035  -0.054482  0  3.992131  0
C  C263  1  0.43815080  0.63828179  0.15717282  1  -0.068658  0  -0.025345  -0.049475  0  3.994918  0
C  C264  1  0.65558441  0.46691956  0.94798956  1  -0.027494  0  -0.082863  -0.078546  0  3.975893  0
C  C265  1  0.70623562  0.53273607  0.87219185  1  -0.034492  0  -0.081755  -0.08202  0  3.987265  0
C  C266  1  0.41588367  0.58863247  0.16515396  1  -0.03273  0  -0.083791  -0.085737  0  3.989117  0
C  C267  1  0.40081802  0.68538681  0.18698368  1  0.002268  0  -0.082772  -0.082385  0  3.989904  0
C  C268  1  0.65975320  0.42904590  0.91987403  1  -0.04423  0  -0.091274  -0.131801  0  3.972342  0
C  C269  1  0.71128209  0.49400086  0.84425488  1  -0.062079  0  -0.091222  -0.137822  0  3.988184  0
C  C270  1  0.35688389  0.58704315  0.20190135  1  -0.0634  0  -0.089983  -0.13457  0  3.974819  0
C  C271  1  0.34241396  0.68333229  0.22386580  1  -0.038663  0  -0.092036  -0.135544  0  3.981754  0
C  C272  1  0.68794835  0.44166211  0.86757155  1  0.005884  0  -0.001896  0.082252  0  3.986233  0
C  C273  1  0.31902196  0.63420783  0.23205064  1  0.020523  0  0.00159  0.087341  0  3.9799  0
C  C274  1  0.69298404  0.40025341  0.83826929  1  0.012902  0  -0.010789  0.067923  0  4.016634  0
C  C275  1  0.25691823  0.63262927  0.27177395  1  0.049973  0  -0.011618  0.064158  0  4.021704  0
C  C276  1  0.64095860  0.37906721  0.85020316  1  -0.078814  0  -0.09052  -0.125851  0  3.963809  0
C  C277  1  0.75042844  0.37979087  0.79898445  1  -0.073421  0  -0.08879  -0.17792  0  3.93633  0
C  C278  1  0.20386250  0.69314502  0.28435633  1  -0.046228  0  -0.090942  -0.128428  0  3.969839  0
C  C279  1  0.64642888  0.33871153  0.82328799  1  0.010004  0  -0.096409  -0.075457  0  4.032942  0
C  C280  1  0.87792845  0.96641158  0.43183009  1  1.551407  0  0.224643  0.59857  0  4.177113  0
C  C281  1  0.87413151  0.99502786  0.47014524  1  -0.041529  0  -0.022674  -0.055162  0  3.995376  0
C  C282  1  0.92825779  0.96460193  0.49297027  1  -0.051988  0  -0.079807  -0.079232  0  3.977487  0
C  C283  1  0.92445285  0.99014659  0.52947450  1  -0.027189  0  -0.087463  -0.130496  0  3.975812  0
C  C284  1  0.86706801  0.04737268  0.54403034  1  0.014424  0  0.001737  0.08312  0  3.979228  0
C  C285  1  0.81335787  0.07795200  0.52037649  1  -0.068447  0  -0.088918  -0.135901  0  3.977077  0
C  C286  1  0.81648659  0.05200412  0.48430807  1  -0.050868  0  -0.080637  -0.085692  0  3.990585  0
C  C287  1  0.86371878  0.07333239  0.58337824  1  0.050758  0  -0.009213  0.061914  0  4.010307  0
C  C288  1  0.92377207  0.06130442  0.59285599  1  -0.041493  0  -0.087417  -0.126637  0  3.962377  0
C  C289  1  0.92078541  0.08240125  0.63170130  1  -0.037428  0  -0.090352  -0.070079  0  4.025498  0
C  C290  1  0.85796444  0.11654056  0.66131889  1  -0.032466  0  -0.089072  -0.128747  0  3.973031  0
C  C291  1  0.79705781  0.13167897  0.65172334  1  -0.026363  0  -0.00893  0.068534  0  4.0221  0
C  C292  1  0.80081064  0.10929400  0.61293271  1  -0.111512  0  -0.087024  -0.17331  0  3.928528  0
C  C293  1  0.73111706  0.17113508  0.68199310  1  -0.00039  0  0.001959  0.083622  0  3.990892  0
C  C294  1  0.72178233  0.16106622  0.73371110  1  -0.070551  0  -0.089755  -0.138586  0  3.989345  0
C  C295  1  0.66065433  0.19936415  0.76216458  1  0.002821  0  -0.08177  -0.083799  0  3.99092  0
C  C296  1  0.60714267  0.24952860  0.73953523  1  -0.062214  0  -0.02212  -0.051106  0  3.984597  0
C  C297  1  0.61586686  0.25999607  0.68802786  1  -0.026419  0  -0.078972  -0.079375  0  3.975982  0
C  C298  1  0.67695966  0.22104713  0.65976452  1  -0.073283  0  -0.088867  -0.132411  0  3.975595  0
C  C299  1  0.54216996  0.29092429  0.77029401  1  1.533273  0  0.228682  0.606187  0  4.162538  0
C  C300  1  0.96632032  0.72377592  0.43187257  1  1.54586  0  0.22492  0.601696  0  4.174194  0
C  C301  1  0.99502115  0.66061690  0.47014892  1  0.024681  0  -0.021528  -0.054989  0  3.994581  0
C  C302  1  0.96462113  0.61406290  0.49299756  1  -0.085023  0  -0.080995  -0.080103  0  3.97922  0
C  C303  1  0.99017379  0.55584728  0.52949850  1  0.014541  0  -0.088838  -0.133257  0  3.974896  0
C  C304  1  0.04742354  0.54143754  0.54405936  1  -0.018402  0  0.002718  0.08576  0  3.971428  0
C  C305  1  0.07793959  0.58828741  0.52042268  1  -0.047928  0  -0.089212  -0.137114  0  3.972314  0
C  C306  1  0.05197480  0.64715818  0.48434208  1  -0.092379  0  -0.080763  -0.085697  0  3.990141  0
C  C307  1  0.07342274  0.47940550  0.58336289  1  0.044296  0  -0.008828  0.061278  0  4.010394  0
C  C308  1  0.06138896  0.42192040  0.59279614  1  -0.100998  0  -0.087004  -0.12809  0  3.963415  0
C  C309  1  0.08252788  0.36491273  0.63160385  1  0.012477  0  -0.090545  -0.069754  0  4.025775  0
C  C310  1  0.11671756  0.36391401  0.66122696  1  -0.072494  0  -0.087088  -0.12619  0  3.970263  0
C  C311  1  0.13184952  0.41927168  0.65168352  1  -0.031069  0  -0.010311  0.06713  0  4.021062  0
C  C312  1  0.10942678  0.47672502  0.61293383  1  -0.082023  0  -0.08666  -0.173188  0  3.930605  0
C  C313  1  0.17127888  0.41558543  0.68195579  1  -0.021055  0  0.00101  0.084446  0  3.987981  0
C  C314  1  0.16125546  0.38333263  0.73367925  1  0.017592  0  -0.089142  -0.138335  0  3.985765  0
C  C315  1  0.19953041  0.37787037  0.76210175  1  -0.070686  0  -0.081093  -0.083218  0  3.989212  0
C  C316  1  0.24965542  0.40390188  0.73944585  1  0.00927  0  -0.021975  -0.051439  0  3.985659  0
C  C317  1  0.26006125  0.43619288  0.68793604  1  -0.040542  0  -0.08042  -0.080392  0  3.979663  0
C  C318  1  0.22112069  0.44218507  0.65971162  1  -0.025222  0  -0.088334  -0.133879  0  3.977363  0
C  C319  1  0.29105394  0.39675484  0.77020481  1  1.529969  0  0.22747  0.60619  0  4.164904  0
C  C320  1  0.72377416  0.87785696  0.43184391  1  1.54156  0  0.223466  0.600009  0  4.175354  0
C  C321  1  0.66059972  0.87415988  0.47011912  1  0.004443  0  -0.02376  -0.056363  0  3.994953  0
C  C322  1  0.61411002  0.92830637  0.49292829  1  -0.048225  0  -0.079919  -0.079855  0  3.978159  0
C  C323  1  0.55584487  0.92455842  0.52942428  1  -0.05079  0  -0.0865  -0.130172  0  3.971743  0
C  C324  1  0.54138414  0.86720463  0.54399006  1  -0.012941  0  0.002616  0.083189  0  3.974675  0
C  C325  1  0.58813608  0.81346419  0.52035804  1  -0.036441  0  -0.090488  -0.138526  0  3.976852  0
C  C326  1  0.64703705  0.81654052  0.48430469  1  -0.054831  0  -0.078843  -0.082469  0  3.985677  0
C  C327  1  0.47942081  0.86386309  0.58331510  1  -0.061298  0  -0.011145  0.061335  0  4.01143  0
C  C328  1  0.42189497  0.92387365  0.59281283  1  -0.075236  0  -0.088809  -0.129325  0  3.963796  0
C  C329  1  0.36495992  0.92082625  0.63166894  1  -0.034392  0  -0.090122  -0.06881  0  4.023492  0
C  C330  1  0.36409102  0.85796659  0.66127050  1  -0.045529  0  -0.088669  -0.127152  0  3.970956  0
C  C331  1  0.41948368  0.79710020  0.65165157  1  -0.056251  0  -0.008824  0.067962  0  4.021865  0
C  C332  1  0.47685477  0.80091598  0.61284276  1  0.034468  0  -0.085562  -0.172638  0  3.927706  0
C  C333  1  0.41580060  0.73110661  0.68192198  1  -0.035049  0  0.001601  0.084355  0  3.988929  0
C  C334  1  0.38351853  0.72174553  0.73363889  1  -0.06137  0  -0.089425  -0.138412  0  3.9891  0
C  C335  1  0.37796101  0.66058576  0.76210036  1  0.022244  0  -0.081424  -0.083873  0  3.990532  0
C  C336  1  0.40395164  0.60707313  0.73947287  1  -0.010781  0  -0.021277  -0.050754  0  3.984678  0
C  C337  1  0.43624852  0.61580246  0.68796257  1  -0.047462  0  -0.081142  -0.082315  0  3.978501  0
C  C338  1  0.44231479  0.67691998  0.65969245  1  0.017135  0  -0.088028  -0.132453  0  3.974902  0
C  C339  1  0.39674166  0.54210265  0.77023686  1  1.518252  0  0.228431  0.60643  0  4.162431  0
C  C340  1  0.22377493  0.46631887  0.93187262  1  1.545803  0  0.224899  0.601692  0  4.17422  0
C  C341  1  0.16061629  0.49502147  0.97014831  1  0.02468  0  -0.021513  -0.054989  0  3.994534  0
C  C342  1  0.11406265  0.46462136  0.99299721  1  -0.085324  0  -0.080979  -0.080037  0  3.979031  0
C  C343  1  0.05584658  0.49017496  0.02949842  1  0.014494  0  -0.088812  -0.132592  0  3.975341  0
C  C344  1  0.04143743  0.54742415  0.04405907  1  -0.018407  0  0.002682  0.083758  0  3.974146  0
C  C345  1  0.08828754  0.57794093  0.02042108  1  -0.047946  0  -0.089324  -0.13671  0  3.973038  0
C  C346  1  0.14715672  0.55197531  0.98434149  1  -0.092421  0  -0.080748  -0.085626  0  3.990089  0
C  C347  1  0.97940444  0.57342291  0.08336183  1  0.04465  0  -0.008815  0.061973  0  4.010795  0
C  C348  1  0.92192055  0.56138969  0.09279555  1  -0.101406  0  -0.086973  -0.128062  0  3.963395  0
C  C349  1  0.86491119  0.58252906  0.13160366  1  0.012443  0  -0.090586  -0.069847  0  4.025787  0
C  C350  1  0.86391286  0.61671762  0.16122666  1  -0.072366  0  -0.087087  -0.126166  0  3.970357  0
C  C351  1  0.91927111  0.63184960  0.15168269  1  -0.030999  0  -0.010314  0.067138  0  4.021092  0
C  C352  1  0.97672451  0.60942770  0.11293271  1  -0.082076  0  -0.086634  -0.173189  0  3.930378  0
C  C353  1  0.91558525  0.67127888  0.18195588  1  -0.021005  0  0.001011  0.084383  0  3.987888  0
C  C354  1  0.88333270  0.66125504  0.23368007  1  0.017705  0  -0.08907  -0.138112  0  3.985711  0
C  C355  1  0.87787009  0.69952918  0.26210126  1  -0.070884  0  -0.081214  -0.083362  0  3.989277  0
C  C356  1  0.90390203  0.74965523  0.23944457  1  0.009236  0  -0.021937  -0.05137  0  3.985559  0
C  C357  1  0.93619448  0.76006029  0.18793555  1  -0.0405  0  -0.080467  -0.080417  0  3.979743  0
C  C358  1  0.94218568  0.72112047  0.15971154  1  -0.025245  0  -0.088335  -0.133908  0  3.977474  0
C  C359  1  0.89675510  0.79105319  0.27020469  1  1.529985  0  0.227412  0.60612  0  4.164947  0
C  C360  1  0.37785662  0.22377517  0.93184393  1  1.542047  0  0.223436  0.599959  0  4.175446  0
C  C361  1  0.37415999  0.16059971  0.97011931  1  0.004451  0  -0.023774  -0.056375  0  3.994965  0
C  C362  1  0.42830611  0.11411036  0.99292813  1  -0.048181  0  -0.079933  -0.079861  0  3.978069  0
C  C363  1  0.42455890  0.05584321  0.02942456  1  -0.050511  0  -0.086516  -0.130229  0  3.971612  0
C  C364  1  0.36720364  0.04138327  0.04398955  1  -0.013249  0  0.002638  0.08319  0  3.974686  0
C  C365  1  0.31346450  0.08813589  0.02035828  1  -0.036308  0  -0.090491  -0.138523  0  3.976834  0
C  C366  1  0.31653968  0.14703898  0.98430424  1  -0.05484  0  -0.078863  -0.082499  0  3.985593  0
C  C367  1  0.36386451  0.97941956  0.08331359  1  -0.060938  0  -0.011087  0.061459  0  4.011302  0
C  C368  1  0.42387431  0.92189503  0.09281147  1  -0.075229  0  -0.0888  -0.129324  0  3.963813  0
C  C369  1  0.42082730  0.86496055  0.13166760  1  -0.03442  0  -0.090179  -0.068979  0  4.023652  0
C  C370  1  0.35796730  0.86409120  0.16126975  1  -0.045764  0  -0.088668  -0.127114  0  3.970878  0
C  C371  1  0.29710110  0.91948410  0.15164971  1  -0.055978  0  -0.008796  0.067973  0  4.02185  0
C  C372  1  0.30091697  0.97685395  0.11284159  1  0.034074  0  -0.08561  -0.172711  0  3.927672  0
C  C373  1  0.23110683  0.91580118  0.18192163  1  -0.035053  0  0.00162  0.084436  0  3.988882  0
C  C374  1  0.22174656  0.88351877  0.23363838  1  -0.061341  0  -0.089386  -0.138394  0  3.989078  0
C  C375  1  0.16058538  0.87796187  0.26210045  1  0.02222  0  -0.081464  -0.083924  0  3.990573  0
C  C376  1  0.10707349  0.90395159  0.23947303  1  -0.011084  0  -0.021252  -0.050712  0  3.984712  0
C  C377  1  0.11580228  0.93624965  0.18796253  1  -0.047342  0  -0.081166  -0.082343  0  3.978363  0
C  C378  1  0.17692072  0.94231537  0.15969196  1  0.017165  0  -0.088025  -0.132464  0  3.974817  0
C  C379  1  0.04210283  0.89674124  0.27023686  1  1.518338  0  0.228443  0.606419  0  4.162493  0
C  C380  1  0.46641170  0.37792755  0.93183057  1  1.551404  0  0.224668  0.598615  0  4.177095  0
C  C381  1  0.49502802  0.37413002  0.97014589  1  -0.041546  0  -0.022654  -0.055173  0  3.995333  0
C  C382  1  0.46460227  0.42825733  0.99297056  1  -0.051969  0  -0.079803  -0.079199  0  3.97733  0
C  C383  1  0.49014674  0.42445285  0.02947443  1  -0.027168  0  -0.087468  -0.130537  0  3.975723  0
C  C384  1  0.54737356  0.36706710  0.04403061  1  0.014429  0  0.001677  0.083015  0  3.979156  0
C  C385  1  0.57795195  0.31335790  0.02037640  1  -0.068459  0  -0.088926  -0.135902  0  3.977013  0
C  C386  1  0.55200393  0.31648697  0.98430786  1  -0.050893  0  -0.080642  -0.08568  0  3.990611  0
C  C387  1  0.57333255  0.36371845  0.08337855  1  0.050749  0  -0.009166  0.062035  0  4.010276  0
C  C388  1  0.56130440  0.42377249  0.09285579  1  -0.04147  0  -0.087419  -0.126652  0  3.962374  0
C  C389  1  0.58240214  0.42078529  0.13170099  1  -0.037447  0  -0.090349  -0.070107  0  4.025555  0
C  C390  1  0.61654213  0.35796392  0.16131848  1  -0.032298  0  -0.089069  -0.128676  0  3.973196  0
C  C391  1  0.63168029  0.29705815  0.15172272  1  -0.026113  0  -0.008922  0.068489  0  4.022329  0
C  C392  1  0.60929467  0.30081107  0.11293227  1  -0.111946  0  -0.087017  -0.173338  0  3.928555  0
C  C393  1  0.67113588  0.23111755  0.18199257  1  -0.000388  0  0.0019  0.083588  0  3.991017  0
C  C394  1  0.66106720  0.22178210  0.23371108  1  -0.070736  0  -0.089729  -0.138577  0  3.98931  0
C  C395  1  0.69936451  0.16065482  0.26216518  1  0.003  0  -0.08178  -0.083773  0  3.990874  0
C  C396  1  0.74952898  0.10714253  0.23953566  1  -0.062124  0  -0.02213  -0.051042  0  3.984581  0
C  C397  1  0.75999631  0.11586625  0.18802882  1  -0.026388  0  -0.078987  -0.079424  0  3.975986  0
C  C398  1  0.72104707  0.17696018  0.15976356  1  -0.073379  0  -0.088843  -0.132418  0  3.975519  0
C  C399  1  0.79092459  0.04217053  0.27029457  1  1.532911  0  0.228645  0.606048  0  4.162388  0
O  O400  1  0.04018561  0.15241954  0.50265714  1  -1.183001  0  -0.320476  -0.553088  0  2.363334  0
O  O401  1  0.09322360  0.03953867  0.59648698  1  -1.172452  0  -0.315257  -0.547795  0  2.331912  0
O  O402  1  0.00982859  0.18577537  0.60868407  1  -1.175075  0  -0.317479  -0.555128  0  2.362867  0
O  O403  1  0.11106401  0.18875877  0.43148836  1  -1.176109  0  -0.315807  -0.548793  0  2.323448  0
O  O404  1  0.15248539  0.30473701  0.50272155  1  -1.160941  0  -0.320504  -0.553847  0  2.362694  0
O  O405  1  0.03942565  0.27084640  0.59646515  1  -1.180933  0  -0.316175  -0.549198  0  2.333993  0
O  O406  1  0.18575625  0.19556598  0.60873997  1  -1.188084  0  -0.317652  -0.555676  0  2.361618  0
O  O407  1  0.18873594  0.26875983  0.43152326  1  -1.171084  0  -0.317384  -0.551114  0  2.324816  0
O  O408  1  0.30456881  0.04016265  0.50267606  1  -1.183647  0  -0.320215  -0.553565  0  2.364076  0
O  O409  1  0.27086284  0.09317207  0.59647804  1  -1.167844  0  -0.314736  -0.548308  0  2.333128  0
O  O410  1  0.19569424  0.00996479  0.60867220  1  -1.179923  0  -0.315784  -0.55437  0  2.363333  0
O  O411  1  0.26872126  0.11111435  0.43145171  1  -1.177538  0  -0.317249  -0.549903  0  2.326028  0
O  O412  1  0.80473606  0.65248657  0.00272153  1  -1.160901  0  -0.320495  -0.55386  0  2.362635  0
O  O413  1  0.77084603  0.53942614  0.09646583  1  -1.180979  0  -0.316123  -0.549084  0  2.334076  0
O  O414  1  0.69556629  0.68575737  0.10873995  1  -1.18805  0  -0.317628  -0.555656  0  2.361744  0
O  O415  1  0.76875897  0.68873688  0.93152290  1  -1.171137  0  -0.317419  -0.551155  0  2.324795  0
O  O416  1  0.54016131  0.80456973  0.00267598  1  -1.183624  0  -0.320134  -0.553434  0  2.364078  0
O  O417  1  0.59317152  0.77086434  0.09647719  1  -1.167819  0  -0.314695  -0.548272  0  2.333061  0
O  O418  1  0.50996510  0.69569367  0.10867206  1  -1.180202  0  -0.315808  -0.554397  0  2.36331  0
O  O419  1  0.61111387  0.76872152  0.93145148  1  -1.177525  0  -0.317273  -0.549887  0  2.325961  0
O  O420  1  0.65241794  0.54018668  0.00265803  1  -1.183028  0  -0.320524  -0.553133  0  2.36328  0
O  O421  1  0.53953895  0.59322313  0.09648780  1  -1.172462  0  -0.315249  -0.547745  0  2.331903  0
O  O422  1  0.68577630  0.50982917  0.10868332  1  -1.175079  0  -0.317508  -0.555236  0  2.362769  0
O  O423  1  0.68875776  0.61106290  0.93148935  1  -1.176037  0  -0.315816  -0.54883  0  2.32353  0
O  O424  1  0.15614866  0.15627142  0.53143777  1  -1.223567  0  -0.575082  -1.027092  0  2.550269  0
O  O425  1  0.65627152  0.65614910  0.03143768  1  -1.223598  0  -0.575081  -1.027062  0  2.550293  0
O  O426  1  0.82536847  0.99369501  0.41459119  1  -1.172484  0  -0.314183  -0.545408  0  2.34231  0
O  O427  1  0.93357493  0.91668134  0.41915850  1  -1.177576  0  -0.317126  -0.550493  0  2.343853  0
O  O428  1  0.49647607  0.33880163  0.74752819  1  -1.175999  0  -0.315029  -0.546846  0  2.321627  0
O  O429  1  0.53752871  0.27509824  0.81749522  1  -1.171157  0  -0.317612  -0.555593  0  2.363159  0
O  O430  1  0.99364889  0.76627736  0.41458741  1  -1.174597  0  -0.315189  -0.547683  0  2.340887  0
O  O431  1  0.91649931  0.73057974  0.41928362  1  -1.170838  0  -0.316711  -0.550922  0  2.34298  0
O  O432  1  0.33880844  0.41752842  0.74746590  1  -1.171217  0  -0.31507  -0.546844  0  2.323145  0
O  O433  1  0.27536297  0.36981765  0.81737583  1  -1.181737  0  -0.316589  -0.555579  0  2.363621  0
O  O434  1  0.76621932  0.82529774  0.41459051  1  -1.177293  0  -0.31399  -0.54681  0  2.340642  0
O  O435  1  0.73065742  0.93342400  0.41922326  1  -1.171476  0  -0.315435  -0.549236  0  2.343132  0
O  O436  1  0.41757824  0.49629727  0.74750183  1  -1.169504  0  -0.314498  -0.546819  0  2.321913  0
O  O437  1  0.36972283  0.53757797  0.81740322  1  -1.180928  0  -0.317976  -0.556236  0  2.362367  0
O  O438  1  0.26627648  0.49364840  0.91458780  1  -1.174472  0  -0.315152  -0.54762  0  2.34085  0
O  O439  1  0.23057900  0.41649892  0.91928427  1  -1.17088  0  -0.316715  -0.550959  0  2.342996  0
O  O440  1  0.91752863  0.83880795  0.24746639  1  -1.171192  0  -0.315055  -0.546833  0  2.323127  0
O  O441  1  0.86981831  0.77536240  0.31737586  1  -1.181742  0  -0.316566  -0.555549  0  2.363691  0
O  O442  1  0.32529650  0.26622059  0.91459108  1  -1.177762  0  -0.313993  -0.546825  0  2.340637  0
O  O443  1  0.43342448  0.23065719  0.91922340  1  -1.171493  0  -0.315408  -0.549192  0  2.343272  0
O  O444  1  0.99629740  0.91757861  0.24750141  1  -1.169505  0  -0.314474  -0.546781  0  2.321965  0
O  O445  1  0.03757919  0.86972185  0.31740307  1  -1.180784  0  -0.317998  -0.556271  0  2.362401  0
O  O446  1  0.49369575  0.32536929  0.91459093  1  -1.172454  0  -0.314179  -0.545412  0  2.34235  0
O  O447  1  0.41667969  0.43357511  0.91915921  1  -1.177572  0  -0.317125  -0.550484  0  2.34383  0
O  O448  1  0.83880285  0.99647542  0.24752845  1  -1.175964  0  -0.315035  -0.546837  0  2.321459  0
O  O449  1  0.77509767  0.03752912  0.31749576  1  -1.170833  0  -0.317594  -0.555519  0  2.363113  0
O  O450  1  0.88400175  0.88398523  0.34800453  1  -1.245052  0  -0.572597  -1.02598  0  2.539388  0
O  O451  1  0.38398592  0.38400202  0.84800381  1  -1.24503  0  -0.572618  -1.026018  0  2.539381  0
