# generated using pymatgen
data_La2CuH28C32S4N2O19
_symmetry_space_group_name_H-M   'P 1'
_cell_length_a   13.10735312
_cell_length_b   16.74247183
_cell_length_c   21.39121921
_cell_angle_alpha   90.00005593
_cell_angle_beta   95.76089605
_cell_angle_gamma   89.99999330
_symmetry_Int_Tables_number   1
_chemical_formula_structural   La2CuH28C32S4N2O19
_chemical_formula_sum   'La8 Cu4 H112 C128 S16 N8 O76'
_cell_volume   4670.58338428
_cell_formula_units_Z   4
loop_
 _symmetry_equiv_pos_site_id
 _symmetry_equiv_pos_as_xyz
  1  'x, y, z'
loop_
 _atom_site_type_symbol
 _atom_site_label
 _atom_site_symmetry_multiplicity
 _atom_site_fract_x
 _atom_site_fract_y
 _atom_site_fract_z
 _atom_site_occupancy
 _atom_site_pbe_bader_charge
 _atom_site_pbe_bader_spin_density
 _atom_site_pbe_cm5_charge
 _atom_site_pbe_ddec_charge
 _atom_site_pbe_ddec_spin_density
 _atom_site_pbe_ddec_sum_bond_order
 _atom_site_pbe_magmom
La  La0  1  0.86408532  0.25706069  0.18630525  1  2.293096  0.000426  1.392766  1.98824  0.000348  2.355358  0.0
La  La1  1  0.63591427  0.75706221  0.31369343  1  2.293005  0.000426  1.392722  1.988156  0.000349  2.355465  0.0
La  La2  1  0.13591519  0.74293918  0.81369453  1  2.293069  0.000426  1.392723  1.988146  0.000348  2.355406  0.0
La  La3  1  0.36408318  0.24293945  0.68630522  1  2.293098  0.000426  1.392671  1.988072  0.000348  2.355451  0.0
La  La4  1  0.65729673  0.25604092  0.80642790  1  2.27946  0.000495  1.427707  1.947155  0.000541  2.457385  0.001
La  La5  1  0.84270057  0.75604168  0.69357323  1  2.279437  0.000495  1.42766  1.947111  0.000541  2.45738  0.001
La  La6  1  0.34270300  0.74395776  0.19357324  1  2.279462  0.000495  1.427667  1.947139  0.000541  2.457255  0.001
La  La7  1  0.15729840  0.24395938  0.30642645  1  2.279471  0.000495  1.427728  1.947168  0.000541  2.457377  0.001
Cu  Cu8  1  0.25262389  0.73876667  0.99698251  1  1.117354  0.582247  0.7399  0.923738  0.741989  2.055406  0.582
Cu  Cu9  1  0.24737755  0.23876731  0.50301697  1  1.117439  0.582249  0.739909  0.923825  0.741991  2.055279  0.582
Cu  Cu10  1  0.74737738  0.26123320  0.00301826  1  1.117488  0.58225  0.73991  0.923792  0.741991  2.055365  0.582
Cu  Cu11  1  0.75262297  0.76123196  0.49698188  1  1.117471  0.582245  0.73991  0.923783  0.741983  2.055288  0.582
H  H12  1  0.51067872  0.91775753  0.96906269  1  0.117115  0.000283  0.112948  0.132178  0.00023  0.981721  0.0
H  H13  1  0.98932015  0.41775819  0.53093447  1  0.117016  0.000283  0.112981  0.132207  0.00023  0.981754  0.0
H  H14  1  0.48932106  0.08224293  0.03093331  1  0.117032  0.000283  0.112938  0.132175  0.00023  0.981796  0.0
H  H15  1  0.01067959  0.58224287  0.46906480  1  0.117072  0.000283  0.112958  0.132159  0.00023  0.981776  0.0
H  H16  1  0.58404449  0.04318353  0.90985516  1  0.120883  3.8e-05  0.113966  0.134921  3.3e-05  0.990768  0.0
H  H17  1  0.91595284  0.54318475  0.59014394  1  0.120811  3.8e-05  0.113968  0.134888  3.3e-05  0.990788  0.0
H  H18  1  0.41595297  0.95681455  0.09014162  1  0.120799  3.8e-05  0.113949  0.134886  3.3e-05  0.990797  0.0
H  H19  1  0.08404767  0.45681750  0.40985584  1  0.120828  3.8e-05  0.113977  0.134922  3.3e-05  0.990745  0.0
H  H20  1  0.01185500  0.54778234  0.03926017  1  0.120192  0.000214  0.110367  0.124247  0.000167  1.003701  0.0
H  H21  1  0.48814642  0.04778413  0.46073843  1  0.120123  0.000214  0.11042  0.124367  0.000167  1.003681  0.0
H  H22  1  0.98814474  0.45221753  0.96074050  1  0.120236  0.000214  0.110353  0.124245  0.000167  1.00371  0.0
H  H23  1  0.51185334  0.95221753  0.53925897  1  0.120091  0.000214  0.110413  0.124343  0.000167  1.003759  0.0
H  H24  1  0.96718643  0.41027516  0.09280421  1  0.141142  1.2e-05  0.119126  0.141766  2.8e-05  1.002895  0.0
H  H25  1  0.53281776  0.91027561  0.40719396  1  0.141087  1.2e-05  0.119138  0.141748  2.8e-05  1.002883  0.0
H  H26  1  0.03281331  0.58972351  0.90719599  1  0.141086  1.2e-05  0.119132  0.141769  2.8e-05  1.002882  0.0
H  H27  1  0.46718737  0.08972545  0.59280332  1  0.141079  1.2e-05  0.119125  0.141771  2.8e-05  1.002859  0.0
H  H28  1  0.49075846  0.55352457  0.96338287  1  0.126183  0.000228  0.110679  0.125321  0.000199  1.009613  0.0
H  H29  1  0.00923917  0.05352528  0.53661435  1  0.126112  0.000228  0.110662  0.125337  0.000199  1.009542  0.0
H  H30  1  0.50924280  0.44647470  0.03661790  1  0.126228  0.000228  0.110679  0.125322  0.000199  1.009633  0.0
H  H31  1  0.99075982  0.94647279  0.46338347  1  0.126177  0.000228  0.110645  0.125287  0.000199  1.009578  0.0
H  H32  1  0.54875914  0.41511726  0.91562477  1  0.142467  1.3e-05  0.115566  0.141697  1.7e-05  1.00704  0.0
H  H33  1  0.95124049  0.91511669  0.58437383  1  0.142467  1.3e-05  0.115545  0.141683  1.7e-05  1.007069  0.0
H  H34  1  0.45124062  0.58488261  0.08437403  1  0.142456  1.3e-05  0.11553  0.141665  1.7e-05  1.007018  0.0
H  H35  1  0.04875541  0.08488199  0.41562612  1  0.142533  1.3e-05  0.115523  0.141647  1.7e-05  1.00709  0.0
H  H36  1  0.98112148  0.91673021  0.03457282  1  0.097601  0.000255  0.109902  0.127021  0.000175  0.984329  0.0
H  H37  1  0.51887882  0.41673144  0.46543211  1  0.097517  0.000255  0.109884  0.126993  0.000175  0.984374  0.0
H  H38  1  0.01887977  0.08326966  0.96542981  1  0.097538  0.000255  0.10991  0.127014  0.000175  0.984388  0.0
H  H39  1  0.48112324  0.58326424  0.53456637  1  0.097495  0.000255  0.109905  0.127026  0.000175  0.984392  0.0
H  H40  1  0.91848937  0.04026947  0.10014765  1  0.114526  4.8e-05  0.115854  0.138293  3.8e-05  0.991472  0.0
H  H41  1  0.58151402  0.54026931  0.39985486  1  0.11461  4.8e-05  0.115841  0.138271  3.8e-05  0.991429  0.0
H  H42  1  0.08151342  0.95973160  0.89985369  1  0.114505  4.8e-05  0.115845  0.138288  3.8e-05  0.991438  0.0
H  H43  1  0.41848958  0.45972817  0.60014279  1  0.114476  4.8e-05  0.115838  0.138305  3.8e-05  0.991537  0.0
H  H44  1  0.59715215  0.36151071  0.32065290  1  0.038229  0.0  0.095207  0.143535  -6e-06  1.028807  0.0
H  H45  1  0.90284667  0.86151145  0.17934629  1  0.038219  0.0  0.095199  0.143525  -6e-06  1.028895  0.0
H  H46  1  0.40285141  0.63849274  0.67934896  1  0.03831  0.0  0.095218  0.143532  -6e-06  1.02883  0.0
H  H47  1  0.09715231  0.13848961  0.82065340  1  0.038235  0.0  0.095204  0.143529  -6e-06  1.028899  0.0
H  H48  1  0.66939887  0.42505327  0.27573056  1  0.079984  7e-06  0.093948  0.1382  4e-06  1.050093  0.0
H  H49  1  0.83060071  0.92505347  0.22426873  1  0.079993  7e-06  0.093947  0.138184  4e-06  1.050092  0.0
H  H50  1  0.33060470  0.57494779  0.72426990  1  0.080023  7e-06  0.093969  0.138218  4e-06  1.050104  0.0
H  H51  1  0.16939904  0.07494699  0.77573054  1  0.079999  7e-06  0.093953  0.138198  4e-06  1.050086  0.0
H  H52  1  0.72539916  0.33501521  0.30621004  1  0.069131  1e-06  0.1081  0.164985  1e-06  0.999464  0.0
H  H53  1  0.77459965  0.83501598  0.19378959  1  0.069125  1e-06  0.108098  0.164973  1e-06  0.99944  0.0
H  H54  1  0.27460363  0.66498705  0.69379176  1  0.069107  1e-06  0.108038  0.164873  1e-06  0.999471  0.0
H  H55  1  0.22539932  0.16498568  0.80621010  1  0.069073  1e-06  0.10809  0.164954  1e-06  0.999503  0.0
H  H56  1  0.52773501  0.23394461  0.13816105  1  0.100647  -1.5e-05  0.108421  0.125933  -2.7e-05  1.022989  0.0
H  H57  1  0.97226534  0.73394438  0.36183813  1  0.100661  -1.5e-05  0.108419  0.125942  -2.7e-05  1.022961  0.0
H  H58  1  0.47226779  0.76605645  0.86184028  1  0.100678  -1.5e-05  0.1084  0.125895  -2.7e-05  1.023003  0.0
H  H59  1  0.02773441  0.26605489  0.63816067  1  0.100668  -1.5e-05  0.108403  0.125917  -2.7e-05  1.023019  0.0
H  H60  1  0.49089754  0.32574047  0.10094507  1  0.056553  3.2e-05  0.102954  0.120182  4.3e-05  1.005036  0.0
H  H61  1  0.00910155  0.82574032  0.39905499  1  0.056528  3.2e-05  0.102956  0.120194  4.3e-05  1.005023  0.0
H  H62  1  0.50910448  0.67425999  0.89905668  1  0.056497  3.2e-05  0.102934  0.120132  4.3e-05  1.005042  0.0
H  H63  1  0.99089588  0.17425835  0.60094553  1  0.056545  3.2e-05  0.102957  0.120158  4.3e-05  1.005083  0.0
H  H64  1  0.40209317  0.27420630  0.14490906  1  0.057922  2e-06  0.108547  0.126404  2e-06  0.974715  0.0
H  H65  1  0.09790592  0.77420728  0.35509097  1  0.057952  2e-06  0.108559  0.126411  2e-06  0.974704  0.0
H  H66  1  0.59790886  0.72579417  0.85509223  1  0.05789  2e-06  0.108545  0.126355  2e-06  0.974737  0.0
H  H67  1  0.90209305  0.22579318  0.64490965  1  0.057921  2e-06  0.108521  0.12637  2e-06  0.974738  0.0
H  H68  1  0.48374993  0.41770250  0.26527860  1  0.055063  -3e-06  0.100369  0.117013  -7e-06  1.045053  0.0
H  H69  1  0.01624993  0.91770275  0.23472113  1  0.055059  -3e-06  0.100365  0.117004  -7e-06  1.045061  0.0
H  H70  1  0.51625058  0.58229856  0.73472166  1  0.055078  -3e-06  0.100383  0.117014  -7e-06  1.045107  0.0
H  H71  1  0.98374981  0.08229712  0.76527908  1  0.055052  -3e-06  0.100384  0.117047  -7e-06  1.045013  0.0
H  H72  1  0.37705989  0.36991444  0.22247774  1  0.099712  2e-06  0.10148  0.126573  3e-06  1.049149  0.0
H  H73  1  0.12294075  0.86991472  0.27752152  1  0.099705  2e-06  0.101475  0.126566  3e-06  1.049152  0.0
H  H74  1  0.62294215  0.63008603  0.77752261  1  0.099676  2e-06  0.101472  0.126564  3e-06  1.049146  0.0
H  H75  1  0.87705900  0.13008455  0.72247821  1  0.099698  2e-06  0.101494  0.126595  3e-06  1.049113  0.0
H  H76  1  0.45050062  0.44265695  0.18519602  1  0.032123  -8e-06  0.094464  0.109221  -1.7e-05  1.023539  0.0
H  H77  1  0.04950001  0.94265730  0.31480331  1  0.032117  -8e-06  0.094459  0.109212  -1.7e-05  1.023582  0.0
H  H78  1  0.54950065  0.55734351  0.81480475  1  0.032109  -8e-06  0.09447  0.109233  -1.7e-05  1.02354  0.0
H  H79  1  0.95050126  0.05734257  0.68519653  1  0.032109  -8e-06  0.09444  0.109183  -1.7e-05  1.023608  0.0
H  H80  1  0.96322178  0.37649020  0.69818479  1  0.068161  -5e-06  0.098253  0.14965  -1.3e-05  1.023076  0.0
H  H81  1  0.53677707  0.87649291  0.80181466  1  0.068163  -5e-06  0.098251  0.14962  -1.3e-05  1.023106  0.0
H  H82  1  0.03677641  0.62350728  0.30181671  1  0.068103  -5e-06  0.098222  0.149595  -1.3e-05  1.023118  0.0
H  H83  1  0.46322190  0.12350875  0.19818502  1  0.06816  -5e-06  0.098272  0.149667  -1.3e-05  1.02305  0.0
H  H84  1  0.89845359  0.44577928  0.74284880  1  0.067497  -1e-06  0.098912  0.151184  -5e-06  1.013444  0.0
H  H85  1  0.60154372  0.94578193  0.75715108  1  0.067612  -1e-06  0.098926  0.151213  -5e-06  1.013431  0.0
H  H86  1  0.10154613  0.55421939  0.25715234  1  0.067478  -1e-06  0.098933  0.151197  -5e-06  1.013421  0.0
H  H87  1  0.39845372  0.05422032  0.24284897  1  0.067486  -1e-06  0.098921  0.151203  -5e-06  1.013417  0.0
H  H88  1  0.82699159  0.36943270  0.70117068  1  0.077008  4e-06  0.103296  0.158867  4e-06  1.010843  0.0
H  H89  1  0.67300573  0.86943600  0.79882867  1  0.077063  4e-06  0.103264  0.158851  4e-06  1.010848  0.0
H  H90  1  0.17300660  0.63056597  0.29883129  1  0.076975  4e-06  0.103311  0.158915  4e-06  1.0108  0.0
H  H91  1  0.32699324  0.13056745  0.20117101  1  0.077032  4e-06  0.103319  0.158915  4e-06  1.010828  0.0
H  H92  1  0.97015142  0.21902550  0.86502598  1  0.062588  1.1e-05  0.105745  0.117684  -1e-05  1.032476  0.0
H  H93  1  0.52984896  0.71902622  0.63497533  1  0.062608  1.1e-05  0.105736  0.117669  -1e-05  1.032479  0.0
H  H94  1  0.02984985  0.78097258  0.13497526  1  0.062607  1.1e-05  0.105737  0.117661  -1e-05  1.032527  0.0
H  H95  1  0.47015308  0.28097365  0.36502549  1  0.06262  1.1e-05  0.105735  0.117666  -1e-05  1.032451  0.0
H  H96  1  0.98408597  0.30194757  0.91701710  1  0.077886  5.5e-05  0.104211  0.127287  7e-05  1.007556  0.0
H  H97  1  0.51591517  0.80194763  0.58298338  1  0.077882  5.5e-05  0.104215  0.127301  7e-05  1.00753  0.0
H  H98  1  0.01591528  0.69805050  0.08298507  1  0.077867  5.5e-05  0.104208  0.127302  7e-05  1.007581  0.0
H  H99  1  0.48408610  0.19805223  0.41701738  1  0.077879  5.5e-05  0.104216  0.12729  7.1e-05  1.007552  0.0
H  H100  1  0.09484311  0.26050031  0.88633383  1  0.08284  5e-06  0.109575  0.125957  3e-06  0.975092  0.0
H  H101  1  0.40515526  0.76049977  0.61366593  1  0.08283  5e-06  0.109578  0.125954  3e-06  0.975047  0.0
H  H102  1  0.90515816  0.73949896  0.11366694  1  0.082858  5e-06  0.109582  0.125972  3e-06  0.975123  0.0
H  H103  1  0.59484448  0.23949950  0.38633380  1  0.082806  5e-06  0.109561  0.125961  3e-06  0.975052  0.0
H  H104  1  0.06696053  0.42552844  0.77803218  1  0.052901  2e-06  0.102683  0.117694  1e-06  1.042768  0.0
H  H105  1  0.43303708  0.92552923  0.72196673  1  0.052676  2e-06  0.102694  0.117715  1e-06  1.04274  0.0
H  H106  1  0.93303844  0.57447023  0.22196797  1  0.052865  2e-06  0.102681  0.117697  1e-06  1.042719  0.0
H  H107  1  0.56696114  0.07447004  0.27803244  1  0.052704  2e-06  0.102692  0.117706  1e-06  1.0427  0.0
H  H108  1  0.15522852  0.34941007  0.80554604  1  0.13079  5e-06  0.101766  0.127261  6e-06  1.024531  0.0
H  H109  1  0.34476985  0.84941083  0.69445380  1  0.13078  5e-06  0.101758  0.127222  6e-06  1.024558  0.0
H  H110  1  0.84477122  0.65058920  0.19445463  1  0.130797  5e-06  0.101783  0.127302  6e-06  1.024498  0.0
H  H111  1  0.65522913  0.15058904  0.30554542  1  0.130788  5e-06  0.101766  0.127249  6e-06  1.024512  0.0
H  H112  1  0.10202834  0.41528090  0.85974991  1  0.047424  -1.1e-05  0.095929  0.106467  -2.4e-05  1.024651  0.0
H  H113  1  0.39797002  0.91528160  0.64024951  1  0.047384  -1.1e-05  0.095918  0.106421  -2.4e-05  1.024648  0.0
H  H114  1  0.89797139  0.58471897  0.14025076  1  0.047428  -1.1e-05  0.095905  0.106427  -2.4e-05  1.024664  0.0
H  H115  1  0.60202972  0.08471827  0.35975023  1  0.047397  -1.1e-05  0.095903  0.106394  -2.4e-05  1.024625  0.0
H  H116  1  0.02803787  0.22605151  0.09624647  1  0.604082  -6.9e-05  0.322705  0.405925  -3.1e-05  0.884624  0.0
H  H117  1  0.47196275  0.72605132  0.40375456  1  0.604075  -6.9e-05  0.322684  0.405877  -3.1e-05  0.884599  0.0
H  H118  1  0.97196263  0.77394836  0.90375378  1  0.604072  -6.9e-05  0.322682  0.40589  -3.1e-05  0.884592  0.0
H  H119  1  0.52803776  0.27394556  0.59624569  1  0.604102  -6.9e-05  0.322667  0.405903  -3.1e-05  0.884542  0.0
H  H120  1  0.93368402  0.20234466  0.04729368  1  0.656899  -5e-06  0.302054  0.397076  -7.6e-05  0.932788  0.0
H  H121  1  0.56631478  0.70234398  0.45270678  1  0.656715  -5e-06  0.302044  0.397046  -7.6e-05  0.932823  0.0
H  H122  1  0.06631648  0.79765580  0.95270657  1  0.656893  -5e-06  0.302043  0.397054  -7.5e-05  0.932812  0.0
H  H123  1  0.43368572  0.29765529  0.54729300  1  0.656731  -5e-06  0.302043  0.39708  -7.6e-05  0.932779  0.0
C  C124  1  0.37818205  0.92203823  0.89941940  1  -0.192542  0.007933  -0.025247  -0.134946  0.005581  3.983625  0.006
C  C125  1  0.12181324  0.42203960  0.60058075  1  -0.192861  0.007934  -0.025255  -0.134892  0.005581  3.983586  0.006
C  C126  1  0.62181539  0.07796164  0.10058018  1  -0.192569  0.007933  -0.025243  -0.134847  0.00558  3.983542  0.006
C  C127  1  0.87818341  0.57795967  0.39942065  1  -0.192878  0.007934  -0.025243  -0.134843  0.005581  3.983462  0.006
C  C128  1  0.47291744  0.94700528  0.92756945  1  -0.00516  -0.000884  -0.093186  -0.1067  -0.001001  3.99429  -0.001
C  C129  1  0.02707864  0.44700842  0.57242844  1  -0.005165  -0.000883  -0.093211  -0.106665  -0.001001  3.994234  -0.001
C  C130  1  0.52708157  0.05299518  0.07242697  1  -0.005258  -0.000884  -0.093218  -0.106753  -0.001001  3.994406  -0.001
C  C131  1  0.97292110  0.55299384  0.42757129  1  -0.005226  -0.000884  -0.09321  -0.106715  -0.001001  3.994219  -0.001
C  C132  1  0.51153931  0.01297771  0.89655226  1  0.001945  0.000332  -0.092847  -0.106146  0.000132  3.985098  0.0
C  C133  1  0.98845802  0.51298014  0.60344682  1  0.001983  0.000332  -0.092861  -0.106262  0.000132  3.985167  0.0
C  C134  1  0.48845816  0.98702216  0.10344359  1  0.002035  0.000332  -0.092796  -0.106174  0.000132  3.98513  0.0
C  C135  1  0.01154250  0.48702212  0.39655250  1  0.001995  0.000332  -0.092874  -0.106225  0.000132  3.985164  0.0
C  C136  1  0.44546291  0.03805641  0.84546149  1  -0.250879  -0.000667  -0.021354  -0.129846  -0.000797  3.958112  0.0
C  C137  1  0.05453701  0.53805835  0.65453727  1  -0.250667  -0.000667  -0.021362  -0.129682  -0.000797  3.957945  0.0
C  C138  1  0.55453380  0.96194346  0.15453478  1  -0.250788  -0.000667  -0.021399  -0.129727  -0.000797  3.957961  0.0
C  C139  1  0.94546581  0.46194331  0.34546173  1  -0.250658  -0.000667  -0.021338  -0.129738  -0.000797  3.958056  0.0
C  C140  1  0.31376017  0.85602708  0.91852953  1  1.574562  -0.001564  0.214073  0.607367  -0.002103  4.235758  -0.003
C  C141  1  0.18623744  0.35602842  0.58146979  1  1.574617  -0.001564  0.214135  0.607448  -0.002103  4.235884  -0.003
C  C142  1  0.68623879  0.14397279  0.08147156  1  1.57457  -0.001564  0.214178  0.607462  -0.002103  4.235697  -0.003
C  C143  1  0.81376077  0.64397144  0.41853031  1  1.574572  -0.001564  0.214132  0.607398  -0.002103  4.235833  -0.003
C  C144  1  0.46382164  0.10618730  0.80356763  1  1.623986  0.00024  0.225393  0.634708  0.000152  4.225934  0.0
C  C145  1  0.03617752  0.60618810  0.69643067  1  1.62464  0.00024  0.225367  0.634646  0.000152  4.225943  0.0
C  C146  1  0.53617200  0.89381435  0.19642844  1  1.624887  0.00024  0.225314  0.634576  0.000152  4.22609  0.0
C  C147  1  0.96382376  0.39381237  0.30356870  1  1.624649  0.00024  0.225304  0.634551  0.000152  4.226097  0.0
C  C148  1  0.15715846  0.54637935  0.09789491  1  -0.184695  0.007182  -0.022233  -0.128196  0.00501  3.9728  0.005
C  C149  1  0.34284294  0.04638048  0.40210556  1  -0.184478  0.007182  -0.022208  -0.128064  0.00501  3.972619  0.005
C  C150  1  0.84284050  0.45361932  0.90210711  1  -0.185162  0.007182  -0.022287  -0.12814  0.00501  3.972845  0.005
C  C151  1  0.65715834  0.95361998  0.59789381  1  -0.185018  0.007183  -0.022216  -0.128028  0.00501  3.972676  0.005
C  C152  1  0.06153722  0.51671108  0.07514385  1  -0.042616  -0.000876  -0.094631  -0.10808  -0.000986  3.984664  -0.001
C  C153  1  0.43846649  0.01671104  0.42485581  1  -0.042597  -0.000876  -0.094702  -0.108298  -0.000986  3.984836  -0.001
C  C154  1  0.93846174  0.48328879  0.92485724  1  -0.042275  -0.000876  -0.094631  -0.108176  -0.000986  3.984659  -0.001
C  C155  1  0.56153711  0.98328943  0.57514137  1  -0.042181  -0.000876  -0.094698  -0.108255  -0.000986  3.984782  -0.001
C  C156  1  0.03790051  0.44395362  0.10378510  1  -0.003208  0.000299  -0.086421  -0.100886  0.00013  3.946336  0.0
C  C157  1  0.46210165  0.94395463  0.39621479  1  -0.003187  0.000299  -0.086376  -0.100756  0.00013  3.946177  0.0
C  C158  1  0.96209922  0.55604565  0.89621604  1  -0.003128  0.000299  -0.086392  -0.100774  0.00013  3.946182  0.0
C  C159  1  0.53790118  0.05604584  0.60378281  1  -0.00313  0.000299  -0.086404  -0.100827  0.00013  3.946277  0.0
C  C160  1  0.11678544  0.41914787  0.14779809  1  -0.232183  -0.000578  -0.021269  -0.129134  -0.000704  3.964284  0.0
C  C161  1  0.38321673  0.91914763  0.35220132  1  -0.232191  -0.000579  -0.021333  -0.129252  -0.000704  3.964199  0.0
C  C162  1  0.88321507  0.58085140  0.85220217  1  -0.23218  -0.000578  -0.021322  -0.129269  -0.000704  3.964395  0.0
C  C163  1  0.61678532  0.08085104  0.64779763  1  -0.232145  -0.000578  -0.021327  -0.129294  -0.000704  3.964484  0.0
C  C164  1  0.20886129  0.61962659  0.07897713  1  1.57449  -0.000401  0.213006  0.599616  -0.000545  4.233957  -0.002
C  C165  1  0.29113932  0.11962774  0.42102475  1  1.574313  -0.000401  0.213002  0.599358  -0.000545  4.233999  -0.002
C  C166  1  0.79113842  0.38037149  0.92102588  1  1.574492  -0.000402  0.213054  0.599465  -0.000545  4.234091  -0.002
C  C167  1  0.70886347  0.88037212  0.57897659  1  1.574575  -0.000402  0.213003  0.599431  -0.000545  4.234193  -0.002
C  C168  1  0.12556012  0.34751391  0.18802382  1  1.571159  0.000158  0.206901  0.603921  9.1e-05  4.253686  0.0
C  C169  1  0.37443898  0.84751482  0.31197533  1  1.571162  0.000158  0.206831  0.603788  9.1e-05  4.253686  0.0
C  C170  1  0.87444039  0.65248536  0.81197597  1  1.571167  0.000158  0.206947  0.603953  9.1e-05  4.253668  0.0
C  C171  1  0.62556153  0.15248505  0.68802398  1  1.571262  0.000158  0.206964  0.60399  9.1e-05  4.253692  0.0
C  C172  1  0.35210672  0.54557649  0.89910852  1  -0.213504  0.008245  -0.023527  -0.131395  0.005726  3.974592  0.006
C  C173  1  0.14789244  0.04557607  0.60089019  1  -0.213505  0.008245  -0.023553  -0.131515  0.005726  3.974703  0.006
C  C174  1  0.64789456  0.45442457  0.10089131  1  -0.213467  0.008246  -0.023496  -0.131363  0.005727  3.974675  0.006
C  C175  1  0.85210501  0.95442320  0.39910893  1  -0.213553  0.008245  -0.023493  -0.131413  0.005726  3.974583  0.006
C  C176  1  0.44704181  0.51981507  0.92641181  1  -0.044266  -0.000968  -0.095995  -0.114066  -0.001093  4.001726  -0.001
C  C177  1  0.05295812  0.01981642  0.57358647  1  -0.044217  -0.000968  -0.096026  -0.114068  -0.001093  4.001706  -0.001
C  C178  1  0.55295870  0.48018300  0.07358798  1  -0.044304  -0.000968  -0.096066  -0.114124  -0.001093  4.001736  -0.001
C  C179  1  0.94704087  0.98018165  0.42641228  1  -0.044334  -0.000968  -0.096017  -0.114035  -0.001093  4.001603  -0.001
C  C180  1  0.47747730  0.44669622  0.90146171  1  -0.005394  0.000364  -0.088789  -0.104955  0.000157  3.964969  0.0
C  C181  1  0.02252261  0.94669630  0.59853643  1  -0.005477  0.000364  -0.088772  -0.105001  0.000157  3.964944  0.0
C  C182  1  0.52252397  0.55330424  0.09853859  1  -0.005474  0.000364  -0.088749  -0.104982  0.000157  3.964861  0.0
C  C183  1  0.97747408  0.05330237  0.40146124  1  -0.00528  0.000364  -0.088768  -0.104994  0.000157  3.965013  0.0
C  C184  1  0.40464775  0.41735883  0.85553411  1  -0.197116  -0.000697  -0.018676  -0.126003  -0.000832  3.95042  0.0
C  C185  1  0.09535063  0.91735836  0.64446437  1  -0.196946  -0.000696  -0.018619  -0.12593  -0.000832  3.950243  0.0
C  C186  1  0.59535583  0.58264223  0.14446587  1  -0.196926  -0.000696  -0.01866  -0.125914  -0.000832  3.950331  0.0
C  C187  1  0.90464605  0.08264091  0.35553423  1  -0.19713  -0.000696  -0.018661  -0.125923  -0.000832  3.950342  0.0
C  C188  1  0.29498153  0.61690707  0.91623142  1  1.593608  -0.000621  0.215536  0.608481  -0.000763  4.2279  -0.002
C  C189  1  0.20501762  0.11690662  0.58376735  1  1.593406  -0.000618  0.215581  0.608591  -0.000763  4.227674  -0.002
C  C190  1  0.70501820  0.38309280  0.08376925  1  1.593555  -0.000621  0.215562  0.608549  -0.000762  4.227777  -0.002
C  C191  1  0.79498137  0.88309205  0.41623093  1  1.593663  -0.000621  0.215554  0.608504  -0.000763  4.22778  -0.002
C  C192  1  0.40867633  0.34194343  0.81999316  1  1.585955  0.000227  0.222423  0.63478  0.000138  4.236236  0.0
C  C193  1  0.09132204  0.84194360  0.68000667  1  1.585955  0.000227  0.222377  0.634731  0.000138  4.236228  0.0
C  C194  1  0.59132878  0.65805823  0.18000739  1  1.585517  0.000227  0.222349  0.63461  0.000138  4.236434  0.0
C  C195  1  0.90867541  0.15805627  0.31999245  1  1.585622  0.000227  0.222469  0.634791  0.000138  4.236187  0.0
C  C196  1  0.12540150  0.92219184  0.09462905  1  -0.227787  0.006374  -0.024974  -0.143197  0.004469  3.990574  0.005
C  C197  1  0.37459835  0.42219476  0.40537114  1  -0.228149  0.006376  -0.025026  -0.143063  0.004469  3.99055  0.005
C  C198  1  0.87459669  0.07780803  0.90537245  1  -0.227735  0.006374  -0.024991  -0.143219  0.004469  3.990521  0.005
C  C199  1  0.62540140  0.57780331  0.59462719  1  -0.228009  0.006375  -0.025027  -0.143103  0.004469  3.990567  0.005
C  C200  1  0.02661873  0.94634119  0.07316017  1  0.010564  -0.000543  -0.096362  -0.111486  -0.000624  4.011894  0.0
C  C201  1  0.47338033  0.44634174  0.42684233  1  0.010565  -0.000544  -0.096297  -0.111531  -0.000624  4.011984  0.0
C  C202  1  0.97338176  0.05365868  0.92684149  1  0.010543  -0.000543  -0.096334  -0.11145  -0.000624  4.01184  0.0
C  C203  1  0.52662019  0.55365394  0.57315605  1  0.010637  -0.000544  -0.096348  -0.111542  -0.000624  4.012118  0.0
C  C204  1  0.99340216  0.01165123  0.10744404  1  -0.024895  0.000252  -0.09558  -0.113513  0.000111  3.989272  0.0
C  C205  1  0.50659818  0.51164988  0.39255684  1  -0.024985  0.000252  -0.095568  -0.113455  0.000111  3.989222  0.0
C  C206  1  0.00659758  0.98834804  0.89255570  1  -0.024839  0.000252  -0.095566  -0.113523  0.000111  3.989259  0.0
C  C207  1  0.49340079  0.48834640  0.60744331  1  -0.02497  0.000252  -0.095563  -0.113625  0.000111  3.989605  0.0
C  C208  1  0.06837340  0.03738525  0.15361966  1  -0.221127  -0.000384  -0.023133  -0.137002  -0.000478  3.976878  0.0
C  C209  1  0.43163415  0.53738202  0.34637886  1  -0.221149  -0.000384  -0.023054  -0.136825  -0.000478  3.976711  0.0
C  C210  1  0.93162941  0.96261700  0.84637934  1  -0.22121  -0.000384  -0.023093  -0.136875  -0.000478  3.976931  0.0
C  C211  1  0.56836867  0.46261725  0.65362014  1  -0.221165  -0.000384  -0.023084  -0.136739  -0.000478  3.976897  0.0
C  C212  1  0.18478231  0.85456800  0.07315405  1  1.58867  -0.001371  0.2194  0.615692  -0.001824  4.223269  -0.003
C  C213  1  0.31521756  0.35456856  0.42684562  1  1.588673  -0.001371  0.219321  0.615539  -0.001823  4.22338  -0.003
C  C214  1  0.81521666  0.14543127  0.92684656  1  1.588654  -0.001371  0.219454  0.615719  -0.001823  4.223223  -0.003
C  C215  1  0.68478296  0.64542951  0.57315276  1  1.588633  -0.001371  0.219419  0.615644  -0.001824  4.223299  -0.003
C  C216  1  0.05948402  0.10538181  0.19717361  1  1.62552  0.000176  0.21888  0.621946  0.000112  4.251113  0.0
C  C217  1  0.44051893  0.60537971  0.30282514  1  1.625288  0.000176  0.218862  0.621928  0.000112  4.251096  0.0
C  C218  1  0.94051956  0.89462104  0.80282684  1  1.626118  0.000176  0.218871  0.621978  0.000112  4.251051  0.0
C  C219  1  0.55948005  0.39462135  0.69717361  1  1.625424  0.000176  0.218845  0.621821  0.000112  4.251064  0.0
C  C220  1  0.61744783  0.31846922  0.22659571  1  1.376529  2.3e-05  0.249097  0.528338  1.7e-05  4.036138  0.0
C  C221  1  0.88255484  0.81847067  0.27340229  1  1.376391  2.3e-05  0.249077  0.528361  1.7e-05  4.036081  0.0
C  C222  1  0.38255343  0.68153125  0.77340599  1  1.376626  2.3e-05  0.249048  0.528191  1.7e-05  4.036109  0.0
C  C223  1  0.11744722  0.18153099  0.72659573  1  1.376546  2.3e-05  0.24907  0.528383  1.7e-05  4.036105  0.0
C  C224  1  0.65361250  0.36225371  0.28619769  1  -0.069085  2e-06  -0.241595  -0.523877  1e-06  3.929586  0.0
C  C225  1  0.84638708  0.86225330  0.21380154  1  -0.069006  2e-06  -0.241583  -0.523851  1e-06  3.929656  0.0
C  C226  1  0.34638954  0.63774735  0.71380266  1  -0.069274  2e-06  -0.241557  -0.523753  1e-06  3.929503  0.0
C  C227  1  0.15361266  0.13774716  0.78619819  1  -0.06905  2e-06  -0.241585  -0.523857  1e-06  3.929634  0.0
C  C228  1  0.48335724  0.28853273  0.14257876  1  0.250543  1.9e-05  -0.133185  -0.260968  -4e-06  3.879655  0.0
C  C229  1  0.01664186  0.78853432  0.35742081  1  0.250587  1.9e-05  -0.133164  -0.260952  -4e-06  3.879565  0.0
C  C230  1  0.51664403  0.71146773  0.85742248  1  0.250521  1.9e-05  -0.133148  -0.260878  -4e-06  3.879681  0.0
C  C231  1  0.98335711  0.21146674  0.64257887  1  0.250545  1.9e-05  -0.133152  -0.260874  -4e-06  3.879685  0.0
C  C232  1  0.45453882  0.39353340  0.21959907  1  0.291525  -2e-06  -0.144977  -0.290191  -8e-06  3.905029  0.0
C  C233  1  0.04546104  0.89353311  0.28040063  1  0.291554  -2e-06  -0.144975  -0.290174  -8e-06  3.905064  0.0
C  C234  1  0.54546245  0.60646766  0.78040123  1  0.291577  -2e-06  -0.14498  -0.290246  -8e-06  3.905075  0.0
C  C235  1  0.95453793  0.10646616  0.71959952  1  0.291534  -2e-06  -0.144968  -0.290169  -8e-06  3.905013  0.0
C  C236  1  0.91263976  0.32811627  0.78414134  1  1.355899  2.2e-05  0.25307  0.536488  1.6e-05  4.023796  0.0
C  C237  1  0.58735908  0.82811768  0.71585901  1  1.355855  2.2e-05  0.253071  0.536451  1.6e-05  4.023756  0.0
C  C238  1  0.08736150  0.67188300  0.21585990  1  1.355912  2.2e-05  0.2531  0.536463  1.6e-05  4.023892  0.0
C  C239  1  0.41263990  0.17188338  0.28414067  1  1.355878  2.2e-05  0.25304  0.536385  1.6e-05  4.023966  0.0
C  C240  1  0.90038666  0.38295521  0.72807268  1  -0.081449  -4e-06  -0.238357  -0.522283  -8e-06  3.914562  0.0
C  C241  1  0.59961142  0.88295789  0.77192720  1  -0.081658  -4e-06  -0.238321  -0.522241  -8e-06  3.914539  0.0
C  C242  1  0.09961153  0.61704406  0.27192882  1  -0.081423  -4e-06  -0.238342  -0.522251  -8e-06  3.914445  0.0
C  C243  1  0.40038756  0.11704437  0.22807249  1  -0.081481  -4e-06  -0.238396  -0.522333  -8e-06  3.914512  0.0
C  C244  1  0.01316652  0.27415779  0.87570940  1  0.230691  7.9e-05  -0.135706  -0.267559  3.2e-05  3.886828  0.0
C  C245  1  0.48683261  0.77415845  0.62429089  1  0.230716  7.9e-05  -0.135689  -0.267534  3.2e-05  3.886755  0.0
C  C246  1  0.98683398  0.72584089  0.12429132  1  0.230733  7.9e-05  -0.135666  -0.267508  3.2e-05  3.886893  0.0
C  C247  1  0.51316789  0.22584141  0.37570983  1  0.230719  7.9e-05  -0.135662  -0.267501  3.2e-05  3.886764  0.0
C  C248  1  0.08594303  0.38216271  0.81551356  1  0.254215  -1e-06  -0.142248  -0.292512  -9e-06  3.93714  0.0
C  C249  1  0.41405457  0.88216405  0.68448578  1  0.254462  -1e-06  -0.142251  -0.292458  -9e-06  3.937218  0.0
C  C250  1  0.91405594  0.61783656  0.18448705  1  0.254201  -1e-06  -0.142258  -0.292536  -9e-06  3.937142  0.0
C  C251  1  0.58594441  0.11783582  0.31551344  1  0.254382  -1e-06  -0.142237  -0.292406  -9e-06  3.937061  0.0
S  S252  1  0.33683266  0.98000872  0.83532839  1  0.283859  0.002457  0.125934  0.183237  0.001494  2.92995  0.002
S  S253  1  0.16316802  0.48000957  0.66466982  1  0.284028  0.002456  0.125945  0.183166  0.001494  2.929924  0.002
S  S254  1  0.66316403  0.01999175  0.16466927  1  0.283749  0.002457  0.125905  0.183127  0.001494  2.929934  0.002
S  S255  1  0.83683326  0.51999089  0.33532954  1  0.284043  0.002457  0.125944  0.183198  0.001494  2.929859  0.002
S  S256  1  0.21791511  0.48535912  0.15437708  1  0.307304  0.002356  0.131109  0.196277  0.001445  2.937809  0.002
S  S257  1  0.28208629  0.98535829  0.34562186  1  0.307204  0.002356  0.131151  0.196344  0.001445  2.937703  0.002
S  S258  1  0.78208462  0.51464134  0.84562358  1  0.307334  0.002356  0.131157  0.196345  0.001445  2.937855  0.002
S  S259  1  0.71791577  0.01464039  0.65437616  1  0.30716  0.002356  0.131148  0.196319  0.001445  2.937858  0.002
S  S260  1  0.30126579  0.48060696  0.84216208  1  0.294615  0.002821  0.13202  0.195049  0.001749  2.95536  0.002
S  S261  1  0.19873334  0.98060769  0.65783790  1  0.294532  0.002821  0.132029  0.195088  0.001749  2.955289  0.002
S  S262  1  0.69873394  0.51939112  0.15783859  1  0.294596  0.002821  0.132042  0.195057  0.001749  2.955407  0.002
S  S263  1  0.80126640  0.01939158  0.34216183  1  0.294611  0.002821  0.132026  0.195053  0.001749  2.955335  0.002
S  S264  1  0.17791288  0.98065517  0.15584280  1  0.298352  0.001775  0.138999  0.207473  0.001046  2.904497  0.001
S  S265  1  0.32208931  0.48065682  0.34415432  1  0.298761  0.001776  0.138987  0.20736  0.001046  2.904381  0.001
S  S266  1  0.82208917  0.01934291  0.84415662  1  0.298392  0.001776  0.138969  0.207431  0.001046  2.904505  0.001
S  S267  1  0.67791044  0.51934364  0.65584495  1  0.298779  0.001776  0.138973  0.207354  0.001046  2.904522  0.001
N  N268  1  0.52118137  0.33061616  0.19996980  1  -1.199832  1e-05  -0.278802  -0.022139  2e-06  3.646859  0.0
N  N269  1  0.97881744  0.83061644  0.30002982  1  -1.199895  1e-05  -0.27873  -0.02208  2e-06  3.646847  0.0
N  N270  1  0.47882065  0.66938490  0.80003195  1  -1.199762  1e-05  -0.278755  -0.021957  2e-06  3.646774  0.0
N  N271  1  0.02118077  0.16938342  0.69996981  1  -1.199843  1e-05  -0.278781  -0.022196  2e-06  3.646842  0.0
N  N272  1  0.00136474  0.32733509  0.82143343  1  -1.187708  1.8e-05  -0.278637  -0.020272  4e-06  3.650839  0.0
N  N273  1  0.49863286  0.82733701  0.67856681  1  -1.187715  1.8e-05  -0.27862  -0.020259  4e-06  3.650809  0.0
N  N274  1  0.99863499  0.67266359  0.17856771  1  -1.187686  1.8e-05  -0.278658  -0.020294  4e-06  3.65077  0.0
N  N275  1  0.50136535  0.17266405  0.32143330  1  -1.187633  1.8e-05  -0.278659  -0.020328  4e-06  3.650936  0.0
O  O276  1  0.34507144  0.82066793  0.97003528  1  -1.092562  0.104213  -0.313188  -0.517767  0.066241  2.285882  0.094
O  O277  1  0.15493001  0.32066982  0.52996333  1  -1.092563  0.104206  -0.313193  -0.517812  0.066238  2.285926  0.094
O  O278  1  0.65493060  0.17933253  0.02996507  1  -1.092536  0.104218  -0.31323  -0.517893  0.066245  2.285866  0.094
O  O279  1  0.84507204  0.67932826  0.47003609  1  -1.092558  0.104215  -0.313204  -0.517783  0.066242  2.285942  0.094
O  O280  1  0.95803255  0.23989828  0.08092145  1  -1.246718  -0.000329  -0.604026  -0.811702  -0.000532  2.074036  0.0
O  O281  1  0.54196777  0.73989994  0.41908101  1  -1.246544  -0.000329  -0.603985  -0.811602  -0.000531  2.074044  0.0
O  O282  1  0.04196717  0.76009920  0.91908109  1  -1.246718  -0.000329  -0.603976  -0.811616  -0.000531  2.074004  0.0
O  O283  1  0.45803273  0.26009873  0.58091925  1  -1.246577  -0.000329  -0.603959  -0.811643  -0.000532  2.07394  0.0
O  O284  1  0.23201906  0.83876259  0.88419873  1  -1.215842  0.000687  -0.391609  -0.650438  -0.000576  2.334496  0.001
O  O285  1  0.26797776  0.33876277  0.61580240  1  -1.215816  0.000687  -0.391644  -0.650509  -0.000576  2.334529  0.001
O  O286  1  0.76797836  0.16123848  0.11580272  1  -1.215848  0.000687  -0.391662  -0.650452  -0.000576  2.334541  0.001
O  O287  1  0.73201967  0.66123889  0.38419859  1  -1.215818  0.000688  -0.391646  -0.650503  -0.000575  2.334472  0.001
O  O288  1  0.55272789  0.13667683  0.81264689  1  -1.193246  0.000419  -0.38905  -0.620688  0.000246  2.319929  0.0
O  O289  1  0.94727250  0.63667758  0.68735248  1  -1.193247  0.000418  -0.389058  -0.620706  0.000246  2.31994  0.0
O  O290  1  0.44726653  0.86332662  0.18734783  1  -1.193447  0.000418  -0.389025  -0.620674  0.000246  2.319973  0.0
O  O291  1  0.05272877  0.36332348  0.31264735  1  -1.193285  0.000419  -0.389047  -0.620624  0.000246  2.319986  0.0
O  O292  1  0.39196512  0.12858183  0.76264556  1  -1.205275  4.6e-05  -0.3774  -0.63817  1.3e-05  2.226248  0.0
O  O293  1  0.10803326  0.62858326  0.73735411  1  -1.205921  4.6e-05  -0.377369  -0.638154  1.3e-05  2.226211  0.0
O  O294  1  0.60802929  0.87141804  0.23735056  1  -1.205738  4.6e-05  -0.377293  -0.638032  1.3e-05  2.226216  0.0
O  O295  1  0.89196726  0.37141780  0.26264521  1  -1.20591  4.6e-05  -0.377335  -0.63812  1.3e-05  2.226254  0.0
O  O296  1  0.16654485  0.65577116  0.03031727  1  -1.101959  0.090188  -0.309861  -0.518948  0.057478  2.319227  0.081
O  O297  1  0.33345652  0.15577238  0.46968609  1  -1.101912  0.090188  -0.30989  -0.51887  0.05748  2.319226  0.081
O  O298  1  0.83345717  0.34422811  0.96968542  1  -1.102132  0.090182  -0.309878  -0.51888  0.057475  2.319278  0.081
O  O299  1  0.66654473  0.84422988  0.53031655  1  -1.102065  0.09019  -0.309881  -0.518926  0.057479  2.31932  0.081
O  O300  1  0.29109870  0.64201039  0.11084986  1  -1.207575  0.001075  -0.380342  -0.654767  -0.000196  2.318927  0.001
O  O301  1  0.20890039  0.14201271  0.38915147  1  -1.207529  0.001074  -0.380345  -0.654673  -0.000196  2.318841  0.001
O  O302  1  0.70889872  0.35798888  0.88915206  1  -1.207558  0.001075  -0.380347  -0.654709  -0.000196  2.318861  0.001
O  O303  1  0.79110243  0.85798775  0.61084753  1  -1.20763  0.001075  -0.380315  -0.654663  -0.000196  2.318935  0.001
O  O304  1  0.20982899  0.33659200  0.22222665  1  -1.181798  2.1e-05  -0.370414  -0.606831  -1.7e-05  2.23897  0.0
O  O305  1  0.29017241  0.83659049  0.27777311  1  -1.181797  2.1e-05  -0.370412  -0.606764  -1.7e-05  2.238977  0.0
O  O306  1  0.79017228  0.66340906  0.77777365  1  -1.181784  2.1e-05  -0.370435  -0.606872  -1.7e-05  2.239068  0.0
O  O307  1  0.70982885  0.16340759  0.72222859  1  -1.181813  2.1e-05  -0.370436  -0.606838  -1.7e-05  2.238925  0.0
O  O308  1  0.05021893  0.29886160  0.18857910  1  -1.21216  0.000172  -0.382293  -0.662175  0.000102  2.34607  0.0
O  O309  1  0.44978093  0.79886011  0.31142100  1  -1.212155  0.000172  -0.382274  -0.662152  0.000102  2.346067  0.0
O  O310  1  0.94978157  0.70113827  0.81142162  1  -1.212155  0.000172  -0.38231  -0.662138  0.000102  2.346022  0.0
O  O311  1  0.55021958  0.20113737  0.68857878  1  -1.212193  0.000172  -0.382326  -0.662205  0.000102  2.346061  0.0
O  O312  1  0.21093557  0.63548794  0.88462081  1  -1.211429  0.000728  -0.385456  -0.651579  -0.000492  2.288446  0.001
O  O313  1  0.28906204  0.13548872  0.61537928  1  -1.211375  0.000728  -0.385454  -0.651577  -0.000492  2.288334  0.001
O  O314  1  0.78906339  0.36451133  0.11538075  1  -1.211481  0.000728  -0.385513  -0.651643  -0.000491  2.288367  0.001
O  O315  1  0.71093388  0.86451114  0.38461927  1  -1.211483  0.000729  -0.385519  -0.651617  -0.000491  2.288437  0.001
O  O316  1  0.33637452  0.65521864  0.96411605  1  -1.095886  0.099794  -0.310506  -0.52004  0.063269  2.315106  0.09
O  O317  1  0.16362385  0.15522113  0.53588410  1  -1.095722  0.099795  -0.310528  -0.520098  0.063272  2.315069  0.09
O  O318  1  0.66362597  0.34478063  0.03588607  1  -1.095926  0.099789  -0.310484  -0.520042  0.063266  2.315084  0.09
O  O319  1  0.83637514  0.84477933  0.46411372  1  -1.09593  0.099788  -0.310498  -0.520027  0.063265  2.315023  0.09
O  O320  1  0.33051438  0.32106178  0.78353126  1  -1.190924  -1.1e-05  -0.368958  -0.619386  -4e-05  2.227503  0.0
O  O321  1  0.16948398  0.82106378  0.71646902  1  -1.190887  -1.1e-05  -0.368954  -0.619369  -4e-05  2.22749  0.0
O  O322  1  0.66949148  0.67894167  0.21647028  1  -1.190684  -1.1e-05  -0.368939  -0.619346  -4e-05  2.227695  0.0
O  O323  1  0.83051345  0.17894026  0.28353103  1  -1.190629  -1.1e-05  -0.369016  -0.619456  -4e-05  2.227522  0.0
O  O324  1  0.49172011  0.30179165  0.82790661  1  -1.212737  0.000308  -0.403142  -0.644328  0.000163  2.297798  0.0
O  O325  1  0.00827824  0.80179361  0.67209552  1  -1.212734  0.000308  -0.403122  -0.644311  0.000163  2.297886  0.0
O  O326  1  0.50828500  0.69820702  0.17209347  1  -1.212619  0.000308  -0.403078  -0.644238  0.000163  2.2977  0.0
O  O327  1  0.99171767  0.19820805  0.32790443  1  -1.21268  0.000308  -0.403107  -0.644311  0.000163  2.297721  0.0
O  O328  1  0.15548406  0.82405395  0.01920460  1  -1.127367  0.085588  -0.310388  -0.539971  0.055057  2.350336  0.077
O  O329  1  0.34451658  0.32405518  0.48079323  1  -1.127329  0.085586  -0.310331  -0.539927  0.055055  2.350431  0.077
O  O330  1  0.84451413  0.17594532  0.98079644  1  -1.127397  0.085592  -0.310446  -0.540019  0.055059  2.350281  0.077
O  O331  1  0.65548395  0.67594409  0.51920422  1  -1.12735  0.085588  -0.310405  -0.539982  0.055056  2.350348  0.077
O  O332  1  0.26190042  0.82972282  0.10800915  1  -1.20132  0.000665  -0.37735  -0.638518  -0.000454  2.332637  0.001
O  O333  1  0.23809868  0.32972335  0.39199093  1  -1.201327  0.000666  -0.377338  -0.638503  -0.000453  2.332565  0.001
O  O334  1  0.73809856  0.17027585  0.89199101  1  -1.201314  0.000665  -0.377366  -0.638531  -0.000454  2.332602  0.001
O  O335  1  0.76189874  0.67027413  0.60801100  1  -1.201379  0.000666  -0.37733  -0.638479  -0.000453  2.332569  0.001
O  O336  1  0.13927810  0.12744787  0.23196882  1  -1.200696  7e-05  -0.377087  -0.630593  3.3e-05  2.230699  0.0
O  O337  1  0.36072559  0.62744693  0.26803186  1  -1.200362  7e-05  -0.377045  -0.630612  3.3e-05  2.230893  0.0
O  O338  1  0.86072315  0.87255320  0.76803335  1  -1.201243  7e-05  -0.377084  -0.630668  3.3e-05  2.230664  0.0
O  O339  1  0.63927491  0.37255055  0.73196886  1  -1.200501  7e-05  -0.377066  -0.630575  3.3e-05  2.230617  0.0
O  O340  1  0.97134804  0.13699479  0.19580847  1  -1.201941  0.000347  -0.385148  -0.631714  0.000225  2.33719  0.0
O  O341  1  0.52865844  0.63699392  0.30419198  1  -1.202001  0.000347  -0.3852  -0.631774  0.000225  2.337084  0.0
O  O342  1  0.02865246  0.86300448  0.80419272  1  -1.201951  0.000347  -0.385159  -0.631749  0.000225  2.337235  0.0
O  O343  1  0.47134668  0.36300654  0.69580671  1  -1.201978  0.000347  -0.385148  -0.63168  0.000225  2.337177  0.0
O  O344  1  0.67681750  0.27095292  0.20203317  1  -1.201578  -3.4e-05  -0.363603  -0.582185  -3e-05  2.259361  0.0
O  O345  1  0.82318054  0.77095381  0.29796683  1  -1.201499  -3.4e-05  -0.363641  -0.582265  -3e-05  2.259228  0.0
O  O346  1  0.32318299  0.72904575  0.79796802  1  -1.201587  -3.4e-05  -0.363604  -0.582139  -3e-05  2.259407  0.0
O  O347  1  0.17681614  0.22904665  0.70203270  1  -1.20157  -3.4e-05  -0.363589  -0.582191  -3e-05  2.259395  0.0
O  O348  1  0.84019966  0.28243904  0.79604873  1  -1.196965  -2.2e-05  -0.375636  -0.58982  -1.9e-05  2.276021  0.0
O  O349  1  0.65979842  0.78244102  0.70395107  1  -1.19684  -2.2e-05  -0.375673  -0.589802  -1.9e-05  2.275977  0.0
O  O350  1  0.15979698  0.71755964  0.20395454  1  -1.196937  -2.2e-05  -0.375692  -0.589842  -1.9e-05  2.276161  0.0
O  O351  1  0.34020210  0.21756183  0.29604778  1  -1.196951  -2.2e-05  -0.375617  -0.589759  -1.9e-05  2.276091  0.0
