# generated using pymatgen
data_H27Pb2C18NO8
_symmetry_space_group_name_H-M   'P 1'
_cell_length_a   12.12127008
_cell_length_b   19.22049220
_cell_length_c   19.22056015
_cell_angle_alpha   90.00188464
_cell_angle_beta   89.99758283
_cell_angle_gamma   90.00107466
_symmetry_Int_Tables_number   1
_chemical_formula_structural   H27Pb2C18NO8
_chemical_formula_sum   'H216 Pb16 C144 N8 O64'
_cell_volume   4477.94415293
_cell_formula_units_Z   8
loop_
 _symmetry_equiv_pos_site_id
 _symmetry_equiv_pos_as_xyz
  1  'x, y, z'
loop_
 _atom_site_type_symbol
 _atom_site_label
 _atom_site_symmetry_multiplicity
 _atom_site_fract_x
 _atom_site_fract_y
 _atom_site_fract_z
 _atom_site_occupancy
 _atom_site_pbe_bader_charge
 _atom_site_pbe_bader_spin_density
 _atom_site_pbe_cm5_charge
 _atom_site_pbe_ddec_charge
 _atom_site_pbe_ddec_spin_density
 _atom_site_pbe_ddec_sum_bond_order
 _atom_site_pbe_magmom
H  H0  1  0.57717145  0.00040477  0.61429544  1  0.063389  0  0.104792  0.086942  0  0.987573  0
H  H1  1  0.42278948  0.61433463  0.99957732  1  0.063739  0  0.104959  0.087244  0  0.987084  0
H  H2  1  0.92280850  0.50041252  0.88569803  1  0.063346  0  0.104795  0.087023  0  0.987317  0
H  H3  1  0.57719313  0.99958093  0.38570095  1  0.063334  0  0.104799  0.087022  0  0.987334  0
H  H4  1  0.07718969  0.88572168  0.49957911  1  0.063309  0  0.104838  0.086948  0  0.987169  0
H  H5  1  0.42283187  0.38566641  0.00040393  1  0.063483  0  0.104873  0.087082  0  0.987421  0
H  H6  1  0.92277984  0.49957363  0.11431519  1  0.063625  0  0.104877  0.087097  0  0.987162  0
H  H7  1  0.07719387  0.11430805  0.50041707  1  0.063506  0  0.104834  0.087043  0  0.987221  0
H  H8  1  0.41474416  0.05357774  0.67514894  1  0.046975  0  0.092027  0.089032  0  1.010511  0
H  H9  1  0.58523471  0.67516615  0.94641382  1  0.047168  0  0.092029  0.089065  0  1.010646  0
H  H10  1  0.08526048  0.55357482  0.82485646  1  0.047136  0  0.09204  0.089061  0  1.010636  0
H  H11  1  0.41477905  0.94640760  0.32482680  1  0.051393  0  0.092017  0.088987  0  1.0105  0
H  H12  1  0.91477606  0.82483814  0.44641346  1  0.047404  0  0.092042  0.089089  0  1.010476  0
H  H13  1  0.58523709  0.32483421  0.05359953  1  0.047525  0  0.092026  0.089117  0  1.010568  0
H  H14  1  0.08519812  0.44640871  0.17516864  1  0.051126  0  0.092055  0.089081  0  1.010577  0
H  H15  1  0.91478921  0.17518017  0.55359997  1  0.050913  0  0.09208  0.089055  0  1.010411  0
H  H16  1  0.42047292  0.07206177  0.58488177  1  0.006849  0  0.086886  0.076477  0  0.999358  0
H  H17  1  0.57953326  0.58490017  0.92794365  1  0.00718  0  0.086953  0.076482  0  0.999541  0
H  H18  1  0.07951742  0.57206331  0.91512164  1  0.00714  0  0.086877  0.076481  0  0.999384  0
H  H19  1  0.42045255  0.92793716  0.41509434  1  0.007087  0  0.086691  0.076023  0  0.999421  0
H  H20  1  0.92046719  0.91511028  0.42793882  1  0.006923  0  0.086915  0.076433  0  0.999439  0
H  H21  1  0.57953049  0.41510637  0.07206309  1  0.007051  0  0.086926  0.076484  0  0.999505  0
H  H22  1  0.07951169  0.42793368  0.08489581  1  0.007132  0  0.086734  0.076075  0  0.99936  0
H  H23  1  0.92046405  0.08490810  0.57206249  1  0.007177  0  0.086817  0.076135  0  0.999584  0
H  H24  1  0.37181896  0.17855205  0.65152791  1  0.061191  0  0.092685  0.100819  0  1.004462  0
H  H25  1  0.62818948  0.65153852  0.82143888  1  0.059494  0  0.092689  0.100858  0  1.004655  0
H  H26  1  0.12819105  0.67855197  0.84845507  1  0.059623  0  0.09268  0.100891  0  1.004662  0
H  H27  1  0.37183783  0.82143591  0.34845678  1  0.059792  0  0.092658  0.100841  0  1.004634  0
H  H28  1  0.87183872  0.84844553  0.32144668  1  0.059839  0  0.092673  0.100908  0  1.004678  0
H  H29  1  0.62813883  0.34846755  0.17857646  1  0.061557  0  0.092789  0.100985  0  1.004603  0
H  H30  1  0.12815212  0.32143779  0.15153819  1  0.060019  0  0.09269  0.100873  0  1.004629  0
H  H31  1  0.87184364  0.15153793  0.67857257  1  0.061338  0  0.09274  0.100888  0  1.004497  0
H  H32  1  0.49465333  0.17141434  0.70135613  1  0.032881  0  0.092592  0.093209  0  0.995484  0
H  H33  1  0.50535467  0.70135818  0.82857484  1  0.032825  0  0.092545  0.093242  0  0.995577  0
H  H34  1  0.00534657  0.67140440  0.79863806  1  0.032878  0  0.092575  0.093215  0  0.995412  0
H  H35  1  0.49468564  0.82856570  0.29863882  1  0.03286  0  0.092526  0.09312  0  0.995625  0
H  H36  1  0.99469285  0.79864068  0.32858814  1  0.03304  0  0.092479  0.093139  0  0.995546  0
H  H37  1  0.50528322  0.29865633  0.17143128  1  0.032881  0  0.09242  0.093202  0  0.99549  0
H  H38  1  0.00530288  0.32856985  0.20135482  1  0.032701  0  0.092444  0.093107  0  0.995604  0
H  H39  1  0.99469643  0.20135204  0.67143669  1  0.032822  0  0.092429  0.09313  0  0.995476  0
H  H40  1  0.48466571  0.18964430  0.54306149  1  0.060585  0  0.098042  0.084915  0  0.988731  0
H  H41  1  0.51534033  0.54305658  0.81038897  1  0.060381  0  0.098172  0.084984  0  0.989025  0
H  H42  1  0.01534957  0.68964125  0.95693226  1  0.060773  0  0.097929  0.084737  0  0.989082  0
H  H43  1  0.48465555  0.81036892  0.45694101  1  0.06064  0  0.098021  0.084767  0  0.988815  0
H  H44  1  0.98465396  0.95693647  0.31035260  1  0.060657  0  0.097991  0.084796  0  0.988834  0
H  H45  1  0.51531939  0.45695648  0.18961688  1  0.060449  0  0.098088  0.084756  0  0.988826  0
H  H46  1  0.01531675  0.31038567  0.04305411  1  0.06047  0  0.098103  0.084831  0  0.988991  0
H  H47  1  0.98467472  0.04304624  0.68960799  1  0.060431  0  0.098109  0.08488  0  0.988974  0
H  H48  1  0.68210207  0.18827565  0.64264647  1  0.068955  0  0.093828  0.094108  0  0.993508  0
H  H49  1  0.31791939  0.64265746  0.81171421  1  0.068724  0  0.093827  0.094066  0  0.993659  0
H  H50  1  0.81792142  0.68828279  0.85734226  1  0.068851  0  0.093889  0.094132  0  0.993576  0
H  H51  1  0.68209778  0.81171649  0.35734454  1  0.06867  0  0.093825  0.094045  0  0.993616  0
H  H52  1  0.18209463  0.85735626  0.31170083  1  0.068868  0  0.093931  0.094192  0  0.993725  0
H  H53  1  0.31787825  0.35736835  0.18826775  1  0.069743  0  0.093858  0.094171  0  0.993333  0
H  H54  1  0.81788363  0.31170472  0.14264826  1  0.068985  0  0.093865  0.094175  0  0.993748  0
H  H55  1  0.18210688  0.14263726  0.68827851  1  0.069335  0  0.093814  0.094133  0  0.99366  0
H  H56  1  0.68884885  0.20340753  0.55180848  1  0.003849  0  0.085361  0.076547  0  0.999046  0
H  H57  1  0.31115687  0.55181247  0.79657797  1  0.003649  0  0.085326  0.076495  0  0.999081  0
H  H58  1  0.81116354  0.70343162  0.94817762  1  0.003205  0  0.085373  0.076477  0  0.999199  0
H  H59  1  0.68884133  0.79657377  0.44818650  1  0.003676  0  0.085318  0.0765  0  0.998996  0
H  H60  1  0.18883670  0.94819555  0.29656219  1  0.003002  0  0.085398  0.076587  0  0.999035  0
H  H61  1  0.31111330  0.44820911  0.20338908  1  0.003371  0  0.085318  0.076615  0  0.99897  0
H  H62  1  0.81112725  0.29656309  0.05181256  1  0.003064  0  0.085486  0.076831  0  0.999224  0
H  H63  1  0.18886587  0.05179804  0.70340344  1  0.003232  0  0.085371  0.076728  0  0.998957  0
H  H64  1  0.61743050  0.08582490  0.52686598  1  -1.2e-05  0  0.086843  0.080745  0  0.988992  0
H  H65  1  0.38255350  0.52687842  0.91416112  1  8.9e-05  0  0.086812  0.080792  0  0.98875  0
H  H66  1  0.88256849  0.58584909  0.97313551  1  -0.000159  0  0.086798  0.080759  0  0.988564  0
H  H67  1  0.61741161  0.91415348  0.47313611  1  -8.1e-05  0  0.086835  0.080717  0  0.988669  0
H  H68  1  0.11740911  0.97314804  0.41413713  1  -0.000415  0  0.086905  0.080712  0  0.988849  0
H  H69  1  0.38254989  0.47313412  0.08580144  1  -4.2e-05  0  0.086904  0.080761  0  0.988855  0
H  H70  1  0.88257201  0.41414386  0.02686578  1  -0.000547  0  0.08683  0.080763  0  0.988795  0
H  H71  1  0.11743384  0.02686188  0.58582728  1  2e-05  0  0.086848  0.080737  0  0.988921  0
H  H72  1  0.73510768  0.07962425  0.58111299  1  0.067858  0  0.088591  0.08056  0  1.026898  0
H  H73  1  0.26488162  0.58112773  0.92036787  1  0.06796  0  0.088602  0.080711  0  1.026796  0
H  H74  1  0.76489360  0.57963955  0.91888413  1  0.068338  0  0.088551  0.080552  0  1.026998  0
H  H75  1  0.73511241  0.92036540  0.41890158  1  0.068054  0  0.088536  0.080534  0  1.026755  0
H  H76  1  0.23510863  0.91891193  0.42034677  1  0.068034  0  0.088507  0.080643  0  1.026716  0
H  H77  1  0.26489082  0.41886780  0.07960406  1  0.067475  0  0.088519  0.080484  0  1.027408  0
H  H78  1  0.76487388  0.42035461  0.08110155  1  0.067934  0  0.088587  0.080715  0  1.026813  0
H  H79  1  0.23512137  0.08110822  0.57961711  1  0.067617  0  0.088574  0.080566  0  1.026848  0
H  H80  1  0.75340367  0.27119449  0.93625487  1  0.023006  0  0.099394  0.080213  0  0.973702  0
H  H81  1  0.24660726  0.93626418  0.72881970  1  0.023325  0  0.099321  0.080168  0  0.973301  0
H  H82  1  0.74656784  0.77118853  0.56375791  1  0.023333  0  0.099301  0.079841  0  0.973597  0
H  H83  1  0.75341408  0.72879537  0.06374828  1  0.023219  0  0.09936  0.080099  0  0.973408  0
H  H84  1  0.25341889  0.56375617  0.22879632  1  0.023211  0  0.099261  0.079917  0  0.973509  0
H  H85  1  0.24659392  0.06373582  0.27119018  1  0.023109  0  0.09927  0.080034  0  0.973425  0
H  H86  1  0.74659787  0.22881843  0.43625531  1  0.023141  0  0.099324  0.080154  0  0.973562  0
H  H87  1  0.25342691  0.43624391  0.77117332  1  0.023339  0  0.09931  0.080087  0  0.973633  0
H  H88  1  0.73247571  0.28620388  0.77861067  1  0.0359  0  0.093936  0.097435  0  0.979267  0
H  H89  1  0.26755207  0.77860941  0.71381154  1  0.035603  0  0.094016  0.097502  0  0.979201  0
H  H90  1  0.76750202  0.78619502  0.72141198  1  0.035816  0  0.093904  0.097337  0  0.979426  0
H  H91  1  0.73248668  0.71381280  0.22140033  1  0.035983  0  0.094007  0.097433  0  0.979323  0
H  H92  1  0.23249489  0.72141045  0.21379442  1  0.035925  0  0.093913  0.09733  0  0.979357  0
H  H93  1  0.26754324  0.22139032  0.28618633  1  0.035718  0  0.093965  0.097426  0  0.979359  0
H  H94  1  0.76753719  0.21382154  0.27860433  1  0.036085  0  0.09401  0.097455  0  0.979241  0
H  H95  1  0.23247824  0.27859666  0.78618929  1  0.035792  0  0.093953  0.097397  0  0.979501  0
H  H96  1  0.85773229  0.27097527  0.82412720  1  0.061013  0  0.093215  0.095806  0  1.013112  0
H  H97  1  0.14229804  0.82411660  0.72905493  1  0.061503  0  0.093323  0.096049  0  1.013073  0
H  H98  1  0.64225654  0.77097020  0.67589547  1  0.061292  0  0.093284  0.09605  0  1.013147  0
H  H99  1  0.85773521  0.72902988  0.17587891  1  0.061441  0  0.093238  0.095891  0  1.013062  0
H  H100  1  0.35774295  0.67589700  0.22903610  1  0.061309  0  0.09328  0.096068  0  1.012922  0
H  H101  1  0.14228475  0.17587384  0.27095356  1  0.061624  0  0.093244  0.095875  0  1.012954  0
H  H102  1  0.64228417  0.22905217  0.32412053  1  0.061415  0  0.093278  0.095948  0  1.012964  0
H  H103  1  0.35772785  0.32410535  0.77093752  1  0.061146  0  0.093351  0.09613  0  1.012673  0
H  H104  1  0.83649955  0.39765102  0.80093045  1  0.047476  0  0.092268  0.086912  0  1.025742  0
H  H105  1  0.16351010  0.80090972  0.60237742  1  0.0463  0  0.092245  0.08696  0  1.025745  0
H  H106  1  0.66349882  0.89764436  0.69910263  1  0.047341  0  0.092212  0.086803  0  1.025819  0
H  H107  1  0.83648395  0.60235856  0.19907830  1  0.047568  0  0.092258  0.086928  0  1.025802  0
H  H108  1  0.33653276  0.69908098  0.10234691  1  0.047212  0  0.092229  0.086739  0  1.025948  0
H  H109  1  0.16350718  0.19908982  0.39762843  1  0.046444  0  0.092289  0.08698  0  1.025793  0
H  H110  1  0.66349948  0.10237462  0.30091697  1  0.046176  0  0.092223  0.086935  0  1.025821  0
H  H111  1  0.33652499  0.30092788  0.89762364  1  0.046347  0  0.092187  0.086917  0  1.025667  0
H  H112  1  0.83355680  0.37983660  0.89117834  1  0.011398  0  0.087715  0.079616  0  1.005998  0
H  H113  1  0.16644949  0.89116110  0.62018427  1  0.011295  0  0.08757  0.079323  0  1.005997  0
H  H114  1  0.66644351  0.87983794  0.60885310  1  -0.018251  0  0.087569  0.07934  0  1.00614  0
H  H115  1  0.83354034  0.62016982  0.10882893  1  0.01126  0  0.087604  0.079359  0  1.006073  0
H  H116  1  0.33358806  0.60883383  0.12016805  1  -0.019288  0  0.087709  0.079613  0  1.005978  0
H  H117  1  0.16643929  0.10883899  0.37982670  1  -0.018487  0  0.087545  0.079313  0  1.006085  0
H  H118  1  0.66643289  0.12018576  0.39116537  1  -0.018615  0  0.087598  0.079319  0  1.00602  0
H  H119  1  0.33357509  0.39117240  0.87980466  1  -0.019128  0  0.087718  0.079535  0  1.006095  0
H  H120  1  0.68926958  0.46360685  0.86524847  1  0.045805  0  0.105441  0.094317  0  0.972375  0
H  H121  1  0.31072804  0.86522159  0.53639873  1  0.046543  0  0.105361  0.094223  0  0.972488  0
H  H122  1  0.81073817  0.96360606  0.63479822  1  0.046218  0  0.105427  0.094259  0  0.972627  0
H  H123  1  0.68925302  0.53639630  0.13477772  1  0.04636  0  0.105406  0.094283  0  0.972486  0
H  H124  1  0.18929944  0.63477943  0.03638771  1  0.046083  0  0.105428  0.094314  0  0.972281  0
H  H125  1  0.31072704  0.13478281  0.46360060  1  0.046735  0  0.105355  0.094232  0  0.972532  0
H  H126  1  0.81071855  0.03640425  0.36522839  1  0.046189  0  0.105371  0.094288  0  0.972425  0
H  H127  1  0.18930650  0.36522718  0.96360080  1  0.045793  0  0.10534  0.094377  0  0.972438  0
H  H128  1  0.64290305  0.38139320  0.95513794  1  0.042902  0  0.086827  0.0778  0  1.011499  0
H  H129  1  0.35708975  0.95512310  0.61860167  1  0.043274  0  0.086826  0.077826  0  1.011206  0
H  H130  1  0.85708906  0.88139729  0.54489356  1  0.043457  0  0.086844  0.077739  0  1.011371  0
H  H131  1  0.64286855  0.61860004  0.04488689  1  0.043389  0  0.086798  0.077768  0  1.011566  0
H  H132  1  0.14290088  0.54488426  0.11860298  1  0.043337  0  0.086748  0.077721  0  1.011554  0
H  H133  1  0.35708580  0.04488705  0.38139382  1  0.043393  0  0.086803  0.077779  0  1.011486  0
H  H134  1  0.85710712  0.11861774  0.45511620  1  0.043441  0  0.086763  0.077739  0  1.01153  0
H  H135  1  0.14292105  0.45511971  0.88139925  1  0.04297  0  0.086874  0.077788  0  1.01159  0
H  H136  1  0.52205126  0.39649014  0.90563968  1  0.02301  0  0.086743  0.077102  0  1.032179  0
H  H137  1  0.47795062  0.90562744  0.60350291  1  0.023223  0  0.08681  0.077271  0  1.032069  0
H  H138  1  0.97794955  0.89648480  0.59439544  1  0.023302  0  0.086759  0.077113  0  1.032264  0
H  H139  1  0.52202289  0.60352457  0.09441178  1  0.022821  0  0.086887  0.077404  0  1.032131  0
H  H140  1  0.02206907  0.59441065  0.10350543  1  0.023005  0  0.086797  0.077216  0  1.032142  0
H  H141  1  0.47794053  0.09438362  0.39648624  1  0.023173  0  0.086746  0.077113  0  1.032368  0
H  H142  1  0.97795315  0.10352541  0.40560174  1  0.022934  0  0.086794  0.07725  0  1.032285  0
H  H143  1  0.02208017  0.40560751  0.89649482  1  0.023121  0  0.086774  0.077176  0  1.032257  0
H  H144  1  0.55020306  0.28460607  0.84204618  1  0.04383  0  0.093303  0.096565  0  0.987431  0
H  H145  1  0.44980202  0.84203917  0.71538140  1  0.043571  0  0.093426  0.096771  0  0.987558  0
H  H146  1  0.94977462  0.78460093  0.65797485  1  0.043505  0  0.093381  0.09673  0  0.98744  0
H  H147  1  0.55022987  0.71540481  0.15798475  1  0.043226  0  0.093456  0.096977  0  0.987587  0
H  H148  1  0.05024071  0.65799687  0.21538109  1  0.043038  0  0.093412  0.096824  0  0.987711  0
H  H149  1  0.44978645  0.15796636  0.28460591  1  0.043506  0  0.093468  0.096853  0  0.987674  0
H  H150  1  0.94977590  0.21540791  0.34201528  1  0.043175  0  0.093441  0.096841  0  0.987551  0
H  H151  1  0.05022110  0.34202577  0.78461164  1  0.043656  0  0.093377  0.09666  0  0.987397  0
H  H152  1  0.54488601  0.27025410  0.93295856  1  0.046955  0  0.087055  0.090744  0  1.037407  0
H  H153  1  0.45513236  0.93295386  0.72973464  1  0.046939  0  0.086961  0.090728  0  1.037323  0
H  H154  1  0.95509454  0.77025175  0.56706044  1  0.047418  0  0.086974  0.090634  0  1.037449  0
H  H155  1  0.54488055  0.72975099  0.06707564  1  0.04705  0  0.086927  0.090652  0  1.037332  0
H  H156  1  0.04488631  0.56708734  0.22974137  1  0.04715  0  0.086952  0.090649  0  1.037297  0
H  H157  1  0.45512496  0.06705433  0.27025668  1  0.046955  0  0.086982  0.090722  0  1.037305  0
H  H158  1  0.95513307  0.22976235  0.43292643  1  0.047227  0  0.086956  0.090788  0  1.036928  0
H  H159  1  0.04489428  0.43293785  0.77025983  1  0.047381  0  0.08699  0.090633  0  1.037303  0
H  H160  1  0.39384937  0.20346833  0.84389027  1  0.03133  0  0.106005  0.119816  0  1.011447  0
H  H161  1  0.60610803  0.84389570  0.79654348  1  0.031086  0  0.106035  0.119959  0  1.011158  0
H  H162  1  0.10610446  0.70345802  0.65612163  1  0.031046  0  0.10606  0.119944  0  1.01114  0
H  H163  1  0.39386881  0.79653965  0.15609905  1  0.031242  0  0.106022  0.119782  0  1.011199  0
H  H164  1  0.89386904  0.65606204  0.29651575  1  0.030835  0  0.106075  0.119656  0  1.011415  0
H  H165  1  0.60612259  0.15606485  0.20348597  1  0.030808  0  0.106058  0.119658  0  1.011305  0
H  H166  1  0.10613277  0.29652575  0.34391124  1  0.030864  0  0.105988  0.119738  0  1.011425  0
H  H167  1  0.89387389  0.34390191  0.70346390  1  0.0311  0  0.106004  0.11983  0  1.011297  0
H  H168  1  0.27029095  0.15444061  0.83441687  1  0.04148  0  0.09592  0.108868  0  1.020981  0
H  H169  1  0.72967829  0.83440112  0.84555065  1  0.041955  0  0.095982  0.108776  0  1.020518  0
H  H170  1  0.22967544  0.65444612  0.66560173  1  0.041952  0  0.095983  0.108747  0  1.020435  0
H  H171  1  0.27030544  0.84555863  0.16557729  1  0.041733  0  0.095932  0.108684  0  1.020919  0
H  H172  1  0.77031118  0.66556083  0.34553641  1  0.041707  0  0.095938  0.108672  0  1.020942  0
H  H173  1  0.72969228  0.16555309  0.15446718  1  0.041815  0  0.095937  0.108588  0  1.020935  0
H  H174  1  0.22970338  0.34554380  0.33442576  1  0.041658  0  0.095919  0.108707  0  1.021102  0
H  H175  1  0.77030582  0.33441362  0.65445016  1  0.041654  0  0.095928  0.108795  0  1.020759  0
H  H176  1  0.39610372  0.12477913  0.79491690  1  0.04545  0  0.09405  0.102289  0  1.014255  0
H  H177  1  0.60385408  0.79492165  0.87523083  1  0.045331  0  0.094027  0.102288  0  1.014026  0
H  H178  1  0.10386261  0.62477301  0.70509240  1  0.049196  0  0.093964  0.102124  0  1.014029  0
H  H179  1  0.39610491  0.87522524  0.20508431  1  0.045384  0  0.094006  0.102178  0  1.014235  0
H  H180  1  0.89612597  0.70506157  0.37519009  1  0.050738  0  0.094054  0.10221  0  1.014169  0
H  H181  1  0.60388031  0.20506073  0.12480752  1  0.046565  0  0.093991  0.102097  0  1.014074  0
H  H182  1  0.10389159  0.37521074  0.29492960  1  0.045981  0  0.094023  0.102246  0  1.014022  0
H  H183  1  0.89612143  0.29491853  0.62477441  1  0.04538  0  0.094033  0.102253  0  1.01411  0
H  H184  1  0.38491419  0.00992911  0.94447896  1  0.016752  0  0.088193  0.079297  0  1.048159  0
H  H185  1  0.61508891  0.94448481  0.99007995  1  0.017351  0  0.088261  0.079371  0  1.048103  0
H  H186  1  0.11505450  0.50992028  0.55553125  1  0.017336  0  0.088243  0.079322  0  1.04811  0
H  H187  1  0.38491312  0.99008658  0.05552828  1  0.017065  0  0.08821  0.079322  0  1.048204  0
H  H188  1  0.88493709  0.55551988  0.49007569  1  0.017255  0  0.088228  0.07932  0  1.048157  0
H  H189  1  0.61505320  0.05551383  0.00992376  1  0.016949  0  0.088286  0.07943  0  1.048243  0
H  H190  1  0.11504884  0.49007192  0.44448941  1  0.016928  0  0.088319  0.079467  0  1.048163  0
H  H191  1  0.88491662  0.44449183  0.50993333  1  0.016805  0  0.08829  0.079514  0  1.048143  0
H  H192  1  0.39567779  0.01486352  0.85178337  1  0.080356  0  0.097988  0.113908  0  0.998414  0
H  H193  1  0.60432150  0.85178621  0.98514427  1  0.080386  0  0.098001  0.113879  0  0.998286  0
H  H194  1  0.10428775  0.51485709  0.64822908  1  0.079829  0  0.098049  0.11395  0  0.998245  0
H  H195  1  0.39567615  0.98515021  0.14822514  1  0.080344  0  0.098021  0.113838  0  0.998228  0
H  H196  1  0.89570070  0.64821468  0.48512769  1  0.080331  0  0.097991  0.113881  0  0.998349  0
H  H197  1  0.60428739  0.14820658  0.01487586  1  0.080353  0  0.098036  0.114018  0  0.998314  0
H  H198  1  0.10428732  0.48512873  0.35179499  1  0.080349  0  0.097994  0.113959  0  0.998275  0
H  H199  1  0.89567798  0.35179872  0.51485556  1  0.080486  0  0.097995  0.113991  0  0.99852  0
H  H200  1  0.26822798  0.03355705  0.89361610  1  -0.008786  0  0.094419  0.08933  0  1.022072  0
H  H201  1  0.73177474  0.89361441  0.96645026  1  -0.008714  0  0.094443  0.089252  0  1.021981  0
H  H202  1  0.23174472  0.53354659  0.60640685  1  -0.008389  0  0.09437  0.089326  0  1.021895  0
H  H203  1  0.26823353  0.96644425  0.10640205  1  -0.008649  0  0.094407  0.089298  0  1.022147  0
H  H204  1  0.76824624  0.60638378  0.46644818  1  -0.008763  0  0.094357  0.089237  0  1.022073  0
H  H205  1  0.73173979  0.10637729  0.03354879  1  -0.008607  0  0.094428  0.089423  0  1.022108  0
H  H206  1  0.23173846  0.46645792  0.39361435  1  -0.008597  0  0.094403  0.089391  0  1.022107  0
H  H207  1  0.76823093  0.39362031  0.53355875  1  -0.008844  0  0.094461  0.089322  0  1.022167  0
H  H208  1  0.47078497  0.11789717  0.91137494  1  0.409618  0  0.289213  0.240017  0  0.988451  0
H  H209  1  0.52922067  0.91139076  0.88212168  1  0.409875  0  0.289238  0.240007  0  0.988564  0
H  H210  1  0.02920096  0.61788581  0.58862946  1  0.409647  0  0.289296  0.240216  0  0.988586  0
H  H211  1  0.47080817  0.88212681  0.08862949  1  0.409562  0  0.28926  0.24  0  0.988708  0
H  H212  1  0.97079523  0.58860934  0.38210165  1  0.409483  0  0.28925  0.240129  0  0.988529  0
H  H213  1  0.52919274  0.08860842  0.11789681  1  0.409754  0  0.289179  0.239932  0  0.988665  0
H  H214  1  0.02920916  0.38209965  0.41139505  1  0.409717  0  0.289243  0.240175  0  0.988491  0
H  H215  1  0.97078636  0.41138414  0.61788687  1  0.409891  0  0.289199  0.240095  0  0.988529  0
Pb  Pb216  1  0.72086300  0.02399868  0.83676507  1  1.356896  0  0.629976  0.993906  0  1.827489  0
Pb  Pb217  1  0.27917414  0.83679024  0.97599669  1  1.356619  0  0.630007  0.993902  0  1.827742  0
Pb  Pb218  1  0.77906238  0.52400314  0.66325468  1  1.357024  0  0.629921  0.993732  0  1.827735  0
Pb  Pb219  1  0.72085678  0.97599184  0.16323480  1  1.356762  0  0.629942  0.993843  0  1.827822  0
Pb  Pb220  1  0.22084208  0.66324449  0.47599566  1  1.356847  0  0.630008  0.993848  0  1.827174  0
Pb  Pb221  1  0.27916461  0.16322367  0.02399879  1  1.356874  0  0.629966  0.993715  0  1.827746  0
Pb  Pb222  1  0.77909239  0.47597767  0.33676444  1  1.357141  0  0.629915  0.993826  0  1.828096  0
Pb  Pb223  1  0.22084305  0.33677289  0.52398629  1  1.356715  0  0.629955  0.99366  0  1.827728  0
Pb  Pb224  1  0.99083458  0.15276634  0.92233706  1  1.360071  0  0.602606  0.95984  0  2.108507  0
Pb  Pb225  1  0.00917666  0.92235821  0.84725154  1  1.359835  0  0.602532  0.959397  0  2.108887  0
Pb  Pb226  1  0.50917383  0.65275386  0.57764478  1  1.359894  0  0.602566  0.959505  0  2.108559  0
Pb  Pb227  1  0.99082944  0.84722269  0.07763741  1  1.360144  0  0.602576  0.959756  0  2.108464  0
Pb  Pb228  1  0.49079785  0.57764523  0.34723583  1  1.359791  0  0.602601  0.959538  0  2.10868  0
Pb  Pb229  1  0.00918898  0.07762337  0.15275113  1  1.35972  0  0.602634  0.959663  0  2.108213  0
Pb  Pb230  1  0.50917035  0.34725393  0.42234199  1  1.35975  0  0.602574  0.959673  0  2.108515  0
Pb  Pb231  1  0.49079687  0.42232905  0.65278212  1  1.36023  0  0.602561  0.959783  0  2.10862  0
C  C232  1  0.63095069  0.05050361  0.70403800  1  1.512553  0  0.217439  0.579978  0  4.100062  0
C  C233  1  0.36905637  0.70407001  0.94946287  1  1.512364  0  0.217297  0.579719  0  4.100146  0
C  C234  1  0.86904891  0.55050622  0.79595609  1  1.512758  0  0.217435  0.579692  0  4.100191  0
C  C235  1  0.63096450  0.94948168  0.29596062  1  1.514013  0  0.217626  0.58024  0  4.099493  0
C  C236  1  0.13096410  0.79597946  0.44949409  1  1.514069  0  0.217452  0.57985  0  4.099658  0
C  C237  1  0.36905067  0.29594809  0.05051409  1  1.512194  0  0.21732  0.579672  0  4.100616  0
C  C238  1  0.86900863  0.44946525  0.20404712  1  1.514814  0  0.217641  0.580464  0  4.099696  0
C  C239  1  0.13097667  0.20404259  0.55051523  1  1.513336  0  0.217442  0.579901  0  4.099597  0
C  C240  1  0.57974484  0.05512479  0.63169695  1  -0.012856  0  -0.08546  -0.108093  0  3.864929  0
C  C241  1  0.42024811  0.63172037  0.94485812  1  -0.013031  0  -0.085648  -0.108318  0  3.864368  0
C  C242  1  0.92024499  0.55513350  0.86830041  1  -0.01327  0  -0.085576  -0.108306  0  3.864642  0
C  C243  1  0.57975533  0.94486458  0.36830198  1  -0.012889  0  -0.085622  -0.108378  0  3.864893  0
C  C244  1  0.07975782  0.86831282  0.44485926  1  -0.013481  0  -0.085659  -0.107961  0  3.864575  0
C  C245  1  0.42024342  0.36828741  0.05512737  1  -0.012261  0  -0.085487  -0.108145  0  3.864625  0
C  C246  1  0.92022178  0.44485054  0.13170403  1  -0.012872  0  -0.085564  -0.108413  0  3.864935  0
C  C247  1  0.07976546  0.13170082  0.55513997  1  -0.013203  0  -0.08562  -0.108399  0  3.864848  0
C  C248  1  0.46076502  0.08237527  0.63527588  1  -0.037077  0  -0.162951  -0.159726  0  3.936477  0
C  C249  1  0.53924320  0.63529129  0.91761961  1  -0.037368  0  -0.163031  -0.159699  0  3.936683  0
C  C250  1  0.03924872  0.58237415  0.86472267  1  -0.037411  0  -0.162992  -0.159751  0  3.936437  0
C  C251  1  0.46077494  0.91761842  0.36470593  1  -0.041432  0  -0.162749  -0.159046  0  3.935692  0
C  C252  1  0.96076537  0.86471934  0.41761882  1  -0.037352  0  -0.162909  -0.159699  0  3.936052  0
C  C253  1  0.53923494  0.36471477  0.08238248  1  -0.03754  0  -0.162965  -0.159727  0  3.936229  0
C  C254  1  0.03920715  0.41761247  0.13528596  1  -0.041042  0  -0.162877  -0.159165  0  3.936109  0
C  C255  1  0.96077706  0.13528807  0.58238558  1  -0.040683  0  -0.162861  -0.159039  0  3.936013  0
C  C256  1  0.45758202  0.16022938  0.65027676  1  -0.010647  0  -0.167667  -0.172934  0  3.912173  0
C  C257  1  0.54243051  0.65028184  0.83976152  1  -0.009065  0  -0.167608  -0.173175  0  3.912345  0
C  C258  1  0.04243487  0.66023093  0.84972278  1  -0.009328  0  -0.16764  -0.173138  0  3.912266  0
C  C259  1  0.45759145  0.83975490  0.34971449  1  -0.009537  0  -0.167494  -0.172948  0  3.912077  0
C  C260  1  0.95759234  0.84971478  0.33976189  1  -0.009749  0  -0.167605  -0.173077  0  3.91228  0
C  C261  1  0.54238937  0.34973102  0.16024933  1  -0.01131  0  -0.167804  -0.173613  0  3.912413  0
C  C262  1  0.04239245  0.33975365  0.15027796  1  -0.009936  0  -0.16767  -0.173334  0  3.912461  0
C  C263  1  0.95760257  0.15027542  0.66024781  1  -0.011406  0  -0.167688  -0.173405  0  3.912347  0
C  C264  1  0.52191108  0.20007693  0.59418403  1  0.027306  0  -0.091792  -0.10717  0  3.863473  0
C  C265  1  0.47810937  0.59417923  0.79992131  1  0.027088  0  -0.091988  -0.107143  0  3.863458  0
C  C266  1  0.97811194  0.70008288  0.90581341  1  0.027144  0  -0.091656  -0.106824  0  3.863465  0
C  C267  1  0.52190650  0.79991748  0.40581384  1  0.02719  0  -0.091846  -0.107068  0  3.863492  0
C  C268  1  0.02190543  0.90581277  0.29991065  1  0.027453  0  -0.091769  -0.106999  0  3.863504  0
C  C269  1  0.47805403  0.40584276  0.20007773  1  0.027428  0  -0.091802  -0.106649  0  3.863052  0
C  C270  1  0.97807868  0.29991225  0.09416972  1  0.028065  0  -0.091812  -0.106562  0  3.86311  0
C  C271  1  0.02192371  0.09416532  0.70007555  1  0.027663  0  -0.091696  -0.106804  0  3.863224  0
C  C272  1  0.64282302  0.17553455  0.59261650  1  -0.04556  0  -0.160923  -0.15315  0  3.899405  0
C  C273  1  0.35718720  0.59262120  0.82444975  1  -0.045102  0  -0.160886  -0.153018  0  3.899006  0
C  C274  1  0.85719267  0.67555212  0.90737701  1  -0.044686  0  -0.161019  -0.153172  0  3.899364  0
C  C275  1  0.64282071  0.82445297  0.40737867  1  -0.045165  0  -0.160871  -0.153035  0  3.899436  0
C  C276  1  0.14282266  0.90738097  0.32443957  1  -0.044849  0  -0.161125  -0.153419  0  3.899586  0
C  C277  1  0.35715418  0.40739675  0.17552701  1  -0.046036  0  -0.16088  -0.153265  0  3.899254  0
C  C278  1  0.85715613  0.32444001  0.09261662  1  -0.045377  0  -0.161188  -0.153859  0  3.900004  0
C  C279  1  0.14284335  0.09261104  0.67553769  1  -0.045561  0  -0.160981  -0.153513  0  3.899389  0
C  C280  1  0.64886786  0.09707176  0.57955360  1  -0.043224  0  -0.164527  -0.15851  0  3.930623  0
C  C281  1  0.35112479  0.57956608  0.90291767  1  -0.042536  0  -0.164492  -0.158827  0  3.929986  0
C  C282  1  0.85113147  0.59709021  0.92043941  1  -0.042778  0  -0.164339  -0.158404  0  3.930237  0
C  C283  1  0.64886453  0.90291011  0.42044142  1  -0.042687  0  -0.164309  -0.158326  0  3.930261  0
C  C284  1  0.14886167  0.92045064  0.40290100  1  -0.041966  0  -0.164227  -0.15835  0  3.930209  0
C  C285  1  0.35111473  0.42044556  0.09705925  1  -0.043039  0  -0.164525  -0.158523  0  3.930761  0
C  C286  1  0.85111381  0.40290393  0.07955230  1  -0.04216  0  -0.164343  -0.158464  0  3.930353  0
C  C287  1  0.14887403  0.07955549  0.59707350  1  -0.042613  0  -0.164384  -0.158326  0  3.930631  0
C  C288  1  0.51367177  0.27759019  0.60627975  1  1.502496  0  0.219447  0.613394  0  4.09285  0
C  C289  1  0.48637778  0.60624429  0.72240648  1  1.502871  0  0.219147  0.612621  0  4.092891  0
C  C290  1  0.98637995  0.77759583  0.89372440  1  1.50302  0  0.219176  0.613066  0  4.092256  0
C  C291  1  0.51362279  0.72240152  0.39373967  1  1.503009  0  0.219254  0.612827  0  4.092504  0
C  C292  1  0.01364386  0.89371706  0.22239929  1  1.502331  0  0.219179  0.612988  0  4.092976  0
C  C293  1  0.48631607  0.39377571  0.27758973  1  1.502452  0  0.219505  0.613157  0  4.092254  0
C  C294  1  0.98636421  0.22239627  0.10624186  1  1.502925  0  0.21928  0.612813  0  4.092623  0
C  C295  1  0.01365483  0.10623596  0.77758869  1  1.502666  0  0.219218  0.612837  0  4.092604  0
C  C296  1  0.70840409  0.26076133  0.88726765  1  0.042606  0  -0.089056  -0.107715  0  3.875926  0
C  C297  1  0.29161302  0.88725391  0.73926128  1  0.041745  0  -0.088975  -0.108041  0  3.876122  0
C  C298  1  0.79157701  0.76074762  0.61276404  1  0.042232  0  -0.088769  -0.107183  0  3.875463  0
C  C299  1  0.70840658  0.73926027  0.11275595  1  0.042161  0  -0.088922  -0.107995  0  3.876323  0
C  C300  1  0.20841409  0.61276679  0.23924955  1  0.04145  0  -0.088853  -0.107571  0  3.875471  0
C  C301  1  0.29160596  0.11273986  0.26074324  1  0.042204  0  -0.088968  -0.107774  0  3.87562  0
C  C302  1  0.79159659  0.23925623  0.38726047  1  0.042444  0  -0.08885  -0.107642  0  3.875787  0
C  C303  1  0.20841392  0.38724368  0.76073377  1  0.042357  0  -0.088836  -0.108018  0  3.876546  0
C  C304  1  0.77581452  0.29488683  0.82830806  1  -0.031153  0  -0.162671  -0.16272  0  3.876934  0
C  C305  1  0.22419708  0.82829660  0.70513369  1  -0.031002  0  -0.162874  -0.162865  0  3.876715  0
C  C306  1  0.72416346  0.79488103  0.67171903  1  -0.031763  0  -0.162776  -0.162978  0  3.877245  0
C  C307  1  0.77582443  0.70512671  0.17170751  1  -0.031472  0  -0.162811  -0.1626  0  3.87676  0
C  C308  1  0.27584221  0.67171569  0.20511274  1  -0.031519  0  -0.162688  -0.162809  0  3.876466  0
C  C309  1  0.22419857  0.17170209  0.29487418  1  -0.031412  0  -0.162738  -0.16263  0  3.876519  0
C  C310  1  0.72419176  0.20513398  0.32829739  1  -0.032121  0  -0.162881  -0.16289  0  3.876753  0
C  C311  1  0.27582563  0.32828413  0.79486722  1  -0.031213  0  -0.162869  -0.162905  0  3.876408  0
C  C312  1  0.78774384  0.37291531  0.84213448  1  -0.030328  0  -0.163681  -0.1573  0  3.915113  0
C  C313  1  0.21226798  0.84211800  0.62709629  1  -0.028443  0  -0.163378  -0.156963  0  3.914817  0
C  C314  1  0.71225709  0.87291620  0.65789570  1  -0.000525  0  -0.163395  -0.156901  0  3.914886  0
C  C315  1  0.78773008  0.62708901  0.15787661  1  -0.030262  0  -0.16357  -0.157059  0  3.914972  0
C  C316  1  0.28777488  0.65787924  0.12707613  1  0.000197  0  -0.163666  -0.157212  0  3.914827  0
C  C317  1  0.21226301  0.15788160  0.37290982  1  0.000602  0  -0.163441  -0.156997  0  3.915227  0
C  C318  1  0.71226234  0.12710180  0.34212104  1  0.001399  0  -0.163423  -0.156966  0  3.915132  0
C  C319  1  0.28776174  0.34212696  0.87290560  1  0.001363  0  -0.163568  -0.156961  0  3.915005  0
C  C320  1  0.67528893  0.40907408  0.84918475  1  0.012094  0  -0.088352  -0.120858  0  3.879115  0
C  C321  1  0.32471131  0.84916003  0.59093363  1  0.011547  0  -0.088211  -0.120289  0  3.878886  0
C  C322  1  0.82470070  0.90907295  0.65085650  1  0.011994  0  -0.088251  -0.120243  0  3.878718  0
C  C323  1  0.67528199  0.59093307  0.15084337  1  0.012371  0  -0.08814  -0.120562  0  3.878901  0
C  C324  1  0.17532737  0.65084383  0.09091779  1  0.012404  0  -0.088228  -0.120503  0  3.87843  0
C  C325  1  0.32470536  0.15084245  0.40906324  1  0.011776  0  -0.088134  -0.120384  0  3.879041  0
C  C326  1  0.82470688  0.09093857  0.34915725  1  0.012081  0  -0.088165  -0.120527  0  3.87877  0
C  C327  1  0.17532605  0.34916365  0.90906381  1  0.012767  0  -0.088001  -0.121002  0  3.879364  0
C  C328  1  0.61679914  0.41597148  0.77941817  1  1.490561  0  0.229533  0.604274  0  4.060943  0
C  C329  1  0.38320107  0.77939098  0.58402764  1  1.490194  0  0.229445  0.603861  0  4.060613  0
C  C330  1  0.88319647  0.91596917  0.72062435  1  1.491457  0  0.229222  0.603754  0  4.061369  0
C  C331  1  0.61678898  0.58403082  0.22061152  1  1.490128  0  0.229575  0.604416  0  4.060465  0
C  C332  1  0.11685044  0.72060589  0.08401877  1  1.490686  0  0.229135  0.603997  0  4.061095  0
C  C333  1  0.38318354  0.22061168  0.41596195  1  1.490671  0  0.229197  0.603699  0  4.060802  0
C  C334  1  0.88319391  0.08402640  0.27939252  1  1.490332  0  0.229526  0.604203  0  4.060547  0
C  C335  1  0.11683668  0.27940142  0.91597322  1  1.490122  0  0.229375  0.604325  0  4.06034  0
C  C336  1  0.60421974  0.37257862  0.90407268  1  -0.034919  0  -0.167091  -0.159545  0  3.930516  0
C  C337  1  0.39578349  0.90405194  0.62742316  1  -0.03476  0  -0.167181  -0.159994  0  3.930634  0
C  C338  1  0.89577458  0.87257912  0.59596165  1  -0.034769  0  -0.167126  -0.159686  0  3.930042  0
C  C339  1  0.60419941  0.62743341  0.09595266  1  -0.034919  0  -0.167239  -0.159924  0  3.930801  0
C  C340  1  0.10423048  0.59595415  0.12741989  1  -0.034453  0  -0.167064  -0.159677  0  3.930451  0
C  C341  1  0.39578495  0.09594722  0.37257546  1  -0.035117  0  -0.167079  -0.159659  0  3.930721  0
C  C342  1  0.89578890  0.12743168  0.40405124  1  -0.034726  0  -0.167139  -0.159791  0  3.930564  0
C  C343  1  0.10423817  0.40405873  0.87258076  1  -0.034511  0  -0.167276  -0.159578  0  3.930564  0
C  C344  1  0.59408474  0.29409441  0.89133568  1  -0.052168  0  -0.173006  -0.175261  0  3.915778  0
C  C345  1  0.40593803  0.89132937  0.70589712  1  -0.052332  0  -0.172909  -0.175179  0  3.915665  0
C  C346  1  0.90590889  0.79409389  0.60868514  1  -0.052697  0  -0.173047  -0.175387  0  3.915455  0
C  C347  1  0.59406754  0.70590398  0.10869045  1  -0.051899  0  -0.172983  -0.175453  0  3.915981  0
C  C348  1  0.09408059  0.60869751  0.20588725  1  -0.051395  0  -0.173001  -0.175449  0  3.91588  0
C  C349  1  0.40593604  0.10867667  0.29409812  1  -0.052113  0  -0.172969  -0.175343  0  3.915681  0
C  C350  1  0.90592639  0.20591599  0.39131344  1  -0.052256  0  -0.172971  -0.175531  0  3.915429  0
C  C351  1  0.09409068  0.39132097  0.79410535  1  -0.052715  0  -0.172989  -0.175117  0  3.915593  0
C  C352  1  0.70818454  0.18209308  0.87984306  1  1.515957  0  0.223697  0.609723  0  4.109754  0
C  C353  1  0.29182478  0.87985373  0.81791391  1  1.515191  0  0.223634  0.609504  0  4.110505  0
C  C354  1  0.79180741  0.68208430  0.62016003  1  1.514847  0  0.223541  0.609369  0  4.110107  0
C  C355  1  0.70817981  0.81790874  0.12014829  1  1.515377  0  0.223589  0.609569  0  4.110969  0
C  C356  1  0.20817314  0.62016488  0.31789983  1  1.515245  0  0.22355  0.609595  0  4.110832  0
C  C357  1  0.29182650  0.12015409  0.18208904  1  1.515068  0  0.223328  0.608931  0  4.110898  0
C  C358  1  0.79181911  0.31791902  0.37984471  1  1.515302  0  0.223459  0.609236  0  4.109781  0
C  C359  1  0.20816729  0.37983571  0.68207569  1  1.514999  0  0.223408  0.609465  0  4.110555  0
C  C360  1  0.36004695  0.15080242  0.84071200  1  0.2912  0  -0.150376  -0.228378  0  3.912657  0
C  C361  1  0.63992199  0.84071214  0.84920377  1  0.29121  0  -0.150362  -0.228315  0  3.911845  0
C  C362  1  0.13991686  0.65079938  0.65930076  1  0.287206  0  -0.150355  -0.228035  0  3.911596  0
C  C363  1  0.36005785  0.84920673  0.15928497  1  0.291092  0  -0.1503  -0.227808  0  3.912252  0
C  C364  1  0.86006559  0.65926398  0.34918069  1  0.286481  0  -0.15043  -0.227764  0  3.912129  0
C  C365  1  0.63993274  0.15925609  0.15081853  1  0.290745  0  -0.150309  -0.227522  0  3.912112  0
C  C366  1  0.13994613  0.34919364  0.34072912  1  0.291073  0  -0.150287  -0.228008  0  3.912452  0
C  C367  1  0.86005984  0.34071934  0.65079830  1  0.291579  0  -0.150349  -0.228236  0  3.912493  0
C  C368  1  0.35837358  0.03915689  0.89821320  1  0.259413  0  -0.149067  -0.242303  0  4.007749  0
C  C369  1  0.64162932  0.89821720  0.96085180  1  0.259122  0  -0.14911  -0.24209  0  4.0073  0
C  C370  1  0.14159929  0.53914989  0.60179850  1  0.25988  0  -0.149104  -0.242152  0  4.007374  0
C  C371  1  0.35837679  0.96085640  0.10179267  1  0.25942  0  -0.148998  -0.241884  0  4.007402  0
C  C372  1  0.85838790  0.60178289  0.46083885  1  0.259447  0  -0.149018  -0.242076  0  4.008046  0
C  C373  1  0.64160541  0.10177811  0.03915485  1  0.258983  0  -0.149076  -0.24243  0  4.007847  0
C  C374  1  0.14160493  0.46085042  0.39822302  1  0.258804  0  -0.149117  -0.242429  0  4.007608  0
C  C375  1  0.85836906  0.39822227  0.53914955  1  0.259024  0  -0.149236  -0.242535  0  4.007838  0
N  N376  1  0.38715773  0.11287485  0.90505462  1  -1.081122  0  -0.475578  -0.286863  0  3.470767  0
N  N377  1  0.61284365  0.90505955  0.88713644  1  -1.081594  0  -0.475777  -0.287243  0  3.470923  0
N  N378  1  0.11282145  0.61286573  0.59495586  1  -1.081719  0  -0.475795  -0.287524  0  3.471193  0
N  N379  1  0.38717819  0.88713982  0.09494840  1  -1.081222  0  -0.475804  -0.287491  0  3.470962  0
N  N380  1  0.88716778  0.59492510  0.38712510  1  -1.081485  0  -0.47578  -0.287439  0  3.471271  0
N  N381  1  0.61282286  0.09492293  0.11287722  1  -1.081625  0  -0.47576  -0.28732  0  3.471183  0
N  N382  1  0.11283599  0.38712385  0.40506642  1  -1.080978  0  -0.475665  -0.287179  0  3.470792  0
N  N383  1  0.88715658  0.40506011  0.61287346  1  -1.081289  0  -0.475655  -0.287172  0  3.470745  0
O  O384  1  0.62168284  0.14808020  0.86595436  1  -1.178659  0  -0.295254  -0.535169  0  2.146152  0
O  O385  1  0.37831355  0.86596025  0.85192975  1  -1.178246  0  -0.295405  -0.53511  0  2.146257  0
O  O386  1  0.87831140  0.64807811  0.63404189  1  -1.178484  0  -0.295274  -0.53502  0  2.146215  0
O  O387  1  0.62169633  0.85192527  0.13405542  1  -1.178634  0  -0.295275  -0.535009  0  2.146402  0
O  O388  1  0.12167880  0.63408652  0.35190022  1  -1.178177  0  -0.295215  -0.535059  0  2.146233  0
O  O389  1  0.37831631  0.13410166  0.14809223  1  -1.178413  0  -0.295279  -0.534834  0  2.14649  0
O  O390  1  0.87833659  0.35193248  0.36599696  1  -1.178011  0  -0.295253  -0.534975  0  2.146252  0
O  O391  1  0.12164263  0.36599576  0.64807448  1  -1.177877  0  -0.295359  -0.535128  0  2.146321  0
O  O392  1  0.80162121  0.15032351  0.88776094  1  -1.207907  0  -0.313745  -0.616665  0  2.348771  0
O  O393  1  0.19838726  0.88777493  0.84968855  1  -1.207946  0  -0.313646  -0.616419  0  2.348812  0
O  O394  1  0.69836320  0.65031596  0.61223486  1  -1.207303  0  -0.313697  -0.616475  0  2.34865  0
O  O395  1  0.80160310  0.84968618  0.11220451  1  -1.207665  0  -0.313728  -0.616551  0  2.348836  0
O  O396  1  0.30158874  0.61220986  0.34968109  1  -1.20779  0  -0.313781  -0.616657  0  2.349035  0
O  O397  1  0.19841149  0.11217559  0.15030336  1  -1.2075  0  -0.313502  -0.616272  0  2.348648  0
O  O398  1  0.69836047  0.34968261  0.38772449  1  -1.208213  0  -0.313578  -0.616312  0  2.34847  0
O  O399  1  0.30161907  0.38769870  0.65030235  1  -1.208564  0  -0.313507  -0.61652  0  2.349018  0
O  O400  1  0.57198371  0.02476384  0.75345211  1  -1.159558  0  -0.29851  -0.5328  0  2.172836  0
O  O401  1  0.42803109  0.75347170  0.97522854  1  -1.159968  0  -0.29829  -0.532523  0  2.172679  0
O  O402  1  0.92801430  0.52476239  0.74654321  1  -1.159907  0  -0.298482  -0.532621  0  2.172866  0
O  O403  1  0.57199582  0.97522076  0.24654755  1  -1.160528  0  -0.298639  -0.532924  0  2.172706  0
O  O404  1  0.07199014  0.74656769  0.47524357  1  -1.160354  0  -0.298581  -0.532696  0  2.17237  0
O  O405  1  0.42802647  0.24654605  0.02475362  1  -1.159518  0  -0.298356  -0.532447  0  2.172921  0
O  O406  1  0.92798220  0.47520873  0.25345739  1  -1.161264  0  -0.298571  -0.532916  0  2.172476  0
O  O407  1  0.07200342  0.25345314  0.52476991  1  -1.159727  0  -0.298542  -0.532727  0  2.172563  0
O  O408  1  0.73083618  0.06838737  0.71428276  1  -1.158683  0  -0.290323  -0.51688  0  2.144998  0
O  O409  1  0.26918805  0.71432328  0.93155074  1  -1.158444  0  -0.290367  -0.51688  0  2.145264  0
O  O410  1  0.76915404  0.56838637  0.78572179  1  -1.158798  0  -0.290286  -0.516713  0  2.145047  0
O  O411  1  0.73084932  0.93159807  0.28571579  1  -1.159316  0  -0.290349  -0.516973  0  2.145047  0
O  O412  1  0.23085177  0.78573756  0.43161070  1  -1.159082  0  -0.290267  -0.516932  0  2.144907  0
O  O413  1  0.26916847  0.28569831  0.06840547  1  -1.158752  0  -0.290312  -0.516836  0  2.145206  0
O  O414  1  0.76912162  0.43157350  0.21428771  1  -1.159905  0  -0.290463  -0.517224  0  2.145334  0
O  O415  1  0.23085932  0.21428670  0.56839804  1  -1.159446  0  -0.290309  -0.51685  0  2.145089  0
O  O416  1  0.51161631  0.41291262  0.77685456  1  -1.119131  0  -0.279404  -0.493789  0  2.176471  0
O  O417  1  0.48838298  0.77682043  0.58709219  1  -1.118698  0  -0.279405  -0.493598  0  2.176271  0
O  O418  1  0.98838251  0.91291996  0.72318370  1  -1.118709  0  -0.279339  -0.493533  0  2.176244  0
O  O419  1  0.51160772  0.58711445  0.22317845  1  -1.118865  0  -0.279437  -0.493758  0  2.176138  0
O  O420  1  0.01166586  0.72316821  0.08706903  1  -1.118503  0  -0.27917  -0.493603  0  2.176237  0
O  O421  1  0.48836490  0.22319543  0.41288472  1  -1.118684  0  -0.279137  -0.493298  0  2.175903  0
O  O422  1  0.98838021  0.08708517  0.27681945  1  -1.11872  0  -0.279473  -0.493717  0  2.175951  0
O  O423  1  0.01164893  0.27682849  0.91289975  1  -1.118462  0  -0.279374  -0.493763  0  2.176045  0
O  O424  1  0.67429923  0.42557212  0.72416319  1  -1.194088  0  -0.294829  -0.578681  0  2.318553  0
O  O425  1  0.32569422  0.72414163  0.57441071  1  -1.194265  0  -0.294839  -0.57863  0  2.318264  0
O  O426  1  0.82568181  0.92557355  0.77587028  1  -1.195238  0  -0.29468  -0.578522  0  2.318922  0
O  O427  1  0.67430159  0.57439392  0.27584936  1  -1.194194  0  -0.294905  -0.578825  0  2.318355  0
O  O428  1  0.17436536  0.77585075  0.07440838  1  -1.194862  0  -0.294743  -0.578652  0  2.318401  0
O  O429  1  0.32567191  0.27585722  0.42558562  1  -1.194656  0  -0.294798  -0.578614  0  2.31854  0
O  O430  1  0.82568101  0.07440573  0.22415228  1  -1.194369  0  -0.294904  -0.578825  0  2.318523  0
O  O431  1  0.17434602  0.22415620  0.92559718  1  -1.194482  0  -0.294857  -0.578727  0  2.318183  0
O  O432  1  0.47979059  0.31745392  0.55718811  1  -1.233047  0  -0.317569  -0.664666  0  2.340263  0
O  O433  1  0.52042019  0.55717433  0.68256663  1  -1.233722  0  -0.317568  -0.664261  0  2.340145  0
O  O434  1  0.02033740  0.81744943  0.94280932  1  -1.233505  0  -0.317427  -0.664555  0  2.340364  0
O  O435  1  0.47957462  0.68256496  0.44280984  1  -1.233501  0  -0.317602  -0.664254  0  2.339861  0
O  O436  1  0.97965773  0.94279163  0.18254762  1  -1.23338  0  -0.317534  -0.664574  0  2.34038  0
O  O437  1  0.52046948  0.44282110  0.31741619  1  -1.233286  0  -0.317617  -0.664317  0  2.340359  0
O  O438  1  0.02038150  0.18255726  0.05716184  1  -1.23375  0  -0.317633  -0.664564  0  2.340013  0
O  O439  1  0.97953423  0.05718115  0.81742038  1  -1.233652  0  -0.317635  -0.664289  0  2.339884  0
O  O440  1  0.54012610  0.30179310  0.66597629  1  -1.15154  0  -0.294125  -0.515111  0  2.165  0
O  O441  1  0.45979975  0.66590818  0.69818220  1  -1.151034  0  -0.293842  -0.51476  0  2.164968  0
O  O442  1  0.95988591  0.80181416  0.83404635  1  -1.151653  0  -0.293979  -0.514863  0  2.164671  0
O  O443  1  0.54019920  0.69817760  0.33407312  1  -1.151492  0  -0.293937  -0.514895  0  2.164962  0
O  O444  1  0.04019050  0.83404405  0.19818483  1  -1.151341  0  -0.294019  -0.514922  0  2.164638  0
O  O445  1  0.45962162  0.33413440  0.30182981  1  -1.150585  0  -0.294142  -0.51529  0  2.164726  0
O  O446  1  0.95981431  0.19816826  0.16590605  1  -1.151343  0  -0.293912  -0.514809  0  2.164812  0
O  O447  1  0.04032621  0.16588327  0.80181753  1  -1.150734  0  -0.293945  -0.514995  0  2.165034  0
