# generated using pymatgen
data_Zn4H33C45N3O13
_symmetry_space_group_name_H-M   'P 1'
_cell_length_a   18.97324244
_cell_length_b   18.97328007
_cell_length_c   25.29619802
_cell_angle_alpha   67.97821006
_cell_angle_beta   67.97828216
_cell_angle_gamma   60.00589997
_symmetry_Int_Tables_number   1
_chemical_formula_structural   Zn4H33C45N3O13
_chemical_formula_sum   'Zn16 H132 C180 N12 O52'
_cell_volume   7109.11344519
_cell_formula_units_Z   4
loop_
 _symmetry_equiv_pos_site_id
 _symmetry_equiv_pos_as_xyz
  1  'x, y, z'
loop_
 _atom_site_type_symbol
 _atom_site_label
 _atom_site_symmetry_multiplicity
 _atom_site_fract_x
 _atom_site_fract_y
 _atom_site_fract_z
 _atom_site_occupancy
 _atom_site_pbe_bader_charge
 _atom_site_pbe_bader_spin_density
 _atom_site_pbe_cm5_charge
 _atom_site_pbe_ddec_charge
 _atom_site_pbe_ddec_spin_density
 _atom_site_pbe_ddec_sum_bond_order
 _atom_site_pbe_magmom
Zn  Zn0  1  0.36978104  0.36961351  0.89103048  1  1.28683  0  0.664968  0.955093  0  2.369562  0
Zn  Zn1  1  0.63039101  0.63021540  0.10897036  1  1.286985  0  0.664965  0.955107  0  2.369586  0
Zn  Zn2  1  0.43953967  0.24895235  0.00494697  1  1.317127  0  0.668721  0.964117  0  2.380316  0
Zn  Zn3  1  0.30649270  0.43950973  0.00505114  1  1.317879  0  0.668809  0.964787  0  2.378454  0
Zn  Zn4  1  0.24891559  0.30662410  0.00498857  1  1.318117  0  0.667993  0.963525  0  2.379969  0
Zn  Zn5  1  0.56049089  0.69350583  0.99494933  1  1.317905  0  0.668816  0.964809  0  2.37842  0
Zn  Zn6  1  0.75104841  0.56045855  0.99505260  1  1.317105  0  0.668712  0.964147  0  2.380273  0
Zn  Zn7  1  0.69337543  0.75108285  0.99501190  1  1.318113  0  0.667985  0.963454  0  2.38005  0
Zn  Zn8  1  0.80836337  0.80844642  0.57486862  1  1.291007  0  0.673437  0.963108  0  2.436047  0
Zn  Zn9  1  0.19155644  0.19163518  0.42513171  1  1.290992  0  0.673419  0.96309  0  2.435902  0
Zn  Zn10  1  0.86635154  0.93187158  0.46164720  1  1.311854  0  0.666863  0.954634  0  2.385315  0
Zn  Zn11  1  0.73998263  0.86641749  0.46167274  1  1.310631  0  0.667304  0.955587  0  2.381816  0
Zn  Zn12  1  0.93185867  0.74005535  0.46166110  1  1.310394  0  0.667102  0.955067  0  2.38417  0
Zn  Zn13  1  0.13358046  0.26001752  0.53832882  1  1.310645  0  0.667287  0.955541  0  2.381906  0
Zn  Zn14  1  0.06812633  0.13365024  0.53835396  1  1.311873  0  0.666873  0.954666  0  2.385372  0
Zn  Zn15  1  0.25994242  0.06814124  0.53834002  1  1.310379  0  0.667098  0.95506  0  2.384132  0
H  H16  1  0.69332565  0.16249100  0.90942449  1  0.096015  0  0.108519  0.11371  0  0.987208  0
H  H17  1  0.23487922  0.69302935  0.90947048  1  0.089972  0  0.108278  0.112845  0  0.988613  0
H  H18  1  0.16283415  0.23480848  0.90929126  1  0.121261  0  0.108409  0.113176  0  0.988512  0
H  H19  1  0.30697456  0.76511995  0.09053142  1  0.09004  0  0.108304  0.112888  0  0.988587  0
H  H20  1  0.83750906  0.30667016  0.09057422  1  0.095915  0  0.1085  0.113645  0  0.98729  0
H  H21  1  0.76519191  0.83716660  0.09070830  1  0.121264  0  0.108401  0.113177  0  0.988481  0
H  H22  1  0.83222801  0.09897671  0.84468167  1  0.030929  0  0.100421  0.104423  0  1.016084  0
H  H23  1  0.22413602  0.83199306  0.84482094  1  0.03244  0  0.100377  0.104657  0  1.016585  0
H  H24  1  0.09938707  0.22413023  0.84451245  1  0.059652  0  0.101108  0.105263  0  1.017381  0
H  H25  1  0.16800984  0.77586448  0.15517958  1  0.03249  0  0.100348  0.10463  0  1.01663  0
H  H26  1  0.90102256  0.16776816  0.15531849  1  0.03088  0  0.100392  0.104353  0  1.016147  0
H  H27  1  0.77587222  0.90061161  0.15548668  1  0.059628  0  0.101085  0.105247  0  1.017412  0
H  H28  1  0.71021344  0.15590727  0.71051022  1  0.078187  0  0.10639  0.115823  0  0.998183  0
H  H29  1  0.42345654  0.71022353  0.71058200  1  0.058157  0  0.106279  0.11559  0  0.998349  0
H  H30  1  0.15600261  0.42363156  0.71047236  1  0.054261  0  0.106324  0.115843  0  0.997401  0
H  H31  1  0.28977705  0.57654196  0.28941877  1  0.058113  0  0.106267  0.115564  0  0.998398  0
H  H32  1  0.84409578  0.28978327  0.28948860  1  0.078485  0  0.106354  0.11579  0  0.998173  0
H  H33  1  0.57636860  0.84399821  0.28952750  1  0.054315  0  0.106339  0.115847  0  0.997374  0
H  H34  1  0.57330664  0.22792821  0.77344109  1  0.08999  0  0.102021  0.096116  0  1.030964  0
H  H35  1  0.42550896  0.57324103  0.77341655  1  0.090794  0  0.102235  0.096836  0  1.030055  0
H  H36  1  0.22808425  0.42552927  0.77340426  1  0.056791  0  0.101941  0.095647  0  1.032697  0
H  H37  1  0.42676090  0.57448838  0.22658546  1  0.090663  0  0.102247  0.096834  0  1.029975  0
H  H38  1  0.77207420  0.42669082  0.22655636  1  0.08998  0  0.102009  0.096061  0  1.030944  0
H  H39  1  0.57447012  0.77191929  0.22659471  1  0.056568  0  0.101917  0.095628  0  1.032717  0
H  H40  1  0.95797820  0.01862637  0.77821605  1  0.020918  0  0.09391  0.097131  0  0.987518  0
H  H41  1  0.24502279  0.95804180  0.77826117  1  0.029934  0  0.093833  0.097506  0  0.987869  0
H  H42  1  0.01863811  0.24538939  0.77824208  1  0.016718  0  0.09376  0.097414  0  0.987572  0
H  H43  1  0.04195943  0.75497915  0.22173775  1  0.029937  0  0.093836  0.097513  0  0.987883  0
H  H44  1  0.98137854  0.04201678  0.22178498  1  0.02085  0  0.093882  0.097085  0  0.987568  0
H  H45  1  0.75461209  0.98136027  0.22175575  1  0.0167  0  0.093771  0.097436  0  0.987564  0
H  H46  1  0.92700512  0.12958235  0.75195310  1  0.052657  0  0.103214  0.113483  0  0.989941  0
H  H47  1  0.19151145  0.92685120  0.75197969  1  0.064385  0  0.103395  0.11478  0  0.989414  0
H  H48  1  0.12957233  0.19163371  0.75196119  1  0.037158  0  0.103311  0.114302  0  0.989619  0
H  H49  1  0.07315294  0.80848713  0.24802013  1  0.064392  0  0.103372  0.114743  0  0.989443  0
H  H50  1  0.87042369  0.07298908  0.24804813  1  0.052715  0  0.10325  0.113501  0  0.989906  0
H  H51  1  0.80836804  0.87042640  0.24803658  1  0.053396  0  0.103303  0.114287  0  0.989603  0
H  H52  1  0.98317773  0.06310102  0.70161542  1  0.096666  0  0.110485  0.132862  0  0.998676  0
H  H53  1  0.25211730  0.98304921  0.70166200  1  0.092487  0  0.110539  0.133032  0  0.998376  0
H  H54  1  0.06308943  0.25228779  0.70164422  1  0.075202  0  0.110695  0.133581  0  0.998103  0
H  H55  1  0.01695346  0.74788197  0.29833686  1  0.092557  0  0.110561  0.133047  0  0.998362  0
H  H56  1  0.93690370  0.01682012  0.29838524  1  0.096427  0  0.110526  0.132897  0  0.998743  0
H  H57  1  0.74771747  0.93690866  0.29835384  1  0.075332  0  0.110726  0.13365  0  0.998029  0
H  H58  1  0.91795955  0.04774444  0.55102663  1  0.085942  0  0.107259  0.111833  0  1.010552  0
H  H59  1  0.48333459  0.91776434  0.55116524  1  0.071817  0  0.107536  0.11268  0  1.009856  0
H  H60  1  0.04783244  0.48353995  0.55107822  1  0.108613  0  0.107672  0.11255  0  1.010152  0
H  H61  1  0.08223717  0.51666417  0.44883391  1  0.07186  0  0.107522  0.112679  0  1.009923  0
H  H62  1  0.95225867  0.08203946  0.44897332  1  0.086595  0  0.107252  0.111813  0  1.010545  0
H  H63  1  0.51646247  0.95216196  0.44892347  1  0.108565  0  0.107636  0.112481  0  1.010195  0
H  H64  1  0.91901663  0.11452849  0.61873459  1  0.118736  0  0.105441  0.120205  0  1.043583  0
H  H65  1  0.34778804  0.91890722  0.61888343  1  0.121703  0  0.105025  0.119404  0  1.0445  0
H  H66  1  0.11457946  0.34796057  0.61877019  1  0.116451  0  0.10515  0.119884  0  1.044458  0
H  H67  1  0.08109458  0.65221118  0.38111541  1  0.121433  0  0.105024  0.119403  0  1.044624  0
H  H68  1  0.88547737  0.08098021  0.38126397  1  0.118675  0  0.105434  0.12013  0  1.043735  0
H  H69  1  0.65204118  0.88541615  0.38123071  1  0.11629  0  0.105114  0.119794  0  1.044519  0
H  H70  1  0.80122008  0.97005916  0.76535620  1  0.082225  0  0.108978  0.118255  0  0.98925  0
H  H71  1  0.46345549  0.80112036  0.76549997  1  0.076758  0  0.108765  0.118895  0  0.988542  0
H  H72  1  0.96980963  0.46339644  0.76547552  1  0.06285  0  0.109092  0.118675  0  0.988723  0
H  H73  1  0.19888153  0.53654308  0.23449919  1  0.076698  0  0.108777  0.118944  0  0.988491  0
H  H74  1  0.02994745  0.19877626  0.23464278  1  0.082183  0  0.109005  0.118305  0  0.98918  0
H  H75  1  0.53660484  0.03018956  0.23452544  1  0.062912  0  0.109121  0.11873  0  0.988659  0
H  H76  1  0.80018226  0.90347726  0.69737242  1  0.067534  0  0.109777  0.115652  0  0.989585  0
H  H77  1  0.59900191  0.80019342  0.69752612  1  0.09651  0  0.110393  0.117033  0  0.990725  0
H  H78  1  0.90326526  0.59903364  0.69750028  1  0.116444  0  0.110286  0.116954  0  0.990802  0
H  H79  1  0.19980893  0.40099691  0.30247334  1  0.096694  0  0.110372  0.116993  0  0.99074  0
H  H80  1  0.09652736  0.19981639  0.30262691  1  0.067696  0  0.109774  0.115676  0  0.98959  0
H  H81  1  0.40096807  0.09673238  0.30250163  1  0.116527  0  0.110289  0.116929  0  0.990817  0
H  H82  1  0.18077900  0.70257473  0.36644524  1  0.101841  0  0.103466  0.104675  0  1.011841  0
H  H83  1  0.75026339  0.18065564  0.36648930  1  0.083364  0  0.103265  0.104806  0  1.011566  0
H  H84  1  0.70258444  0.75034942  0.36633594  1  0.082827  0  0.103125  0.104064  0  1.01262  0
H  H85  1  0.81933977  0.24974080  0.63350918  1  0.083539  0  0.103275  0.104781  0  1.011594  0
H  H86  1  0.29742418  0.81922157  0.63355249  1  0.101825  0  0.103465  0.104701  0  1.01179  0
H  H87  1  0.24964843  0.29741342  0.63366675  1  0.082923  0  0.103132  0.104082  0  1.012604  0
H  H88  1  0.31253292  0.70652723  0.30036601  1  0.052696  0  0.097224  0.101239  0  1.049589  0
H  H89  1  0.68068597  0.31252859  0.30043817  1  0.078761  0  0.096623  0.100306  0  1.049422  0
H  H90  1  0.70640857  0.68070349  0.30030946  1  0.084504  0  0.09704  0.101156  0  1.050374  0
H  H91  1  0.68746710  0.31931930  0.69956017  1  0.078778  0  0.096622  0.100262  0  1.049529  0
H  H92  1  0.29347093  0.68746836  0.69963340  1  0.052791  0  0.097221  0.101259  0  1.049552  0
H  H93  1  0.31929595  0.29358867  0.69969222  1  0.084574  0  0.097059  0.101165  0  1.050416  0
H  H94  1  0.20555783  0.97354099  0.28356051  1  0.083485  0  0.103083  0.113103  0  1.015913  0
H  H95  1  0.53731249  0.20578027  0.28351565  1  0.078204  0  0.102398  0.111682  0  1.017432  0
H  H96  1  0.97340558  0.53725912  0.28351803  1  0.086426  0  0.102804  0.112351  0  1.01627  0
H  H97  1  0.79421773  0.46268922  0.71648539  1  0.078174  0  0.102372  0.111633  0  1.017466  0
H  H98  1  0.02645757  0.79444217  0.71643967  1  0.083446  0  0.103095  0.113089  0  1.01604  0
H  H99  1  0.46274187  0.02659261  0.71648087  1  0.086392  0  0.102783  0.112332  0  1.016296  0
H  H100  1  0.07380518  0.96789975  0.34983823  1  0.101326  0  0.097263  0.099363  0  1.047334  0
H  H101  1  0.60839100  0.07391820  0.34973396  1  0.09683  0  0.097212  0.099276  0  1.046668  0
H  H102  1  0.96788598  0.60836777  0.34974921  1  0.086324  0  0.097165  0.099878  0  1.047671  0
H  H103  1  0.92608083  0.39160764  0.65026819  1  0.09683  0  0.097169  0.099241  0  1.046702  0
H  H104  1  0.03209761  0.92619434  0.65016273  1  0.101125  0  0.097262  0.099369  0  1.047293  0
H  H105  1  0.39163213  0.03211438  0.65025012  1  0.086528  0  0.097175  0.099889  0  1.047739  0
H  H106  1  0.43796759  0.73778522  0.28162624  1  0.042251  0  0.100107  0.109866  0  0.976492  0
H  H107  1  0.54290977  0.43794009  0.28156225  1  0.041707  0  0.100152  0.110317  0  0.975999  0
H  H108  1  0.73743030  0.54289076  0.28150023  1  0.036694  0  0.099791  0.109484  0  0.976625  0
H  H109  1  0.56205600  0.45709323  0.71843722  1  0.041824  0  0.100128  0.110287  0  0.975996  0
H  H110  1  0.26221529  0.56203358  0.71837300  1  0.042257  0  0.10006  0.109774  0  0.97648  0
H  H111  1  0.45710724  0.26256778  0.71850253  1  0.036697  0  0.099804  0.109519  0  0.976678  0
H  H112  1  0.46711666  0.78159080  0.20486712  1  0.096978  0  0.107903  0.126763  0  1.024931  0
H  H113  1  0.54668757  0.46714542  0.20480544  1  0.095184  0  0.107787  0.126479  0  1.02452  0
H  H114  1  0.78132429  0.54663217  0.20476282  1  0.079937  0  0.107875  0.127046  0  1.024578  0
H  H115  1  0.53285213  0.45331367  0.79519449  1  0.094971  0  0.107768  0.126441  0  1.02463  0
H  H116  1  0.21840883  0.53288305  0.79513278  1  0.097014  0  0.107891  0.12674  0  1.024944  0
H  H117  1  0.45336682  0.21867135  0.79523918  1  0.079909  0  0.10787  0.127093  0  1.024558  0
H  H118  1  0.40801520  0.72278499  0.22885320  1  0.06573  0  0.098629  0.111721  0  1.028478  0
H  H119  1  0.64060577  0.40798046  0.22879034  1  0.071274  0  0.098885  0.112748  0  1.029597  0
H  H120  1  0.72261412  0.64058009  0.22872818  1  0.058783  0  0.098858  0.112552  0  1.029229  0
H  H121  1  0.59201860  0.35939626  0.77120866  1  0.071088  0  0.098916  0.112745  0  1.029586  0
H  H122  1  0.27721549  0.59198378  0.77114824  1  0.065574  0  0.098643  0.111714  0  1.028504  0
H  H123  1  0.35941919  0.27738005  0.77127484  1  0.058707  0  0.098892  0.112632  0  1.029238  0
H  H124  1  0.46628977  0.02513167  0.13386090  1  0.082756  0  0.107716  0.113086  0  0.992675  0
H  H125  1  0.37486788  0.46613891  0.13386931  1  0.070805  0  0.107408  0.112616  0  0.992923  0
H  H126  1  0.02497923  0.37476803  0.13384826  1  0.090489  0  0.107483  0.112673  0  0.992532  0
H  H127  1  0.53385657  0.62513312  0.86613234  1  0.070694  0  0.107422  0.1126  0  0.9929  0
H  H128  1  0.97486929  0.53370912  0.86613781  1  0.082713  0  0.107711  0.113066  0  0.992738  0
H  H129  1  0.62523091  0.97501617  0.86615301  1  0.089952  0  0.107465  0.112656  0  0.992444  0
H  H130  1  0.46104018  0.89903505  0.21060428  1  0.07682  0  0.099216  0.105251  0  1.046213  0
H  H131  1  0.42951508  0.46087653  0.21063001  1  0.071784  0  0.099172  0.104943  0  1.046767  0
H  H132  1  0.89884965  0.42935397  0.21062107  1  0.042105  0  0.098982  0.104746  0  1.046861  0
H  H133  1  0.53912021  0.57048699  0.78937103  1  0.072078  0  0.099158  0.10494  0  1.046805  0
H  H134  1  0.10096518  0.53896112  0.78939491  1  0.076807  0  0.099259  0.105287  0  1.046217  0
H  H135  1  0.57064592  0.10114680  0.78938022  1  0.042507  0  0.098963  0.104712  0  1.046875  0
H  H136  1  0.22325945  0.95809598  0.18492213  1  0.063364  0  0.104017  0.111414  0  1.007391  0
H  H137  1  0.63389523  0.22313668  0.18493490  1  0.07301  0  0.103716  0.110676  0  1.006881  0
H  H138  1  0.95790670  0.63371590  0.18500011  1  0.06271  0  0.103728  0.110284  0  1.007889  0
H  H139  1  0.77686120  0.36611024  0.81506241  1  0.073103  0  0.103714  0.110661  0  1.006837  0
H  H140  1  0.04190755  0.77673606  0.81508149  1  0.063327  0  0.104035  0.111431  0  1.007386  0
H  H141  1  0.36628418  0.04209011  0.81499895  1  0.062912  0  0.103725  0.110303  0  1.007888  0
H  H142  1  0.22732244  0.08747440  0.11043816  1  0.08926  0  0.105964  0.110537  0  0.995993  0
H  H143  1  0.57485458  0.22708479  0.11055126  1  0.088384  0  0.105773  0.109987  0  0.995806  0
H  H144  1  0.08727281  0.57482736  0.11053811  1  0.093047  0  0.10577  0.110929  0  0.993879  0
H  H145  1  0.77291282  0.42514939  0.88944690  1  0.088421  0  0.105786  0.110032  0  0.995881  0
H  H146  1  0.91252743  0.77267331  0.88956493  1  0.089003  0  0.105978  0.110551  0  0.995975  0
H  H147  1  0.42517165  0.91272498  0.88946277  1  0.09297  0  0.105788  0.110916  0  0.993852  0
C  C148  1  0.54108426  0.23740392  0.88455552  1  1.542093  0  0.219718  0.598528  0  4.180354  0
C  C149  1  0.33706393  0.54091417  0.88454801  1  1.556708  0  0.219652  0.598518  0  4.181388  0
C  C150  1  0.23753649  0.33710416  0.88452758  1  1.490476  0  0.218739  0.59752  0  4.178718  0
C  C151  1  0.45908995  0.66293153  0.11545308  1  1.556703  0  0.219743  0.598613  0  4.181305  0
C  C152  1  0.76259953  0.45891418  0.11544094  1  1.542095  0  0.219693  0.598513  0  4.180353  0
C  C153  1  0.66289663  0.76246519  0.11547238  1  1.490914  0  0.218719  0.597468  0  4.178875  0
C  C154  1  0.62389363  0.19817824  0.84627427  1  -0.020578  0  -0.037751  -0.081233  0  4.020212  0
C  C155  1  0.33180617  0.62372213  0.84627458  1  -0.004047  0  -0.037496  -0.080723  0  4.019627  0
C  C156  1  0.19835194  0.33182480  0.84621198  1  0.057736  0  -0.036176  -0.079314  0  4.020312  0
C  C157  1  0.37628187  0.66819046  0.15372654  1  -0.004342  0  -0.037591  -0.080813  0  4.019766  0
C  C158  1  0.80182376  0.37610367  0.15372340  1  -0.020553  0  -0.037753  -0.081155  0  4.020092  0
C  C159  1  0.66817475  0.80165011  0.15378583  1  0.05754  0  -0.036165  -0.079261  0  4.020392  0
C  C160  1  0.69786547  0.16196558  0.86533138  1  -0.038956  0  -0.080459  -0.064542  0  3.99003  0
C  C161  1  0.27498193  0.69762949  0.86538505  1  -0.051722  0  -0.079867  -0.062683  0  3.991853  0
C  C162  1  0.16221909  0.27496695  0.86522972  1  -0.092519  0  -0.081044  -0.064226  0  3.995037  0
C  C163  1  0.30237495  0.72501554  0.13461601  1  -0.051384  0  -0.079888  -0.062754  0  3.992016  0
C  C164  1  0.83803655  0.30213179  0.13466555  1  -0.038209  0  -0.080472  -0.064575  0  3.990097  0
C  C165  1  0.72503188  0.83778114  0.13477040  1  -0.092406  0  -0.081028  -0.064203  0  3.995011  0
C  C166  1  0.77568927  0.12590416  0.82902254  1  -0.017077  0  -0.106806  -0.200657  0  3.996  0
C  C167  1  0.26949594  0.77549891  0.82913711  1  -0.024454  0  -0.107275  -0.201613  0  3.998907  0
C  C168  1  0.12618035  0.26949256  0.82892072  1  -0.06158  0  -0.107562  -0.202097  0  4.000377  0
C  C169  1  0.22450503  0.73050272  0.17086173  1  -0.024817  0  -0.107168  -0.201433  0  3.999002  0
C  C170  1  0.87409835  0.22430686  0.17097547  1  -0.01745  0  -0.106701  -0.200459  0  3.99581  0
C  C171  1  0.73050839  0.87381934  0.17107854  1  -0.061569  0  -0.107541  -0.202136  0  4.000357  0
C  C172  1  0.78133833  0.12127157  0.77305637  1  0.397784  0  0.105152  0.196491  0  4.043939  0
C  C173  1  0.32442871  0.78126063  0.77317950  1  0.369256  0  0.105801  0.194724  0  4.046053  0
C  C174  1  0.12142331  0.32451267  0.77299514  1  0.398146  0  0.105995  0.19595  0  4.041398  0
C  C175  1  0.21874135  0.67557092  0.22681925  1  0.369455  0  0.105798  0.194599  0  4.046207  0
C  C176  1  0.87873413  0.21865582  0.22694130  1  0.397564  0  0.105085  0.196467  0  4.043851  0
C  C177  1  0.67548666  0.87857806  0.22700444  1  0.398337  0  0.106054  0.196075  0  4.041366  0
C  C178  1  0.70649777  0.15726963  0.75417309  1  -0.053497  0  -0.100459  -0.191716  0  4.008342  0
C  C179  1  0.38217751  0.70645412  0.75425360  1  -0.011526  0  -0.100413  -0.190699  0  4.008794  0
C  C180  1  0.15739918  0.38227615  0.75412196  1  -0.015214  0  -0.101457  -0.193012  0  4.005876  0
C  C181  1  0.29354695  0.61781911  0.24574675  1  -0.011535  0  -0.10039  -0.190622  0  4.008757  0
C  C182  1  0.84273536  0.29349689  0.24582496  1  -0.053892  0  -0.100437  -0.191732  0  4.008311  0
C  C183  1  0.61772498  0.84260256  0.24587660  1  -0.015512  0  -0.101496  -0.193018  0  4.005872  0
C  C184  1  0.63006757  0.19668362  0.78950230  1  -0.064486  0  -0.088419  -0.087384  0  4.04786  0
C  C185  1  0.38391367  0.62997350  0.78951679  1  -0.067485  0  -0.089511  -0.089253  0  4.045677  0
C  C186  1  0.19683162  0.38395457  0.78944646  1  -0.059494  0  -0.08844  -0.086628  0  4.046278  0
C  C187  1  0.37002805  0.61608337  0.21048494  1  -0.067062  0  -0.089553  -0.089271  0  4.045589  0
C  C188  1  0.80331964  0.36992861  0.21049691  1  -0.064311  0  -0.088358  -0.087263  0  4.047748  0
C  C189  1  0.61604577  0.80316882  0.21055272  1  -0.059184  0  -0.088448  -0.086696  0  4.046182  0
C  C190  1  0.93530805  0.07350629  0.74251122  1  0.276914  0  -0.128686  -0.252282  0  3.932135  0
C  C191  1  0.24866099  0.93523288  0.74258064  1  0.255398  0  -0.128614  -0.255037  0  3.932184  0
C  C192  1  0.07351126  0.24886380  0.74253057  1  0.318099  0  -0.129414  -0.256206  0  3.931969  0
C  C193  1  0.06476941  0.75133924  0.25741809  1  0.255377  0  -0.12859  -0.254987  0  3.932196  0
C  C194  1  0.92649803  0.06468911  0.25748971  1  0.277112  0  -0.128748  -0.252272  0  3.93233  0
C  C195  1  0.75113874  0.92648761  0.25746805  1  0.302024  0  -0.129429  -0.256235  0  3.931795  0
C  C196  1  0.85264758  0.93460865  0.58031113  1  1.531638  0  0.225672  0.605631  0  4.169389  0
C  C197  1  0.63243296  0.85270785  0.58038170  1  1.528778  0  0.226172  0.605462  0  4.171873  0
C  C198  1  0.93459465  0.63254874  0.58035425  1  1.541605  0  0.225134  0.605182  0  4.173268  0
C  C199  1  0.14729284  0.36756552  0.41961791  1  1.528705  0  0.22616  0.605475  0  4.171821  0
C  C200  1  0.06539094  0.14735351  0.41969014  1  1.5322  0  0.225703  0.605632  0  4.169482  0
C  C201  1  0.36745366  0.06540077  0.41964769  1  1.542337  0  0.225184  0.605195  0  4.172979  0
C  C202  1  0.85801213  0.97222030  0.61999324  1  -0.044747  0  -0.024628  -0.061429  0  3.993547  0
C  C203  1  0.54981160  0.85800478  0.62012216  1  -0.04323  0  -0.023929  -0.060426  0  3.992056  0
C  C204  1  0.97219664  0.54994243  0.62007495  1  -0.030735  0  -0.023724  -0.059588  0  3.991853  0
C  C205  1  0.14199670  0.45018650  0.37987728  1  -0.043232  0  -0.023891  -0.060372  0  3.991931  0
C  C206  1  0.02777986  0.14198933  0.38000655  1  -0.044838  0  -0.024654  -0.06153  0  3.993469  0
C  C207  1  0.45006014  0.02779925  0.37992730  1  -0.030694  0  -0.023771  -0.059684  0  3.991958  0
C  C208  1  0.89274631  0.03065440  0.59799732  1  0.013372  0  -0.075695  -0.063724  0  3.956847  0
C  C209  1  0.47864914  0.89263740  0.59814296  1  0.057904  0  -0.076454  -0.065649  0  3.956696  0
C  C210  1  0.03068256  0.47881695  0.59805635  1  -0.044189  0  -0.076386  -0.06444  0  3.955764  0
C  C211  1  0.10736399  0.52134855  0.40185614  1  0.057796  0  -0.076474  -0.065751  0  3.95697  0
C  C212  1  0.96934644  0.10725515  0.40200218  1  0.012723  0  -0.075694  -0.063675  0  3.956843  0
C  C213  1  0.52118567  0.96931298  0.40194496  1  -0.044069  0  -0.076336  -0.064319  0  3.955733  0
C  C214  1  0.89392786  0.06762019  0.63574791  1  -0.038452  0  -0.091599  -0.174519  0  3.969026  0
C  C215  1  0.40274402  0.89385407  0.63591679  1  -0.121591  0  -0.091079  -0.173149  0  3.971074  0
C  C216  1  0.06763221  0.40291440  0.63580011  1  -0.024029  0  -0.091772  -0.174696  0  3.972077  0
C  C217  1  0.10614781  0.59725336  0.36408339  1  -0.12122  0  -0.09106  -0.173074  0  3.971205  0
C  C218  1  0.93238262  0.10607122  0.36425050  1  -0.037983  0  -0.091537  -0.174396  0  3.969087  0
C  C219  1  0.59708700  0.93236432  0.36420096  1  -0.023979  0  -0.091729  -0.17464  0  3.972119  0
C  C220  1  0.85996869  0.04653380  0.69602547  1  0.336472  0  0.096702  0.177134  0  4.032807  0
C  C221  1  0.39749901  0.85995242  0.69619435  1  0.343644  0  0.097146  0.177559  0  4.030971  0
C  C222  1  0.04651685  0.39762637  0.69607842  1  0.345217  0  0.097474  0.176164  0  4.031944  0
C  C223  1  0.14004918  0.60249880  0.30380462  1  0.343596  0  0.097165  0.177529  0  4.030818  0
C  C224  1  0.95347072  0.14003120  0.30397261  1  0.336318  0  0.096606  0.177109  0  4.032766  0
C  C225  1  0.60237514  0.95348148  0.30392169  1  0.345181  0  0.097508  0.176199  0  4.031964  0
C  C226  1  0.82674498  0.98667544  0.71832285  1  -0.041053  0  -0.092212  -0.174958  0  4.002408  0
C  C227  1  0.46830932  0.82672963  0.71847143  1  -0.004413  0  -0.092822  -0.177824  0  4.002108  0
C  C228  1  0.98651319  0.46833774  0.71842166  1  -0.056914  0  -0.09281  -0.176042  0  4.001261  0
C  C229  1  0.17327338  0.53168910  0.28152665  1  -0.004778  0  -0.092857  -0.177869  0  4.001955  0
C  C230  1  0.01332853  0.17325380  0.28167619  1  -0.041113  0  -0.092195  -0.175012  0  4.002374  0
C  C231  1  0.53166513  0.01348335  0.28157999  1  -0.056554  0  -0.092813  -0.176093  0  4.001236  0
C  C232  1  0.82584326  0.94985833  0.68063383  1  -0.013665  0  -0.079472  -0.070325  0  3.980818  0
C  C233  1  0.54370623  0.82588177  0.68077007  1  -0.033883  0  -0.080405  -0.071707  0  3.982398  0
C  C234  1  0.94970814  0.54375967  0.68073103  1  -0.052494  0  -0.080191  -0.072503  0  3.982979  0
C  C235  1  0.17412024  0.45629399  0.31922864  1  -0.033666  0  -0.080371  -0.071652  0  3.982302  0
C  C236  1  0.05014458  0.17415654  0.31936565  1  -0.013241  0  -0.079465  -0.070295  0  3.980708  0
C  C237  1  0.45624198  0.05028901  0.31927151  1  -0.052955  0  -0.080203  -0.072439  0  3.982944  0
C  C238  1  0.03593491  0.83408090  0.39807624  1  1.519698  0  0.218238  0.599999  0  4.176169  0
C  C239  1  0.73187306  0.03593325  0.39801625  1  1.494078  0  0.216814  0.596716  0  4.182081  0
C  C240  1  0.83411477  0.73188366  0.39801830  1  1.501207  0  0.21771  0.599484  0  4.173256  0
C  C241  1  0.96406554  0.26813063  0.60198309  1  1.494013  0  0.216842  0.596726  0  4.181932  0
C  C242  1  0.16591571  0.96406683  0.60192358  1  1.519944  0  0.218253  0.600022  0  4.175918  0
C  C243  1  0.26811393  0.16588513  0.60198241  1  1.501555  0  0.217755  0.599659  0  4.173115  0
C  C244  1  0.11674157  0.83538959  0.36088559  1  -0.011711  0  -0.042412  -0.09063  0  4.034427  0
C  C245  1  0.68700650  0.11674025  0.36081408  1  0.023066  0  -0.041892  -0.089153  0  4.03094  0
C  C246  1  0.83538363  0.68697143  0.36082285  1  -0.011356  0  -0.041879  -0.090546  0  4.034146  0
C  C247  1  0.88325699  0.31299584  0.63918638  1  0.023229  0  -0.041859  -0.089107  0  4.030912  0
C  C248  1  0.16460752  0.88326029  0.63911372  1  -0.011647  0  -0.042415  -0.090628  0  4.034278  0
C  C249  1  0.31302796  0.16461470  0.63917743  1  -0.010709  0  -0.041899  -0.090601  0  4.034151  0
C  C250  1  0.18613731  0.76205481  0.34767974  1  -0.063724  0  -0.084433  -0.064599  0  4.00096  0
C  C251  1  0.70419868  0.18609263  0.34767235  1  -0.007655  0  -0.084455  -0.065781  0  3.998197  0
C  C252  1  0.76203181  0.70421774  0.34760122  1  0.013861  0  -0.084473  -0.063915  0  4.002632  0
C  C253  1  0.81390391  0.29580446  0.65232725  1  -0.007638  0  -0.084457  -0.065755  0  3.998  0
C  C254  1  0.23794401  0.81386382  0.65231940  1  -0.063673  0  -0.084388  -0.064566  0  4.000816  0
C  C255  1  0.29578154  0.23796638  0.65239986  1  0.013729  0  -0.084486  -0.063929  0  4.002663  0
C  C256  1  0.26073344  0.76444267  0.31040824  1  -0.015  0  -0.109563  -0.200044  0  3.99894  0
C  C257  1  0.66454268  0.26074267  0.31041492  1  -0.068385  0  -0.107961  -0.197281  0  3.996696  0
C  C258  1  0.76432559  0.66450579  0.31035923  1  -0.072144  0  -0.109304  -0.200813  0  3.998404  0
C  C259  1  0.73925371  0.33546219  0.68958337  1  -0.06867  0  -0.107992  -0.197203  0  3.996645  0
C  C260  1  0.23555646  0.73926724  0.68959218  1  -0.01502  0  -0.109602  -0.200157  0  3.998999  0
C  C261  1  0.33549401  0.23567092  0.68964221  1  -0.072146  0  -0.109274  -0.200782  0  3.998507  0
C  C262  1  0.26812894  0.84130065  0.28389102  1  0.338807  0  0.105027  0.196992  0  4.020776  0
C  C263  1  0.60679818  0.26819575  0.28387080  1  0.331104  0  0.103936  0.195221  0  4.024893  0
C  C264  1  0.84113090  0.60667770  0.28388693  1  0.381452  0  0.104868  0.197909  0  4.020563  0
C  C265  1  0.73180099  0.39320603  0.71612752  1  0.331036  0  0.103894  0.195047  0  4.024839  0
C  C266  1  0.15869634  0.73187280  0.71610965  1  0.338806  0  0.105041  0.19708  0  4.020839  0
C  C267  1  0.39332362  0.15886628  0.71611320  1  0.38158  0  0.104867  0.197899  0  4.020638  0
C  C268  1  0.19972768  0.91437644  0.30026258  1  -0.034452  0  -0.104647  -0.197676  0  4.006628  0
C  C269  1  0.58561313  0.19988724  0.30024891  1  -0.013583  0  -0.10412  -0.196248  0  4.010248  0
C  C270  1  0.91425078  0.58554275  0.30024793  1  -0.047449  0  -0.104691  -0.196103  0  4.006165  0
C  C271  1  0.80011030  0.41438916  0.69975135  1  -0.013407  0  -0.104078  -0.196133  0  4.010149  0
C  C272  1  0.08562156  0.80027373  0.69973818  1  -0.034443  0  -0.104617  -0.19762  0  4.006781  0
C  C273  1  0.41445975  0.08574677  0.69975143  1  -0.047503  0  -0.104651  -0.196008  0  4.006063  0
C  C274  1  0.12580629  0.91125456  0.33756343  1  -0.027011  0  -0.088688  -0.071187  0  4.004512  0
C  C275  1  0.62533238  0.12589600  0.33750303  1  -0.072461  0  -0.089097  -0.072007  0  4.003852  0
C  C276  1  0.91120402  0.62528108  0.33752495  1  -0.070268  0  -0.089313  -0.073395  0  4.005212  0
C  C277  1  0.87410202  0.37466826  0.66249803  1  -0.072621  0  -0.089067  -0.072019  0  4.003866  0
C  C278  1  0.08874328  0.87419500  0.66243697  1  -0.026898  0  -0.088731  -0.071252  0  4.004434  0
C  C279  1  0.37471852  0.08879463  0.66247489  1  -0.071109  0  -0.089382  -0.073511  0  4.005304  0
C  C280  1  0.41748866  0.76760406  0.24012767  1  0.23685  0  -0.132648  -0.259051  0  3.905606  0
C  C281  1  0.57503563  0.41749317  0.24005451  1  0.247107  0  -0.133668  -0.262325  0  3.907911  0
C  C282  1  0.76733066  0.57499531  0.24002284  1  0.266675  0  -0.132402  -0.259746  0  3.904819  0
C  C283  1  0.58250352  0.42496739  0.75994522  1  0.247384  0  -0.133678  -0.262263  0  3.907989  0
C  C284  1  0.23239539  0.58251260  0.75987260  1  0.236946  0  -0.13259  -0.258916  0  3.905591  0
C  C285  1  0.42500432  0.23266598  0.75997867  1  0.266822  0  -0.13243  -0.259904  0  3.905028  0
C  C286  1  0.34860021  0.14173317  0.07246071  1  1.553215  0  0.221031  0.601413  0  4.182212  0
C  C287  1  0.43736043  0.34850496  0.07244217  1  1.547865  0  0.221827  0.601805  0  4.181402  0
C  C288  1  0.14151736  0.43734498  0.07242251  1  1.541966  0  0.22176  0.601936  0  4.179464  0
C  C289  1  0.65149147  0.56264107  0.92755840  1  1.547905  0  0.221929  0.602156  0  4.181144  0
C  C290  1  0.85826574  0.65139812  0.92753857  1  1.553172  0  0.221024  0.601398  0  4.182051  0
C  C291  1  0.56265566  0.85848171  0.92757768  1  1.541744  0  0.221855  0.602076  0  4.179201  0
C  C292  1  0.34703107  0.06451395  0.11730550  1  -0.063173  0  -0.027721  -0.060734  0  4.002377  0
C  C293  1  0.47130227  0.34689480  0.11731874  1  -0.042862  0  -0.028531  -0.062114  0  4.001521  0
C  C294  1  0.06428846  0.47124016  0.11730117  1  -0.047483  0  -0.028504  -0.062725  0  4.003088  0
C  C295  1  0.65310093  0.52870067  0.88268166  1  -0.042131  0  -0.028477  -0.062102  0  4.001559  0
C  C296  1  0.93548592  0.65296781  0.88269341  1  -0.06326  0  -0.027712  -0.060764  0  4.002249  0
C  C297  1  0.52875982  0.93570870  0.88269967  1  -0.04756  0  -0.028596  -0.062968  0  4.003187  0
C  C298  1  0.41307384  0.01023217  0.14540926  1  -0.004765  0  -0.081432  -0.069861  0  3.987721  0
C  C299  1  0.43141483  0.41291954  0.14543453  1  0.030362  0  -0.081365  -0.069957  0  3.988524  0
C  C300  1  0.01005259  0.43132940  0.14541610  1  0.067547  0  -0.08109  -0.069099  0  3.985963  0
C  C301  1  0.58707678  0.56858636  0.85456691  1  0.029919  0  -0.081388  -0.069958  0  3.988462  0
C  C302  1  0.98976867  0.58692404  0.85459053  1  -0.004715  0  -0.081399  -0.06977  0  3.987609  0
C  C303  1  0.56866814  0.98994559  0.85458631  1  0.067776  0  -0.080983  -0.068934  0  3.985701  0
C  C304  1  0.41019878  0.93905077  0.18814710  1  -0.031264  0  -0.099672  -0.183368  0  3.992273  0
C  C305  1  0.46276090  0.41006204  0.18815454  1  -0.057007  0  -0.099752  -0.183122  0  3.992761  0
C  C306  1  0.93886451  0.46263026  0.18816114  1  -0.104403  0  -0.100037  -0.183128  0  3.990089  0
C  C307  1  0.58993444  0.53724232  0.81184512  1  -0.057072  0  -0.099791  -0.183198  0  3.992724  0
C  C308  1  0.06095047  0.58980128  0.81185208  1  -0.031252  0  -0.099705  -0.183445  0  3.992348  0
C  C309  1  0.53736891  0.06113279  0.81184052  1  -0.10436  0  -0.100065  -0.183142  0  3.990051  0
C  C310  1  0.34189495  0.91925736  0.20298237  1  0.382152  0  0.100309  0.188336  0  4.016092  0
C  C311  1  0.53605765  0.34182643  0.20294913  1  0.335259  0  0.101278  0.189953  0  4.014633  0
C  C312  1  0.91904639  0.53587338  0.20301084  1  0.400704  0  0.10068  0.188522  0  4.015388  0
C  C313  1  0.65817132  0.46394473  0.79705011  1  0.335111  0  0.101304  0.190066  0  4.014645  0
C  C314  1  0.08074242  0.65810459  0.79701734  1  0.382026  0  0.100297  0.188378  0  4.016144  0
C  C315  1  0.46412712  0.08095111  0.79699033  1  0.400757  0  0.100685  0.188503  0  4.015335  0
C  C316  1  0.27587131  0.97351141  0.17437423  1  0.014303  0  -0.09757  -0.183829  0  4.009251  0
C  C317  1  0.57641492  0.27574661  0.17439120  1  -0.001749  0  -0.097761  -0.184327  0  4.009612  0
C  C318  1  0.97331459  0.57623204  0.17446063  1  -0.040462  0  -0.097538  -0.181988  0  4.012209  0
C  C319  1  0.72424951  0.42358756  0.82560737  1  -0.001829  0  -0.097775  -0.184375  0  4.009653  0
C  C320  1  0.02649124  0.72412590  0.82562682  1  0.014529  0  -0.097611  -0.183911  0  4.009284  0
C  C321  1  0.42376899  0.02668131  0.82553888  1  -0.040833  0  -0.097541  -0.182069  0  4.012185  0
C  C322  1  0.27822683  0.04541628  0.13267834  1  -0.071417  0  -0.085259  -0.076719  0  3.999006  0
C  C323  1  0.54380377  0.27804746  0.13274121  1  -0.036201  0  -0.084001  -0.074537  0  3.995336  0
C  C324  1  0.04521361  0.54372560  0.13274039  1  -0.023463  0  -0.083839  -0.076352  0  3.998049  0
C  C325  1  0.72194966  0.45619893  0.86725778  1  -0.03649  0  -0.083992  -0.074558  0  3.995393  0
C  C326  1  0.95458594  0.72177083  0.86732377  1  -0.071152  0  -0.08524  -0.076645  0  3.998916  0
C  C327  1  0.45627316  0.95478449  0.86726086  1  -0.023363  0  -0.083834  -0.076207  0  3.997941  0
N  N328  1  0.85709573  0.08583137  0.73522103  1  -1.196412  0  -0.277425  -0.090234  0  3.680905  0
N  N329  1  0.32189867  0.85704856  0.73538392  1  -1.198721  0  -0.276555  -0.085893  0  3.678447  0
N  N330  1  0.08591408  0.32200491  0.73521810  1  -1.195666  0  -0.276547  -0.085252  0  3.67715  0
N  N331  1  0.14295336  0.67809889  0.26461499  1  -1.19885  0  -0.276574  -0.085888  0  3.678453  0
N  N332  1  0.91417408  0.14290030  0.26477785  1  -1.196462  0  -0.277409  -0.090364  0  3.68106  0
N  N333  1  0.67799702  0.91408383  0.26478249  1  -1.195925  0  -0.2766  -0.085353  0  3.677101  0
N  N334  1  0.34119594  0.84482101  0.24431662  1  -1.204752  0  -0.266427  -0.064947  0  3.647657  0
N  N335  1  0.56989427  0.34121733  0.24423773  1  -1.198086  0  -0.265848  -0.062627  0  3.648005  0
N  N336  1  0.84457900  0.56972348  0.24430472  1  -1.204808  0  -0.266356  -0.065505  0  3.648785  0
N  N337  1  0.65877877  0.43011083  0.75576084  1  -1.198099  0  -0.265796  -0.062567  0  3.647946  0
N  N338  1  0.15517909  0.65880442  0.75568440  1  -1.204737  0  -0.266451  -0.065016  0  3.647657  0
N  N339  1  0.43027819  0.15541808  0.75569537  1  -1.204903  0  -0.266381  -0.065517  0  3.648828  0
O  O340  1  0.34107033  0.34107613  0.97681586  1  -1.210581  0  -0.572381  -1.025379  0  2.538812  0
O  O341  1  0.65892584  0.65892750  0.02318492  1  -1.210626  0  -0.572364  -1.025322  0  2.538769  0
O  O342  1  0.83682510  0.83686971  0.48936813  1  -1.206525  0  -0.577001  -1.022934  0  2.562427  0
O  O343  1  0.16312913  0.16317533  0.51063359  1  -1.206535  0  -0.577018  -1.022938  0  2.562357  0
O  O344  1  0.47865416  0.28396059  0.86015809  1  -1.195216  0  -0.326028  -0.566576  0  2.332266  0
O  O345  1  0.37733857  0.47850815  0.86012458  1  -1.189069  0  -0.32582  -0.566354  0  2.332994  0
O  O346  1  0.28411862  0.37733881  0.86016049  1  -1.155013  0  -0.325624  -0.56609  0  2.330504  0
O  O347  1  0.52149536  0.62265696  0.13987594  1  -1.189233  0  -0.32589  -0.566448  0  2.332961  0
O  O348  1  0.71604485  0.52134232  0.13984104  1  -1.195076  0  -0.326019  -0.566576  0  2.332272  0
O  O349  1  0.62266679  0.71587913  0.13983843  1  -1.155476  0  -0.325648  -0.566126  0  2.330681  0
O  O350  1  0.53754329  0.22213827  0.93895281  1  -1.178456  0  -0.317886  -0.54753  0  2.332729  0
O  O351  1  0.30139613  0.53739289  0.93893543  1  -1.180493  0  -0.31823  -0.548325  0  2.334343  0
O  O352  1  0.22222743  0.30147577  0.93891315  1  -1.179649  0  -0.318007  -0.547777  0  2.333297  0
O  O353  1  0.46260886  0.69860488  0.06106475  1  -1.180444  0  -0.318237  -0.548323  0  2.334249  0
O  O354  1  0.77786367  0.46245069  0.06104573  1  -1.178637  0  -0.317823  -0.547527  0  2.332802  0
O  O355  1  0.69852501  0.77777311  0.06108596  1  -1.179684  0  -0.317976  -0.5477  0  2.333168  0
O  O356  1  0.82328513  0.87934531  0.60529933  1  -1.181499  0  -0.318206  -0.552729  0  2.363552  0
O  O357  1  0.69214145  0.82325638  0.60531337  1  -1.169626  0  -0.318741  -0.552523  0  2.363281  0
O  O358  1  0.87928076  0.69220892  0.60529425  1  -1.177227  0  -0.318434  -0.552736  0  2.363494  0
O  O359  1  0.17674239  0.30785962  0.39468651  1  -1.169648  0  -0.318735  -0.55256  0  2.363327  0
O  O360  1  0.12065514  0.17671367  0.39470195  1  -1.181937  0  -0.318146  -0.552629  0  2.363582  0
O  O361  1  0.30779538  0.12071448  0.39470832  1  -1.177858  0  -0.318436  -0.552705  0  2.363341  0
O  O362  1  0.87649022  0.96058325  0.52494518  1  -1.158664  0  -0.315638  -0.54621  0  2.318458  0
O  O363  1  0.63784980  0.87671621  0.52502361  1  -1.15968  0  -0.316458  -0.547036  0  2.318157  0
O  O364  1  0.96061383  0.63799439  0.52499736  1  -1.156498  0  -0.315707  -0.546479  0  2.319348  0
O  O365  1  0.12328229  0.36215055  0.47497766  1  -1.159602  0  -0.316485  -0.547052  0  2.318014  0
O  O366  1  0.03941209  0.12351584  0.47505627  1  -1.158822  0  -0.315696  -0.546253  0  2.31853  0
O  O367  1  0.36200666  0.03937943  0.47500519  1  -1.15655  0  -0.315766  -0.546524  0  2.319281  0
O  O368  1  0.97411243  0.90499505  0.40376014  1  -1.19125  0  -0.32454  -0.567821  0  2.379165  0
O  O369  1  0.71699378  0.97415089  0.40375084  1  -1.183452  0  -0.324406  -0.566567  0  2.379909  0
O  O370  1  0.90504019  0.71699545  0.40376397  1  -1.175802  0  -0.32453  -0.567212  0  2.376881  0
O  O371  1  0.02584817  0.28300783  0.59625030  1  -1.183425  0  -0.324425  -0.566534  0  2.379896  0
O  O372  1  0.09500160  0.02589067  0.59624030  1  -1.191362  0  -0.324511  -0.567821  0  2.379098  0
O  O373  1  0.28300172  0.09495969  0.59623693  1  -1.176062  0  -0.324541  -0.56726  0  2.376909  0
O  O374  1  0.03220040  0.76269207  0.42160482  1  -1.179667  0  -0.323914  -0.562034  0  2.350699  0
O  O375  1  0.78348628  0.03216024  0.42154931  1  -1.180292  0  -0.32249  -0.559804  0  2.35435  0
O  O376  1  0.76274248  0.78354028  0.42150758  1  -1.184379  0  -0.322922  -0.561109  0  2.348975  0
O  O377  1  0.96783724  0.21651763  0.57845037  1  -1.180181  0  -0.322468  -0.559803  0  2.354287  0
O  O378  1  0.23730598  0.96780003  0.57839383  1  -1.179825  0  -0.323965  -0.56208  0  2.350623  0
O  O379  1  0.21645618  0.23725830  0.57849509  1  -1.184385  0  -0.322907  -0.56117  0  2.348907  0
O  O380  1  0.28172834  0.19224863  0.05421443  1  -1.188255  0  -0.320407  -0.553792  0  2.34835  0
O  O381  1  0.47196601  0.28165454  0.05418632  1  -1.177726  0  -0.321031  -0.553026  0  2.347886  0
O  O382  1  0.19210050  0.47185004  0.05428894  1  -1.178977  0  -0.321316  -0.553632  0  2.346364  0
O  O383  1  0.71834292  0.52803452  0.94581313  1  -1.177842  0  -0.321188  -0.553295  0  2.347736  0
O  O384  1  0.80774946  0.71827304  0.94578414  1  -1.18812  0  -0.320399  -0.553799  0  2.348267  0
O  O385  1  0.52815134  0.80789679  0.94570997  1  -1.178772  0  -0.321325  -0.553658  0  2.346234  0
O  O386  1  0.41630659  0.15172426  0.05576492  1  -1.174084  0  -0.320513  -0.554715  0  2.330823  0
O  O387  1  0.37638228  0.41623443  0.05572558  1  -1.17615  0  -0.320418  -0.555275  0  2.32963  0
O  O388  1  0.15143836  0.37648348  0.05558599  1  -1.174376  0  -0.319921  -0.554334  0  2.328812  0
O  O389  1  0.58376263  0.62361820  0.94427580  1  -1.176191  0  -0.320417  -0.555401  0  2.329596  0
O  O390  1  0.84827515  0.58369302  0.94423390  1  -1.174146  0  -0.320546  -0.554738  0  2.330784  0
O  O391  1  0.62351618  0.84855994  0.94441435  1  -1.174366  0  -0.319971  -0.554349  0  2.328817  0
