# generated using pymatgen
data_Mn5H134C174(N8O15)2
_symmetry_space_group_name_H-M   'P 1'
_cell_length_a   12.74753035
_cell_length_b   19.62129692
_cell_length_c   20.79970090
_cell_angle_alpha   61.54287665
_cell_angle_beta   73.02854073
_cell_angle_gamma   81.38931759
_symmetry_Int_Tables_number   1
_chemical_formula_structural   Mn5H134C174(N8O15)2
_chemical_formula_sum   'Mn5 H134 C174 N16 O30'
_cell_volume   4374.34816500
_cell_formula_units_Z   1
loop_
 _symmetry_equiv_pos_site_id
 _symmetry_equiv_pos_as_xyz
  1  'x, y, z'
loop_
 _atom_site_type_symbol
 _atom_site_label
 _atom_site_symmetry_multiplicity
 _atom_site_fract_x
 _atom_site_fract_y
 _atom_site_fract_z
 _atom_site_occupancy
 _atom_site_pbe_bader_charge
 _atom_site_pbe_bader_spin_density
 _atom_site_pbe_cm5_charge
 _atom_site_pbe_ddec_charge
 _atom_site_pbe_ddec_spin_density
 _atom_site_pbe_ddec_sum_bond_order
 _atom_site_pbe_magmom
Mn  Mn0  1  0.90896942  0.79676801  0.11008875  1  1.553565  4.491921  0.641894  1.086377  4.624831  2.377773  4.412
Mn  Mn1  1  0.67436067  0.70280136  0.10706730  1  1.507184  4.569336  0.610113  1.037427  4.689916  2.207463  4.464
Mn  Mn2  1  0.09096971  0.20321244  0.88992319  1  1.553522  4.491902  0.641996  1.086457  4.624928  2.377787  4.412
Mn  Mn3  1  0.32561067  0.29723797  0.89292497  1  1.506925  4.569303  0.610222  1.037622  4.689654  2.207574  4.464
Mn  Mn4  1  0.00000382  0.99999171  0.00001324  1  1.540653  4.553779  0.610065  1.063675  4.68343  2.23695  4.48
H  H5  1  0.31911903  0.52215355  0.36217315  1  0.620253  2e-05  0.337287  0.373889  1.8e-05  0.86877  0.0
H  H6  1  0.12921196  0.72154088  0.97752250  1  0.094714  0.000261  0.111347  0.120083  -0.000263  0.985625  0.0
H  H7  1  0.33859927  0.92697453  0.73611696  1  0.064697  0.000104  0.094979  0.090178  3.6e-05  1.046676  0.0
H  H8  1  0.54708235  0.82943304  0.57728342  1  0.052085  4e-06  0.103905  0.114334  -5e-06  1.009731  0.0
H  H9  1  0.95163545  0.85385401  0.92467780  1  0.092397  0.000476  0.109582  0.107351  -0.000145  1.026865  0.0
H  H10  1  0.17896626  0.73306338  0.74850763  1  0.090946  2e-06  0.100437  0.097857  -3e-06  1.028766  0.0
H  H11  1  0.25747386  0.95210651  0.84741859  1  0.090378  0.000296  0.102047  0.105163  -9.8e-05  1.024567  0.0
H  H12  1  0.88983122  0.70875183  0.83724304  1  0.062187  5.4e-05  0.099762  0.101758  -6.1e-05  1.009927  0.0
H  H13  1  0.20832947  0.69610967  0.86624363  1  0.056822  6.1e-05  0.09823  0.092838  1.1e-05  1.033139  0.0
H  H14  1  0.47400480  0.85611959  0.68704812  1  0.072253  3.4e-05  0.093156  0.089841  2.5e-05  1.062597  0.0
H  H15  1  0.24259407  0.35756354  0.25787379  1  0.055243  7e-06  0.097007  0.092402  -1e-06  1.012568  0.0
H  H16  1  0.05570834  0.57683704  0.34632907  1  0.088764  2.3e-05  0.105945  0.108175  2e-05  1.011396  0.0
H  H17  1  0.10406724  0.58210371  0.54035036  1  0.103051  3e-06  0.108182  0.112777  4e-06  0.992367  0.0
H  H18  1  0.74337077  0.85970880  0.24108389  1  0.13003  0.000198  0.109222  0.116568  -0.000553  1.007571  0.0
H  H19  1  0.07184397  0.59511330  0.20439362  1  0.127026  0.000236  0.109722  0.115794  -0.000248  0.992738  0.0
H  H20  1  0.65334275  0.94274372  0.30274211  1  0.031715  4.2e-05  0.099425  0.097148  -1.2e-05  1.017871  0.0
H  H21  1  0.33074726  0.23123920  0.32354916  1  0.066686  1.5e-05  0.100427  0.107237  8e-06  1.020247  0.0
H  H22  1  0.16328383  0.46945253  0.27179104  1  0.035091  8.7e-05  0.094891  0.092859  3.7e-05  1.021032  0.0
H  H23  1  0.52194201  0.94833763  0.40289363  1  0.075156  4e-06  0.103797  0.105806  -1.1e-05  0.996984  0.0
H  H24  1  0.86621867  0.62508751  0.37235760  1  0.060726  1e-06  0.110316  0.115515  -4.4e-05  0.98491  0.0
H  H25  1  0.55949026  0.66562000  0.63502379  1  0.04396  2.6e-05  0.09424  0.099464  2.3e-05  1.02975  0.0
H  H26  1  0.16492473  0.96536525  0.48351634  1  0.044599  9e-06  0.100905  0.105799  3e-06  1.044035  0.0
H  H27  1  0.05103046  0.94424320  0.79866338  1  0.077204  0.000101  0.102423  0.102138  -4e-05  1.027659  0.0
H  H28  1  0.75026073  0.72339513  0.37001812  1  0.099051  5.8e-05  0.106805  0.10868  -5e-05  1.002017  0.0
H  H29  1  0.40458262  0.01388587  0.47516084  1  0.046649  1e-06  0.105097  0.113911  -1.1e-05  0.993117  0.0
H  H30  1  0.31016819  0.87495945  0.50029514  1  0.078251  1.3e-05  0.098033  0.103294  5e-06  1.045222  0.0
H  H31  1  0.74685083  0.61610456  0.60618402  1  0.054101  1e-05  0.094046  0.08884  7e-06  1.043133  0.0
H  H32  1  0.11436545  0.99039344  0.18101391  1  0.079913  0.000259  0.09909  0.10016  -0.000121  1.045362  0.0
H  H33  1  0.25349895  0.70715319  0.63728918  1  0.062756  1.3e-05  0.103794  0.109528  3e-06  1.033336  0.0
H  H34  1  0.18597186  0.91278545  0.41609751  1  0.061349  1.7e-05  0.097105  0.094338  9e-06  1.02508  0.0
H  H35  1  0.02064620  0.14494068  0.48468352  1  0.093312  9e-06  0.103723  0.113798  4e-06  1.016938  0.0
H  H36  1  0.07967060  0.86846927  0.61105977  1  0.050687  1.5e-05  0.096816  0.094853  9e-06  1.038  0.0
H  H37  1  0.93398589  0.27118799  0.42099692  1  0.074971  2e-06  0.10332  0.106265  -4e-06  1.007237  0.0
H  H38  1  0.98054768  0.80276983  0.70850964  1  0.036513  7.5e-05  0.09408  0.092048  4e-05  1.04837  0.0
H  H39  1  0.56426044  0.77370726  0.39863417  1  0.100299  3.1e-05  0.101041  0.110831  2.7e-05  1.034634  0.0
H  H40  1  0.19881254  0.95687537  0.28650284  1  0.048103  0.0001  0.094508  0.091884  4.6e-05  1.039327  0.0
H  H41  1  0.22258168  0.12684920  0.30517849  1  0.108057  8e-06  0.102319  0.110898  -9e-06  1.026527  0.0
H  H42  1  0.88061458  0.34832905  0.30744572  1  0.069587  9e-05  0.092735  0.087297  3.3e-05  1.061442  0.0
H  H43  1  0.34230137  0.06433243  0.23161998  1  0.088225  5e-06  0.102217  0.101423  -1.4e-05  1.010479  0.0
H  H44  1  0.27616065  0.70328817  0.39374561  1  0.072821  2e-06  0.103639  0.108065  -4e-06  1.009742  0.0
H  H45  1  0.78706183  0.47502846  0.24412504  1  0.091245  0.000271  0.102023  0.105342  -0.000165  1.014218  0.0
H  H46  1  0.91584416  0.63424274  0.56469314  1  0.07178  9e-06  0.094244  0.092891  6e-06  1.059883  0.0
H  H47  1  0.99831893  0.75761471  0.28818365  1  0.10788  0.000124  0.10227  0.103633  -0.000315  1.030761  0.0
H  H48  1  0.09270882  0.72137471  0.38931204  1  0.085921  4e-05  0.092536  0.088645  3e-06  1.089165  0.0
H  H49  1  0.40118349  0.66626072  0.47589233  1  0.105021  5e-06  0.113932  0.131513  -1e-06  0.975562  0.0
H  H50  1  0.44910776  0.86451784  0.17851451  1  0.089755  0.000463  0.106545  0.10874  -0.00012  1.009072  0.0
H  H51  1  0.35938635  0.94982312  0.23662090  1  0.074011  2.7e-05  0.093852  0.084751  -4.5e-05  1.075253  0.0
H  H52  1  0.59917807  0.67600884  0.85489110  1  0.029756  9.8e-05  0.10137  0.074024  4.5e-05  0.97875  0.0
H  H53  1  0.68237195  0.75896400  0.81607817  1  0.05944  7.4e-05  0.095999  0.065775  2.7e-05  1.001815  0.0
H  H54  1  0.50977747  0.82578719  0.80090855  1  0.0383  0.000185  0.097175  0.072694  0.000123  1.032103  0.0
H  H55  1  0.43229594  0.74583960  0.87968971  1  0.044261  0.000133  0.096465  0.068857  7.5e-05  1.00034  0.0
H  H56  1  0.68994647  0.06766759  0.89511676  1  0.056356  0.00043  0.104461  0.079397  0.000199  0.975387  0.0
H  H57  1  0.57487275  0.04498187  0.97525986  1  0.059445  0.00057  0.105787  0.08066  0.000367  1.011179  0.0
H  H58  1  0.09081751  0.02971995  0.69559996  1  0.083773  2.2e-05  0.100776  0.101027  5e-06  1.030949  0.0
H  H59  1  0.76773454  0.42594781  0.15401180  1  0.036085  0.000381  0.102878  0.073144  0.000185  0.97999  0.0
H  H60  1  0.72253821  0.43489886  0.07650780  1  0.076303  0.000215  0.111718  0.089639  8.6e-05  0.959603  0.0
H  H61  1  0.57521707  0.90987766  0.00022089  1  0.043592  0.000731  0.102499  0.074769  2e-05  1.015045  0.0
H  H62  1  0.63133982  0.95289162  0.90013888  1  0.036589  0.000409  0.102992  0.081679  0.000201  0.992491  0.0
H  H63  1  0.18182146  0.12440375  0.56794836  1  0.084992  4e-06  0.107955  0.121532  1e-06  0.988291  0.0
H  H64  1  0.53456704  0.41081206  0.14884916  1  0.020002  0.000207  0.096098  0.061609  0.000102  0.978735  0.0
H  H65  1  0.59733356  0.35861758  0.22633932  1  0.081662  0.000384  0.100241  0.078577  0.000252  1.026334  0.0
H  H66  1  0.76309383  0.03955921  0.00902039  1  0.529747  0.000487  0.310038  0.295493  3e-06  0.995394  0.0
H  H67  1  0.69249949  0.67772024  0.95226010  1  0.510339  0.000218  0.303828  0.280096  0.000302  1.010423  0.0
H  H68  1  0.76610860  0.85086215  0.97788795  1  0.514692  0.000462  0.307312  0.280647  0.000262  1.014503  0.0
H  H69  1  0.47244957  0.47722300  0.23311034  1  0.457847  0.000129  0.324628  0.287768  3.2e-05  0.921831  0.0
H  H70  1  0.74309465  0.57289008  0.06289201  1  0.512417  0.00062  0.30694  0.295035  0.001223  0.992208  0.0
H  H71  1  0.44892103  0.83830509  0.92708387  1  0.460941  6.3e-05  0.324544  0.291151  4e-06  0.917979  0.0
H  H72  1  0.68088452  0.47785774  0.63779898  1  0.620296  2e-05  0.337256  0.373968  1.8e-05  0.86849  0.0
H  H73  1  0.87080483  0.27844674  0.02247854  1  0.094642  0.000261  0.111378  0.120152  -0.000263  0.985471  0.0
H  H74  1  0.66137300  0.07304101  0.26389398  1  0.064353  0.000104  0.094998  0.090159  3.6e-05  1.046515  0.0
H  H75  1  0.45290279  0.17058847  0.42270763  1  0.052074  4e-06  0.103844  0.1142  -5e-06  1.009629  0.0
H  H76  1  0.04838332  0.14614581  0.07531164  1  0.092535  0.000476  0.109566  0.107356  -0.000143  1.026717  0.0
H  H77  1  0.82105316  0.26692019  0.25149956  1  0.090764  2e-06  0.100461  0.097924  -3e-06  1.028853  0.0
H  H78  1  0.74249584  0.04789046  0.15259825  1  0.09031  0.000296  0.101944  0.105004  -9.8e-05  1.024467  0.0
H  H79  1  0.11016776  0.29125125  0.16275571  1  0.062163  5.4e-05  0.099709  0.101693  -6.1e-05  1.009835  0.0
H  H80  1  0.79169094  0.30389074  0.13375055  1  0.057  6.1e-05  0.098261  0.092883  1.1e-05  1.033368  0.0
H  H81  1  0.52597825  0.14391350  0.31293331  1  0.072481  3.4e-05  0.093276  0.089992  2.5e-05  1.062479  0.0
H  H82  1  0.75742331  0.64242934  0.74210267  1  0.048707  8e-06  0.096997  0.092393  -1e-06  1.0127  0.0
H  H83  1  0.94428480  0.42316776  0.65365409  1  0.088936  2.3e-05  0.105884  0.108137  2e-05  1.011627  0.0
H  H84  1  0.89594494  0.41787519  0.45963906  1  0.103036  3e-06  0.108192  0.112857  4e-06  0.992264  0.0
H  H85  1  0.25662626  0.14028093  0.75892071  1  0.12987  0.000199  0.109218  0.116512  -0.000553  1.007608  0.0
H  H86  1  0.92814347  0.40489028  0.79558870  1  0.127592  0.000235  0.109701  0.115756  -0.000248  0.99294  0.0
H  H87  1  0.34668861  0.05724982  0.69726760  1  0.031932  4.2e-05  0.099422  0.097087  -1.2e-05  1.018093  0.0
H  H88  1  0.66927074  0.76875946  0.67644046  1  0.066868  1.5e-05  0.100443  0.10701  8e-06  1.020373  0.0
H  H89  1  0.83673300  0.53055429  0.72816870  1  0.034291  8.7e-05  0.094798  0.092755  3.7e-05  1.021215  0.0
H  H90  1  0.47806399  0.05165391  0.59712009  1  0.075119  4e-06  0.103778  0.105763  -1.1e-05  0.997158  0.0
H  H91  1  0.13377472  0.37491146  0.62764351  1  0.060281  1e-06  0.110289  0.115525  -4.4e-05  0.984995  0.0
H  H92  1  0.44051495  0.33437038  0.36498290  1  0.043871  2.6e-05  0.094228  0.09937  2.3e-05  1.029841  0.0
H  H93  1  0.83507286  0.03465232  0.51647423  1  0.044599  9e-06  0.100892  0.10574  3e-06  1.044095  0.0
H  H94  1  0.94899271  0.05574912  0.20132912  1  0.076775  0.000101  0.102421  0.102112  -4e-05  1.027702  0.0
H  H95  1  0.24975342  0.27659766  0.62998925  1  0.099091  5.8e-05  0.106774  0.108709  -5e-05  1.002151  0.0
H  H96  1  0.59541415  0.98611080  0.52484695  1  0.046835  1e-06  0.105089  0.11393  -1.1e-05  0.993087  0.0
H  H97  1  0.68983981  0.12504372  0.49970387  1  0.079121  1.3e-05  0.097996  0.103217  5e-06  1.045117  0.0
H  H98  1  0.25315298  0.38387944  0.39382337  1  0.054322  1e-05  0.094043  0.088751  7e-06  1.043095  0.0
H  H99  1  0.88563640  0.00959866  0.81898636  1  0.079663  0.000259  0.099079  0.100008  -0.000121  1.045521  0.0
H  H100  1  0.74653131  0.29282584  0.36272579  1  0.062636  1.3e-05  0.103788  0.109548  3e-06  1.033241  0.0
H  H101  1  0.81403785  0.08721600  0.58390196  1  0.06125  1.7e-05  0.097118  0.094437  9e-06  1.025029  0.0
H  H102  1  0.97937071  0.85506492  0.51530271  1  0.092832  9e-06  0.103677  0.113698  4e-06  1.01694  0.0
H  H103  1  0.92032237  0.13154016  0.38892375  1  0.050799  1.4e-05  0.096733  0.094809  9e-06  1.038003  0.0
H  H104  1  0.06602786  0.72881412  0.57898086  1  0.074978  2e-06  0.103187  0.106253  -4e-06  1.007095  0.0
H  H105  1  0.01945995  0.19722118  0.29148527  1  0.036833  7.5e-05  0.094087  0.092083  4e-05  1.04843  0.0
H  H106  1  0.43575510  0.22629192  0.60136816  1  0.100056  3.1e-05  0.101017  0.110922  2.7e-05  1.034673  0.0
H  H107  1  0.80118754  0.04312020  0.71349763  1  0.048159  0.0001  0.094495  0.091835  4.6e-05  1.039459  0.0
H  H108  1  0.77744908  0.87315942  0.69481832  1  0.108057  8e-06  0.10227  0.11079  -9e-06  1.026451  0.0
H  H109  1  0.11938892  0.65166250  0.69254488  1  0.069854  9e-05  0.092823  0.08735  3.3e-05  1.061332  0.0
H  H110  1  0.65772691  0.93567674  0.76837847  1  0.088159  5e-06  0.102232  0.101363  -1.4e-05  1.010506  0.0
H  H111  1  0.72382658  0.29670086  0.60627116  1  0.072353  2e-06  0.103679  0.108218  -4e-06  1.009865  0.0
H  H112  1  0.21292044  0.52496111  0.75588421  1  0.090418  0.000272  0.102054  0.105315  -0.000165  1.014405  0.0
H  H113  1  0.08416534  0.36572103  0.43531846  1  0.072444  9e-06  0.094246  0.092826  6e-06  1.059998  0.0
H  H114  1  0.00168651  0.24236988  0.71182848  1  0.107962  0.000124  0.102275  0.103641  -0.000315  1.030767  0.0
H  H115  1  0.90728871  0.27862371  0.61069820  1  0.086132  4e-05  0.092537  0.088596  3e-06  1.089156  0.0
H  H116  1  0.59880267  0.33373467  0.52412322  1  0.105289  5e-06  0.113932  0.131513  -1e-06  0.975383  0.0
H  H117  1  0.55086940  0.13549834  0.82149238  1  0.089907  0.000464  0.10664  0.108667  -0.000119  1.009116  0.0
H  H118  1  0.64061863  0.05019507  0.76338490  1  0.073789  2.7e-05  0.093873  0.084727  -4.5e-05  1.075194  0.0
H  H119  1  0.40080455  0.32399237  0.14509603  1  0.029931  9.8e-05  0.101399  0.074014  4.5e-05  0.97871  0.0
H  H120  1  0.31760975  0.24103953  0.18390473  1  0.058812  7.4e-05  0.096022  0.065793  2.7e-05  1.001855  0.0
H  H121  1  0.49019695  0.17421449  0.19909091  1  0.038832  0.000185  0.097168  0.072604  0.000123  1.032141  0.0
H  H122  1  0.56768195  0.25415689  0.12031289  1  0.044599  0.000133  0.09646  0.068828  7.5e-05  1.000281  0.0
H  H123  1  0.31005427  0.93233261  0.10488633  1  0.056097  0.00043  0.104421  0.079369  0.000199  0.97536  0.0
H  H124  1  0.42513460  0.95501667  0.02473653  1  0.059289  0.00057  0.105852  0.080765  0.000367  1.011312  0.0
H  H125  1  0.90919498  0.97027284  0.30440001  1  0.083967  2.2e-05  0.100803  0.101106  5e-06  1.030795  0.0
H  H126  1  0.23227206  0.57407097  0.84599681  1  0.036467  0.000381  0.102736  0.072992  0.000185  0.980058  0.0
H  H127  1  0.27748183  0.56511194  0.92350342  1  0.076189  0.000215  0.111848  0.089802  8.6e-05  0.959712  0.0
H  H128  1  0.42479265  0.09012321  0.99977932  1  0.04249  0.000731  0.102505  0.074772  2e-05  1.01508  0.0
H  H129  1  0.36866845  0.04710460  0.09986320  1  0.036719  0.000409  0.102993  0.081619  0.000201  0.992651  0.0
H  H130  1  0.81818994  0.87559655  0.43205614  1  0.085078  4e-06  0.107921  0.121475  1e-06  0.988438  0.0
H  H131  1  0.46545408  0.58919180  0.85115969  1  0.019617  0.000207  0.096189  0.061738  0.000102  0.978659  0.0
H  H132  1  0.40267884  0.64139954  0.77366323  1  0.081549  0.000384  0.100224  0.078509  0.000252  1.026399  0.0
H  H133  1  0.23690590  0.96044618  0.99099017  1  0.529792  0.000486  0.310036  0.295533  3e-06  0.995425  0.0
H  H134  1  0.30751216  0.32227257  0.04772415  1  0.510436  0.000218  0.303919  0.280023  0.000303  1.010554  0.0
H  H135  1  0.23391005  0.14914115  0.02210236  1  0.51477  0.000461  0.307297  0.280643  0.00026  1.014627  0.0
H  H136  1  0.52754519  0.52278350  0.76689821  1  0.458029  0.000129  0.324662  0.287925  3.2e-05  0.921779  0.0
H  H137  1  0.25690478  0.42712284  0.93711427  1  0.51164  0.000622  0.306849  0.294955  0.001227  0.992143  0.0
H  H138  1  0.55107910  0.16168931  0.07291953  1  0.461087  6.3e-05  0.324487  0.291094  4e-06  0.918172  0.0
C  C139  1  0.12517656  0.85548633  0.98284432  1  1.569723  0.028257  0.22419  0.593731  0.02675  4.184956  0.024
C  C140  1  0.60142746  0.85708572  0.20615872  1  -0.000434  -0.000772  -0.019484  -0.041908  -0.002451  3.990259  -0.002
C  C141  1  0.18905410  0.83801166  0.91942373  1  -0.087568  0.00189  -0.023517  -0.057545  0.000505  3.990361  0.001
C  C142  1  0.08099990  0.32410471  0.33326573  1  0.015191  -6.6e-05  -0.017975  0.041962  -0.000104  4.023804  0.0
C  C143  1  0.02824844  0.39945476  0.29423116  1  0.049243  0.003765  -0.010531  0.068986  0.002982  4.019625  0.002
C  C144  1  0.36670102  0.76963854  0.49174098  1  0.238993  0.000613  0.08801  0.170725  0.000499  4.039155  0.0
C  C145  1  0.17692051  0.76550098  0.92454503  1  -0.046402  0.005725  -0.080754  -0.081764  0.004195  3.986481  0.003
C  C146  1  0.07807935  0.94009776  0.66512445  1  -0.009188  -3.1e-05  -0.012446  0.052972  -4.8e-05  3.986642  0.0
C  C147  1  0.18167305  0.17843067  0.40771160  1  0.302459  0.000666  0.093437  0.186282  0.000554  4.026201  0.0
C  C148  1  0.32175482  0.79555186  0.72681839  1  -0.020587  -0.000187  -0.014132  0.051562  -0.000252  4.009202  0.0
C  C149  1  0.92434316  0.54272895  0.21981617  1  -0.022982  0.002915  -0.018321  -0.039362  0.00163  3.961023  0.001
C  C150  1  0.29424546  0.88138318  0.78936627  1  -0.009798  -0.001186  -0.092548  -0.137426  -0.001264  3.983634  -0.001
C  C151  1  0.54771085  0.72336814  0.51914565  1  0.376636  3.1e-05  0.095018  0.189723  3.1e-05  4.034016  0.0
C  C152  1  0.46661167  0.80806472  0.61504029  1  -0.01883  -0.000237  -0.097833  -0.174697  -0.000257  3.99729  0.0
C  C153  1  0.87640489  0.63455689  0.47009986  1  0.003498  -4e-06  0.001713  0.083891  -4e-06  3.981439  0.0
C  C154  1  0.87146846  0.61935537  0.17845574  1  1.595166  0.021973  0.227531  0.607812  0.021165  4.171835  0.019
C  C155  1  0.95800612  0.84273511  0.87718876  1  -0.060973  0.001875  -0.081382  -0.07673  0.001064  3.974572  0.001
C  C156  1  0.27863615  0.80999084  0.79311919  1  -0.014133  0.005806  -0.006214  0.070261  0.00457  4.012861  0.004
C  C157  1  0.22268472  0.81141845  0.39811096  1  -0.04229  -0.000193  -0.013534  0.052067  -0.000237  4.019168  0.0
C  C158  1  0.91195521  0.77551584  0.88989182  1  -0.032781  0.0011  -0.026987  -0.055268  6.8e-05  3.987973  0.0
C  C159  1  0.40440901  0.76602692  0.60064305  1  0.298556  0.001092  0.091985  0.180413  0.000886  4.043711  0.001
C  C160  1  0.26034251  0.75339295  0.71172060  1  -0.023662  0.000987  -0.090289  -0.117688  0.00078  3.999293  0.001
C  C161  1  0.24974251  0.89544114  0.85161355  1  -0.012133  0.005587  -0.086505  -0.092126  0.004143  3.981556  0.003
C  C162  1  0.00200436  0.89317172  0.16520397  1  1.571456  0.022003  0.225491  0.599606  0.021921  4.190447  0.02
C  C163  1  0.09299564  0.57705409  0.44130074  1  -0.043988  4.8e-05  -0.02343  -0.066122  3.7e-05  4.011636  0.0
C  C164  1  0.92370811  0.76150892  0.82795646  1  -0.015249  0.001748  -0.091906  -0.099743  0.001314  4.006156  0.001
C  C165  1  0.22050561  0.75201478  0.86213603  1  -0.066776  -0.001286  -0.093492  -0.143148  -0.001361  3.998079  -0.001
C  C166  1  0.15637927  0.83556709  0.34330956  1  -0.007589  0.00392  -0.005303  0.079358  0.003103  4.000912  0.002
C  C167  1  0.02255037  0.88286124  0.74194799  1  0.021402  0.001281  -0.005179  0.073164  0.001019  3.979869  0.001
C  C168  1  0.42516546  0.82262837  0.67715573  1  -0.056937  0.001115  -0.096495  -0.127346  0.000878  3.995859  0.001
C  C169  1  0.76425979  0.66512090  0.48590006  1  -0.024515  7.5e-05  -0.018104  0.043049  6.1e-05  4.0034  0.0
C  C170  1  0.18146780  0.05069531  0.51694462  1  0.293386  0.000371  0.087162  0.1739  0.000317  4.048442  0.0
C  C171  1  0.19362128  0.31106897  0.30790711  1  -0.07915  0.000644  -0.093456  -0.122597  0.000503  4.017257  0.0
C  C172  1  0.78810632  0.93824550  0.00063087  1  1.823831  0.014179  0.347427  0.639024  0.013877  4.158846  0.013
C  C173  1  0.02499914  0.58955732  0.39418844  1  -0.023794  1.4e-05  -0.076619  -0.073447  1.1e-05  3.955932  0.0
C  C174  1  0.05117914  0.59203100  0.50381089  1  -0.03723  -2e-06  -0.078715  -0.082651  -1e-06  3.984352  0.0
C  C175  1  0.65881980  0.87976672  0.24098427  1  -0.075682  0.008183  -0.07768  -0.078269  0.005976  3.948917  0.005
C  C176  1  0.03066036  0.54037316  0.22766145  1  -0.08302  0.004185  -0.082402  -0.085711  0.003011  3.981805  0.002
C  C177  1  0.20845557  0.55108673  0.42695835  1  1.450841  1e-05  0.222382  0.558926  5e-06  4.140855  0.0
C  C178  1  0.60802989  0.92670742  0.27489836  1  -0.031071  -0.001759  -0.091963  -0.140788  -0.001848  3.989628  -0.002
C  C179  1  0.24342292  0.24002063  0.34430426  1  -0.007045  -7.9e-05  -0.100868  -0.179271  -8.8e-05  4.017014  0.0
C  C180  1  0.84669323  0.72244078  0.96693685  1  1.51744  0.009904  0.218048  0.586261  0.009712  4.181104  0.009
C  C181  1  0.08182527  0.46989324  0.26442657  1  -0.054597  -0.000715  -0.096079  -0.141988  -0.00075  4.000078  -0.001
C  C182  1  0.45819478  0.98888901  0.38007059  1  -0.090472  0.001867  -0.086618  -0.115147  0.001449  3.991236  0.001
C  C183  1  0.91836007  0.61758045  0.40859743  1  0.02224  3.3e-05  -0.083083  -0.129101  2.1e-05  3.946265  0.0
C  C184  1  0.65309784  0.80380006  0.17319735  1  1.552566  0.037853  0.219508  0.580405  0.037865  4.197963  0.031
C  C185  1  0.30514839  0.07457954  0.39557128  1  0.326597  0.002071  0.089367  0.174062  0.001675  4.034918  0.001
C  C186  1  0.05172066  0.87569988  0.22804926  1  -0.040174  0.002308  -0.026273  -0.058411  0.001099  4.002803  0.001
C  C187  1  0.60175909  0.67857848  0.57682193  1  -0.077555  6.9e-05  -0.110218  -0.192276  5.8e-05  4.032205  0.0
C  C188  1  0.15067029  0.97837179  0.53071210  1  0.010046  1.2e-05  -0.099565  -0.173909  3e-06  4.007357  0.0
C  C189  1  0.49961609  0.95381142  0.27336534  1  -0.032282  0.009041  -0.007349  0.071086  0.007122  3.997485  0.006
C  C190  1  0.01344406  0.89443075  0.80510316  1  -0.020466  -0.00017  -0.087961  -0.124845  -0.000199  3.968252  0.0
C  C191  1  0.70903695  0.70944313  0.42870125  1  -0.039264  8e-06  -0.083255  -0.099436  6e-06  3.967712  0.0
C  C192  1  0.39197065  0.02534809  0.42119220  1  0.010129  -0.000518  -0.094107  -0.171632  -0.000549  3.99846  0.0
C  C193  1  0.30282321  0.83776443  0.47636857  1  0.023706  -9.9e-05  -0.100772  -0.175122  -0.000103  4.013293  0.0
C  C194  1  0.70765457  0.65103596  0.56014631  1  -0.04714  -3e-06  -0.096865  -0.119875  -6e-06  4.027825  0.0
C  C195  1  0.10811953  0.93195085  0.22777984  1  -0.060289  0.004358  -0.091383  -0.100796  0.003188  4.010526  0.003
C  C196  1  0.30107330  0.73904800  0.64968265  1  -0.073989  -0.000178  -0.096332  -0.173115  -0.000195  3.998728  0.0
C  C197  1  0.23274341  0.85849358  0.42971541  1  -0.094513  0.000659  -0.094255  -0.122076  0.000514  4.006696  0.0
C  C198  1  0.06962299  0.19120002  0.43466835  1  -0.060093  7e-06  -0.097814  -0.175678  -4e-06  3.986687  0.0
C  C199  1  0.44030599  0.99999578  0.31203624  1  0.040501  -0.000478  -0.013861  0.046151  -0.000579  4.010093  -0.001
C  C200  1  0.10126602  0.92402857  0.60325151  1  -0.034929  0.000277  -0.09129  -0.107844  0.000217  3.982459  0.0
C  C201  1  0.02069843  0.26266912  0.39792862  1  -0.069071  0.000616  -0.08816  -0.113376  0.000484  3.987569  0.0
C  C202  1  0.97635401  0.81470197  0.75532148  1  -0.078093  -5.6e-05  -0.09838  -0.146014  -7.4e-05  3.991959  0.0
C  C203  1  0.60348352  0.73845136  0.44453604  1  -0.078348  7.5e-05  -0.101512  -0.183275  6.2e-05  3.996353  0.0
C  C204  1  0.15682864  0.91255032  0.28619654  1  -0.02337  -0.000829  -0.095866  -0.141429  -0.000863  3.986139  -0.001
C  C205  1  0.28931551  0.08874137  0.32617200  1  -0.134565  -0.000446  -0.097732  -0.178856  -0.000476  3.997871  0.0
C  C206  1  0.92165765  0.40257075  0.28616016  1  -0.110095  -0.000828  -0.097592  -0.143488  -0.000871  3.998887  -0.001
C  C207  1  0.35625943  0.05232835  0.28537884  1  -0.071644  0.001824  -0.088741  -0.114787  0.001425  3.998707  0.001
C  C208  1  0.28311295  0.74137654  0.41691922  1  0.024751  0.000617  -0.08328  -0.101672  0.000487  3.961929  0.0
C  C209  1  0.86994571  0.47291383  0.24992040  1  -0.048003  0.004281  -0.085831  -0.085875  0.003097  3.9872  0.003
C  C210  1  0.94518426  0.62058467  0.51745740  1  -0.06827  1e-05  -0.092829  -0.137712  6e-06  3.968701  0.0
C  C211  1  0.04417557  0.80036693  0.28779218  1  -0.047082  0.004042  -0.085822  -0.080817  0.002903  3.982398  0.002
C  C212  1  0.09711790  0.78036806  0.34396786  1  -0.073163  -0.000838  -0.095871  -0.134585  -0.00087  3.983277  -0.001
C  C213  1  0.35449627  0.72045309  0.46290486  1  -0.03664  -0.000104  -0.089319  -0.163466  -0.000119  3.978729  0.0
C  C214  1  0.49366389  0.88375304  0.20428933  1  -0.06263  0.009155  -0.083188  -0.084396  0.006794  3.984374  0.006
C  C215  1  0.44432798  0.93192921  0.23662008  1  -0.056621  -0.002406  -0.09512  -0.139185  -0.002521  3.999004  -0.002
C  C216  1  0.61046496  0.72691890  0.86088504  1  0.311456  6.2e-05  -0.054367  -0.010864  4.7e-05  3.90049  0.0
C  C217  1  0.50771270  0.77934228  0.85801224  1  0.328639  0.000752  -0.060029  -0.025832  0.000705  3.907354  0.001
C  C218  1  0.65331621  0.02289914  0.95266964  1  0.311088  0.000525  -0.049219  -0.015268  0.000488  3.880698  0.0
C  C219  1  0.10860537  0.01356300  0.65014211  1  -0.036386  0.000307  -0.087025  -0.106147  0.00024  3.968265  0.0
C  C220  1  0.60016914  0.54476194  0.15009876  1  1.836956  0.007665  0.334932  0.631231  0.008215  4.214404  0.007
C  C221  1  0.70166299  0.44843188  0.12425999  1  0.319089  3.9e-05  -0.046859  -0.009094  -6.2e-05  3.8843  0.0
C  C222  1  0.64265236  0.94521684  0.95345157  1  0.342646  0.000512  -0.053431  -0.024519  0.00036  3.882392  0.0
C  C223  1  0.15984460  0.06796653  0.57769544  1  -0.070687  1e-06  -0.095206  -0.171819  -5e-06  3.992403  0.0
C  C224  1  0.58943846  0.41550963  0.17900471  1  0.302377  0.00064  -0.055069  -0.022459  0.000559  3.909665  0.0
C  C225  1  0.57367435  0.75971285  0.95889750  1  1.82077  0.004004  0.328782  0.625765  0.003719  4.199784  0.004
C  C226  1  0.87477695  0.14450468  0.01717232  1  1.570533  0.028267  0.224023  0.593597  0.026762  4.18489  0.024
C  C227  1  0.39855104  0.14291713  0.79385583  1  -0.001209  -0.000759  -0.019287  -0.041879  -0.002437  3.990369  -0.002
C  C228  1  0.81091379  0.16198936  0.08058344  1  -0.086353  0.001885  -0.023603  -0.057735  0.000501  3.990416  0.001
C  C229  1  0.91902312  0.67591257  0.66671225  1  0.014819  -6.6e-05  -0.017892  0.042287  -0.000105  4.02369  0.0
C  C230  1  0.97175937  0.60055251  0.70574682  1  0.048799  0.003767  -0.010662  0.068721  0.002984  4.019791  0.002
C  C231  1  0.63331131  0.23035888  0.50826224  1  0.238862  0.000613  0.088069  0.170671  0.000499  4.039036  0.0
C  C232  1  0.82307459  0.23449626  0.07546039  1  -0.045972  0.005727  -0.080717  -0.081627  0.004196  3.98637  0.003
C  C233  1  0.92191318  0.05990179  0.33486838  1  -0.057679  -3.1e-05  -0.012501  0.052867  -4.8e-05  3.986416  0.0
C  C234  1  0.81833119  0.82158464  0.59228072  1  0.301939  0.000666  0.093215  0.186034  0.000554  4.025947  0.0
C  C235  1  0.67824107  0.20446743  0.27317557  1  -0.014439  -0.000188  -0.01416  0.051533  -0.000252  4.008964  0.0
C  C236  1  0.07562989  0.45726519  0.78017969  1  -0.022013  0.002916  -0.018526  -0.03961  0.001631  3.960661  0.001
C  C237  1  0.70572759  0.11863297  0.21063753  1  -0.009251  -0.001187  -0.092559  -0.137473  -0.001266  3.983193  -0.001
C  C238  1  0.45229413  0.27662805  0.48085318  1  0.376985  3.1e-05  0.09505  0.189932  3.1e-05  4.034252  0.0
C  C239  1  0.53339430  0.19194830  0.38495178  1  -0.019007  -0.000237  -0.097668  -0.174319  -0.000258  3.99741  0.0
C  C240  1  0.12360058  0.36542654  0.52990701  1  0.003181  -5e-06  0.001592  0.083701  -4e-06  3.981004  0.0
C  C241  1  0.12850715  0.38063647  0.82154599  1  1.594794  0.021991  0.227406  0.60753  0.021179  4.17175  0.019
C  C242  1  0.04201100  0.15726527  0.12280699  1  -0.061495  0.001878  -0.081405  -0.076883  0.001067  3.974387  0.001
C  C243  1  0.72134942  0.19001964  0.20688105  1  -0.014167  0.005809  -0.006249  0.070404  0.004572  4.012573  0.004
C  C244  1  0.77731352  0.18858287  0.60189737  1  -0.042521  -0.000193  -0.013516  0.052057  -0.000237  4.019384  0.0
C  C245  1  0.08805046  0.22448384  0.11010341  1  -0.032905  0.001098  -0.026917  -0.055003  6.6e-05  3.98851  0.0
C  C246  1  0.59559520  0.23396810  0.39936126  1  0.29896  0.001093  0.09181  0.18029  0.000886  4.043605  0.001
C  C247  1  0.73967154  0.24660273  0.28829030  1  -0.023884  0.000988  -0.090307  -0.117936  0.00078  3.99942  0.001
C  C248  1  0.75023778  0.10455767  0.14840056  1  -0.013084  0.005593  -0.086332  -0.091867  0.004146  3.980788  0.003
C  C249  1  0.99798513  0.10680054  0.83480645  1  1.569513  0.022003  0.225511  0.59937  0.021914  4.19023  0.02
C  C250  1  0.90701203  0.42293577  0.55869420  1  -0.04257  4.8e-05  -0.023384  -0.065712  3.7e-05  4.011259  0.0
C  C251  1  0.07629189  0.23848840  0.17203363  1  -0.014939  0.001749  -0.09193  -0.099807  0.001314  4.006438  0.001
C  C252  1  0.77949647  0.24799297  0.13786343  1  -0.067279  -0.001286  -0.093592  -0.143354  -0.001362  3.998196  -0.001
C  C253  1  0.84361829  0.16443074  0.65670382  1  -0.007689  0.003919  -0.005543  0.079248  0.003102  4.001467  0.002
C  C254  1  0.97745290  0.11713667  0.25804990  1  0.020682  0.001282  -0.005173  0.073088  0.001021  3.979961  0.001
C  C255  1  0.57482410  0.17738506  0.32284055  1  -0.062868  0.001116  -0.096505  -0.127486  0.000879  3.995617  0.001
C  C256  1  0.23574895  0.33486314  0.51410883  1  -0.023946  7.5e-05  -0.018094  0.043146  6.1e-05  4.003779  0.0
C  C257  1  0.81853756  0.94931304  0.48306072  1  0.293576  0.000371  0.087169  0.173912  0.000318  4.048259  0.0
C  C258  1  0.80638427  0.68893361  0.69208491  1  -0.071847  0.000644  -0.093348  -0.122588  0.000503  4.017185  0.0
C  C259  1  0.21187230  0.06175388  0.99937992  1  1.824566  0.014177  0.347452  0.638936  0.013881  4.158884  0.013
C  C260  1  0.97500172  0.41043885  0.60580249  1  -0.02404  1.4e-05  -0.076625  -0.073576  1.1e-05  3.956255  0.0
C  C261  1  0.94882492  0.40794606  0.49618995  1  -0.038257  -2e-06  -0.078765  -0.082946  -1e-06  3.984823  0.0
C  C262  1  0.34118229  0.12024101  0.75902289  1  -0.075039  0.008178  -0.077863  -0.07828  0.005972  3.949091  0.005
C  C263  1  0.96931585  0.45962392  0.77232628  1  -0.084487  0.004189  -0.082246  -0.085667  0.003014  3.981314  0.002
C  C264  1  0.79155384  0.44892172  0.57302122  1  1.450473  1e-05  0.222151  0.558501  5e-06  4.141141  0.0
C  C265  1  0.39198582  0.07328768  0.72511683  1  -0.031225  -0.001757  -0.091967  -0.140887  -0.001845  3.989476  -0.002
C  C266  1  0.75659155  0.75998437  0.65568219  1  -0.007119  -7.9e-05  -0.100823  -0.178903  -8.8e-05  4.016997  0.0
C  C267  1  0.15330408  0.27756288  0.03306002  1  1.517336  0.009908  0.218027  0.586064  0.009716  4.181037  0.009
C  C268  1  0.91818397  0.53011873  0.73552982  1  -0.052863  -0.000716  -0.096005  -0.141677  -0.000751  3.999879  -0.001
C  C269  1  0.54181589  0.01110895  0.61994134  1  -0.090208  0.001864  -0.08646  -0.114795  0.001447  3.991101  0.001
C  C270  1  0.08164079  0.38241628  0.59140046  1  0.022915  3.3e-05  -0.083124  -0.129262  2.1e-05  3.946615  0.0
C  C271  1  0.34684347  0.19620995  0.82682066  1  1.553901  0.037851  0.219612  0.580621  0.037872  4.197985  0.031
C  C272  1  0.69486050  0.92542190  0.60443172  1  0.325742  0.002068  0.089406  0.173951  0.001673  4.035087  0.001
C  C273  1  0.94827609  0.12427593  0.77196259  1  -0.038211  0.002306  -0.026137  -0.058199  0.001098  4.002868  0.001
C  C274  1  0.39823881  0.32141009  0.42318688  1  -0.076818  7e-05  -0.110257  -0.192368  5.8e-05  4.032636  0.0
C  C275  1  0.84932668  0.02164057  0.46927564  1  0.010048  1.2e-05  -0.099555  -0.174041  3e-06  4.007894  0.0
C  C276  1  0.50040111  0.04618719  0.72664175  1  -0.032612  0.00903  -0.007329  0.071121  0.007114  3.996997  0.006
C  C277  1  0.98655519  0.10556481  0.19489122  1  -0.02027  -0.000171  -0.08793  -0.124694  -0.000199  3.967681  0.0
C  C278  1  0.29096819  0.29054899  0.57130611  1  -0.039347  8e-06  -0.083207  -0.099429  6e-06  3.967579  0.0
C  C279  1  0.60803030  0.97464688  0.57881944  1  0.01033  -0.000518  -0.094082  -0.171682  -0.000548  3.998358  0.0
C  C280  1  0.69718665  0.16223353  0.52364351  1  0.02284  -9.9e-05  -0.100852  -0.175127  -0.000103  4.013348  0.0
C  C281  1  0.29234521  0.34894624  0.43986645  1  -0.04806  -3e-06  -0.096874  -0.119737  -6e-06  4.028062  0.0
C  C282  1  0.89187180  0.06803767  0.77222393  1  -0.060063  0.004359  -0.09157  -0.100824  0.00319  4.010789  0.003
C  C283  1  0.69894474  0.26092915  0.35033968  1  -0.074232  -0.000178  -0.096363  -0.173171  -0.000195  3.998784  0.0
C  C284  1  0.76726881  0.14150672  0.57029230  1  -0.094266  0.000658  -0.094177  -0.122038  0.000513  4.007112  0.0
C  C285  1  0.93038897  0.80880669  0.56532019  1  -0.059197  6e-06  -0.097729  -0.175425  -4e-06  3.986104  0.0
C  C286  1  0.55971599  0.00000694  0.68796816  1  0.041007  -0.000477  -0.013852  0.046117  -0.000577  4.010331  -0.001
C  C287  1  0.89872612  0.07598141  0.39673960  1  -0.035576  0.000278  -0.091219  -0.10761  0.000218  3.982157  0.0
C  C288  1  0.97930861  0.73733698  0.60205291  1  -0.070029  0.000616  -0.088003  -0.113536  0.000484  3.987757  0.0
C  C289  1  0.02365823  0.18529720  0.24467376  1  -0.078026  -5.6e-05  -0.098322  -0.145968  -7.4e-05  3.991926  0.0
C  C290  1  0.39653397  0.26153973  0.55546909  1  -0.078809  7.5e-05  -0.101447  -0.183455  6.3e-05  3.995963  0.0
C  C291  1  0.84317469  0.08744586  0.71379779  1  -0.02395  -0.000829  -0.095807  -0.14146  -0.000864  3.986474  -0.001
C  C292  1  0.71070535  0.91126889  0.67382633  1  -0.134047  -0.000445  -0.097647  -0.178652  -0.000475  3.997279  0.0
C  C293  1  0.07834365  0.59741383  0.71383107  1  -0.109386  -0.000829  -0.09777  -0.143702  -0.000871  3.999438  -0.001
C  C294  1  0.64376306  0.94768248  0.71462615  1  -0.072148  0.001822  -0.088942  -0.114954  0.001423  3.998719  0.001
C  C295  1  0.71688829  0.25863178  0.58308254  1  0.025254  0.000617  -0.083363  -0.10206  0.000487  3.962324  0.0
C  C296  1  0.13004561  0.52707469  0.75007855  1  -0.048302  0.004283  -0.085658  -0.085531  0.003098  3.987416  0.003
C  C297  1  0.05480821  0.37939518  0.48254283  1  -0.068844  1e-05  -0.092689  -0.137407  6e-06  3.968513  0.0
C  C298  1  0.95582318  0.19962106  0.71222299  1  -0.048378  0.004042  -0.08589  -0.080961  0.002902  3.982391  0.002
C  C299  1  0.90288883  0.21962581  0.65604276  1  -0.072943  -0.000837  -0.095612  -0.134197  -0.000869  3.983464  -0.001
C  C300  1  0.64550068  0.27953894  0.53710834  1  -0.036687  -0.000104  -0.089269  -0.163221  -0.000119  3.978515  0.0
C  C301  1  0.50632315  0.11626209  0.79571482  1  -0.063633  0.009141  -0.083428  -0.08443  0.006783  3.98463  0.006
C  C302  1  0.55567046  0.06808833  0.76338815  1  -0.055651  -0.002402  -0.095093  -0.139044  -0.002518  3.998519  -0.002
C  C303  1  0.38951787  0.27307651  0.13910273  1  0.311733  6.2e-05  -0.054391  -0.010883  4.7e-05  3.900886  0.0
C  C304  1  0.49226659  0.22066060  0.14198820  1  0.327981  0.000752  -0.060095  -0.025765  0.000705  3.907488  0.001
C  C305  1  0.34669775  0.97709830  0.04733135  1  0.311554  0.000525  -0.049201  -0.015308  0.000488  3.880627  0.0
C  C306  1  0.89139148  0.98643137  0.34985949  1  0.012736  0.000307  -0.086976  -0.106152  0.00024  3.968264  0.0
C  C307  1  0.39983774  0.45524932  0.84990355  1  1.836469  0.007664  0.335009  0.631357  0.008213  4.214328  0.007
C  C308  1  0.29834459  0.55158286  0.87574930  1  0.318376  3.9e-05  -0.046906  -0.009288  -6.2e-05  3.884679  0.0
C  C309  1  0.35736397  0.05478294  0.04654795  1  0.343713  0.000513  -0.053468  -0.024397  0.00036  3.882259  0.0
C  C310  1  0.84016023  0.93203372  0.42230305  1  -0.070669  1e-06  -0.09523  -0.171777  -6e-06  3.992297  0.0
C  C311  1  0.41057640  0.58450750  0.82100027  1  0.303024  0.00064  -0.05496  -0.022261  0.000559  3.909195  0.0
C  C312  1  0.42633704  0.24028690  0.04109186  1  1.820288  0.003998  0.328896  0.626065  0.003712  4.19976  0.004
N  N313  1  0.72802351  0.00106160  0.00105712  1  -1.239249  0.00852  -0.429479  -0.409658  0.005616  3.440716  0.006
N  N314  1  0.62294149  0.70544149  0.93576695  1  -1.230605  0.001971  -0.439277  -0.423757  0.001206  3.443553  0.001
N  N315  1  0.74748858  0.90772946  0.96684333  1  -1.215148  0.009953  -0.427459  -0.408296  0.006996  3.466305  0.007
N  N316  1  0.55076758  0.47524558  0.20378506  1  -1.175508  0.005438  -0.438564  -0.423468  0.003566  3.438717  0.004
N  N317  1  0.68423672  0.53136337  0.09977695  1  -1.233968  0.007027  -0.426754  -0.417105  0.005301  3.465917  0.005
N  N318  1  0.23202583  0.10529737  0.44181532  1  -1.212253  0.000438  -0.258938  -0.16939  0.000253  3.652929  0.0
N  N319  1  0.44128514  0.75223327  0.53672420  1  -1.216078  0.000227  -0.254119  -0.150699  0.000124  3.680298  0.0
N  N320  1  0.51434181  0.81018502  0.90831678  1  -1.177195  0.003492  -0.436325  -0.420928  0.002403  3.428338  0.002
N  N321  1  0.27197879  0.99894036  0.99894490  1  -1.239702  0.008525  -0.429572  -0.40971  0.005619  3.440306  0.006
N  N322  1  0.37705707  0.29455060  0.06422622  1  -1.230503  0.001969  -0.439492  -0.423814  0.001205  3.44408  0.001
N  N323  1  0.25252338  0.09227725  0.03314906  1  -1.215133  0.009954  -0.427521  -0.408506  0.006996  3.466418  0.007
N  N324  1  0.44923266  0.52476793  0.79622273  1  -1.175659  0.005436  -0.438844  -0.423904  0.003563  3.438711  0.004
N  N325  1  0.31576825  0.46865484  0.90022115  1  -1.23284  0.007029  -0.426561  -0.416834  0.005302  3.466142  0.005
N  N326  1  0.76797621  0.89471154  0.55818604  1  -1.212  0.000437  -0.25887  -0.169282  0.000252  3.653128  0.0
N  N327  1  0.55872219  0.24776641  0.46328323  1  -1.215913  0.000228  -0.25408  -0.15068  0.000124  3.68005  0.0
N  N328  1  0.48565349  0.18980701  0.09168566  1  -1.17678  0.003489  -0.436279  -0.420993  0.002401  3.428249  0.002
O  O329  1  0.87146819  0.91206780  0.02814448  1  -1.240434  0.098813  -0.294842  -0.603386  0.074371  2.422226  0.039
O  O330  1  0.92897289  0.67894063  0.15228369  1  -1.203736  0.073771  -0.310372  -0.56389  0.051024  2.354882  0.033
O  O331  1  0.13317525  0.92299769  0.97625243  1  -1.212347  0.061213  -0.310496  -0.587004  0.044326  2.336655  0.028
O  O332  1  0.06303735  0.80239841  0.03812256  1  -1.201726  0.070245  -0.307681  -0.56112  0.048516  2.356541  0.031
O  O333  1  0.81254729  0.75088234  0.01431925  1  -1.194494  0.074885  -0.305574  -0.596873  0.0555  2.394191  0.03
O  O334  1  0.01709203  0.96032295  0.10851360  1  -1.209607  0.065206  -0.314796  -0.567892  0.044272  2.335683  0.028
O  O335  1  0.77530909  0.61859338  0.17197872  1  -1.202316  0.073037  -0.314893  -0.584108  0.050479  2.328302  0.035
O  O336  1  0.94800538  0.83899451  0.17302412  1  -1.20546  0.079583  -0.311739  -0.574208  0.055967  2.376792  0.039
O  O337  1  0.58068400  0.76489345  0.01508407  1  -1.19361  0.045844  -0.296531  -0.553471  0.031797  2.25572  0.021
O  O338  1  0.75013568  0.77903882  0.17750740  1  -1.215804  0.077224  -0.311294  -0.585975  0.053531  2.386843  0.031
O  O339  1  0.82259134  0.65550572  0.98117600  1  -1.195588  0.013349  -0.322909  -0.569263  0.008871  2.156424  0.008
O  O340  1  0.24207040  0.53830631  0.36457739  1  -1.12773  3.5e-05  -0.345349  -0.493959  1.6e-05  2.234853  0.0
O  O341  1  0.27181699  0.54258763  0.46474196  1  -1.137734  1.8e-05  -0.299116  -0.493669  1.2e-05  2.071726  0.0
O  O342  1  0.59732268  0.78425693  0.14234521  1  -1.178669  0.087808  -0.314975  -0.552391  0.057466  2.255727  0.039
O  O343  1  0.56931791  0.60875363  0.14971937  1  -1.20183  0.064074  -0.309627  -0.557917  0.042199  2.266721  0.025
O  O344  1  0.12851130  0.08790898  0.97187821  1  -1.241034  0.098814  -0.29478  -0.603125  0.074373  2.422473  0.039
O  O345  1  0.07100548  0.32104424  0.84773605  1  -1.203669  0.073758  -0.310445  -0.563926  0.051043  2.35465  0.033
O  O346  1  0.86682993  0.07699383  0.02376625  1  -1.213371  0.061198  -0.310224  -0.586683  0.044318  2.337107  0.028
O  O347  1  0.93689510  0.19760634  0.96187248  1  -1.202101  0.070306  -0.307751  -0.561274  0.048508  2.355889  0.031
O  O348  1  0.18746186  0.24911215  0.98568248  1  -1.194508  0.07492  -0.305611  -0.596782  0.055489  2.394098  0.03
O  O349  1  0.98288775  0.03966829  0.89151890  1  -1.208303  0.065151  -0.314832  -0.567752  0.044262  2.335405  0.028
O  O350  1  0.22467651  0.38141541  0.82799727  1  -1.201563  0.073019  -0.314848  -0.583972  0.050514  2.328253  0.035
O  O351  1  0.05198671  0.16099464  0.82695855  1  -1.205369  0.079549  -0.311743  -0.57407  0.055964  2.376472  0.039
O  O352  1  0.41932395  0.23511089  0.98490769  1  -1.193977  0.04582  -0.296536  -0.553601  0.03178  2.255832  0.021
O  O353  1  0.24978000  0.22091180  0.82252788  1  -1.21744  0.077252  -0.311446  -0.586176  0.053552  2.387002  0.031
O  O354  1  0.17741734  0.34450095  0.01881844  1  -1.195469  0.013363  -0.322893  -0.569264  0.00888  2.156353  0.008
O  O355  1  0.75793785  0.46168937  0.63540522  1  -1.127585  3.5e-05  -0.345137  -0.49385  1.6e-05  2.234763  0.0
O  O356  1  0.72820865  0.45742506  0.53522270  1  -1.137795  1.8e-05  -0.299009  -0.493479  1.2e-05  2.071812  0.0
O  O357  1  0.40260064  0.21581498  0.85762906  1  -1.177606  0.087788  -0.314881  -0.552294  0.057506  2.256565  0.039
O  O358  1  0.43071734  0.39126606  0.85026927  1  -1.20161  0.064077  -0.309673  -0.558119  0.042184  2.266403  0.025
