# generated using pymatgen
data_AgH6C6N(OF)2
_symmetry_space_group_name_H-M   'P 1'
_cell_length_a   18.25258056
_cell_length_b   18.25256237
_cell_length_c   18.25256206
_cell_angle_alpha   87.25263910
_cell_angle_beta   87.25257213
_cell_angle_gamma   87.25257857
_symmetry_Int_Tables_number   1
_chemical_formula_structural   AgH6C6N(OF)2
_chemical_formula_sum   'Ag24 H144 C144 N24 O48 F48'
_cell_volume   6060.63592019
_cell_formula_units_Z   24
loop_
 _symmetry_equiv_pos_site_id
 _symmetry_equiv_pos_as_xyz
  1  'x, y, z'
loop_
 _atom_site_type_symbol
 _atom_site_label
 _atom_site_symmetry_multiplicity
 _atom_site_fract_x
 _atom_site_fract_y
 _atom_site_fract_z
 _atom_site_occupancy
 _atom_site_pbe_bader_charge
 _atom_site_pbe_bader_spin_density
 _atom_site_pbe_cm5_charge
 _atom_site_pbe_ddec_charge
 _atom_site_pbe_ddec_spin_density
 _atom_site_pbe_ddec_sum_bond_order
 _atom_site_pbe_magmom
Ag  Ag0  1  0.25000089  0.55595559  0.94404534  1  0.563053  0  0.426385  0.333597  0  2.053077  0
Ag  Ag1  1  0.55595584  0.94404510  0.24999999  1  0.563058  0  0.426393  0.333603  0  2.053054  0
Ag  Ag2  1  0.94404552  0.25000029  0.55595510  1  0.563163  0  0.426372  0.333573  0  2.052994  0
Ag  Ag3  1  0.74999883  0.44404411  0.05595479  1  0.563061  0  0.426384  0.333584  0  2.053049  0
Ag  Ag4  1  0.44404387  0.05595459  0.74999959  1  0.56307  0  0.426383  0.333586  0  2.053046  0
Ag  Ag5  1  0.05595365  0.74999942  0.44404451  1  0.563141  0  0.426374  0.333563  0  2.053039  0
Ag  Ag6  1  0.34928406  0.62639356  0.03800892  1  0.610894  0  0.454729  0.44659  0  1.969084  0
Ag  Ag7  1  0.62639418  0.03801038  0.34928538  1  0.610863  0  0.454714  0.446562  0  1.969116  0
Ag  Ag8  1  0.03801020  0.34928557  0.62639434  1  0.610871  0  0.454731  0.446617  0  1.969063  0
Ag  Ag9  1  0.87360399  0.15071391  0.46198850  1  0.610976  0  0.454723  0.446641  0  1.969082  0
Ag  Ag10  1  0.46198953  0.87360488  0.15071415  1  0.61087  0  0.454732  0.446641  0  1.969054  0
Ag  Ag11  1  0.15071457  0.46198886  0.87360516  1  0.610876  0  0.454717  0.446621  0  1.969046  0
Ag  Ag12  1  0.65071566  0.37360559  0.96199068  1  0.610965  0  0.45474  0.446638  0  1.969049  0
Ag  Ag13  1  0.37360554  0.96198931  0.65071420  1  0.610856  0  0.454723  0.446607  0  1.969108  0
Ag  Ag14  1  0.96198952  0.65071467  0.37360576  1  0.610867  0  0.454727  0.44662  0  1.96905  0
Ag  Ag15  1  0.12639462  0.84928692  0.53800998  1  0.610932  0  0.454738  0.446627  0  1.96905  0
Ag  Ag16  1  0.53800963  0.12639484  0.84928655  1  0.610879  0  0.45474  0.446655  0  1.96904  0
Ag  Ag17  1  0.84928569  0.53800970  0.12639445  1  0.610881  0  0.454729  0.446611  0  1.969081  0
Ag  Ag18  1  0.84105283  0.65894143  0.25000179  1  0.627339  0  0.454253  0.470939  0  1.797562  0
Ag  Ag19  1  0.65894193  0.25000123  0.84105239  1  0.627405  0  0.454243  0.470889  0  1.797634  0
Ag  Ag20  1  0.25000364  0.84105301  0.65894232  1  0.627412  0  0.454238  0.470907  0  1.797599  0
Ag  Ag21  1  0.15894689  0.34105716  0.74999839  1  0.627345  0  0.454249  0.470907  0  1.797591  0
Ag  Ag22  1  0.34105834  0.74999844  0.15894771  1  0.627415  0  0.454245  0.470916  0  1.797569  0
Ag  Ag23  1  0.74999718  0.15894718  0.34105718  1  0.627407  0  0.454253  0.470901  0  1.797609  0
H  H24  1  0.15115443  0.65575264  0.95968027  1  0.048872  0  0.085664  0.129861  0  1.052705  0
H  H25  1  0.65575312  0.95967964  0.15115358  1  0.048882  0  0.085694  0.129915  0  1.052663  0
H  H26  1  0.95967869  0.15115486  0.65575182  1  0.048523  0  0.085662  0.129865  0  1.052708  0
H  H27  1  0.84424715  0.34884601  0.54032149  1  0.04853  0  0.085667  0.129853  0  1.052737  0
H  H28  1  0.54032046  0.84424741  0.34884476  1  0.048864  0  0.085675  0.129863  0  1.052714  0
H  H29  1  0.34884460  0.54032003  0.84424765  1  0.048865  0  0.085675  0.129889  0  1.052665  0
H  H30  1  0.84884583  0.34424703  0.04032038  1  0.048891  0  0.085674  0.12988  0  1.052709  0
H  H31  1  0.34424714  0.04032057  0.84884649  1  0.04889  0  0.085682  0.129893  0  1.052703  0
H  H32  1  0.04032102  0.84884538  0.34424828  1  0.048885  0  0.085678  0.129896  0  1.052686  0
H  H33  1  0.15575148  0.65115593  0.45967968  1  0.048859  0  0.085659  0.129862  0  1.052688  0
H  H34  1  0.45967925  0.15575283  0.65115534  1  0.048526  0  0.085683  0.129882  0  1.052709  0
H  H35  1  0.65115566  0.45967963  0.15575190  1  0.048862  0  0.085664  0.129865  0  1.052703  0
H  H36  1  0.10012714  0.73112353  0.91827665  1  0.040084  0  0.096092  0.138936  0  0.994962  0
H  H37  1  0.73112437  0.91827663  0.10012582  1  0.040056  0  0.096098  0.138947  0  0.994941  0
H  H38  1  0.91827565  0.10012653  0.73112423  1  0.040071  0  0.096084  0.138928  0  0.994959  0
H  H39  1  0.76887590  0.39987477  0.58172348  1  0.039972  0  0.096097  0.138934  0  0.994926  0
H  H40  1  0.58172295  0.76887684  0.39987244  1  0.040013  0  0.096111  0.138951  0  0.994901  0
H  H41  1  0.39987354  0.58172224  0.76887689  1  0.039995  0  0.096096  0.13894  0  0.9949  0
H  H42  1  0.89987313  0.26887559  0.08172347  1  0.040068  0  0.096086  0.138946  0  0.994971  0
H  H43  1  0.26887590  0.08172413  0.89987423  1  0.040055  0  0.096095  0.138939  0  0.994938  0
H  H44  1  0.08172407  0.89987371  0.26887587  1  0.040055  0  0.096094  0.138943  0  0.994937  0
H  H45  1  0.23112327  0.60012715  0.41827766  1  0.040018  0  0.096108  0.138961  0  0.994898  0
H  H46  1  0.41827731  0.23112337  0.60012708  1  0.04  0  0.0961  0.138944  0  0.994907  0
H  H47  1  0.60012672  0.41827798  0.23112318  1  0.040011  0  0.096103  0.138953  0  0.994901  0
H  H48  1  0.17919530  0.74650976  0.96791505  1  0.093814  0  0.103056  0.161728  0  0.97845  0
H  H49  1  0.74651032  0.96791530  0.17919451  1  0.093746  0  0.10305  0.161722  0  0.978465  0
H  H50  1  0.96791466  0.17919546  0.74650965  1  0.093811  0  0.103053  0.161734  0  0.978449  0
H  H51  1  0.75348885  0.32080373  0.53208632  1  0.093818  0  0.10306  0.161742  0  0.978395  0
H  H52  1  0.53208559  0.75348965  0.32080322  1  0.0938  0  0.103049  0.161711  0  0.978447  0
H  H53  1  0.32080264  0.53208564  0.75348983  1  0.093796  0  0.103046  0.161715  0  0.978442  0
H  H54  1  0.82080497  0.25348990  0.03208505  1  0.093813  0  0.10305  0.16173  0  0.978464  0
H  H55  1  0.25349049  0.03208489  0.82080499  1  0.093755  0  0.103058  0.161738  0  0.978454  0
H  H56  1  0.03208615  0.82080473  0.25348985  1  0.093837  0  0.103064  0.16175  0  0.978443  0
H  H57  1  0.24650977  0.67919711  0.46791490  1  0.093803  0  0.103052  0.161724  0  0.97842  0
H  H58  1  0.46791413  0.24651059  0.67919743  1  0.093797  0  0.103051  0.161726  0  0.978425  0
H  H59  1  0.67919708  0.46791514  0.24651024  1  0.093796  0  0.103049  0.161723  0  0.978419  0
H  H60  1  0.42447264  0.65610022  0.92031161  1  0.080502  0  0.087155  0.130883  0  1.060403  0
H  H61  1  0.65610043  0.92031251  0.42447164  1  0.080479  0  0.087142  0.130849  0  1.060442  0
H  H62  1  0.92031207  0.42447233  0.65610065  1  0.080494  0  0.087159  0.130882  0  1.060394  0
H  H63  1  0.84389927  0.07552719  0.57968783  1  0.0805  0  0.087148  0.130857  0  1.06043  0
H  H64  1  0.57968819  0.84389904  0.07552724  1  0.080501  0  0.087112  0.130823  0  1.060415  0
H  H65  1  0.07552694  0.57968705  0.84389900  1  0.080505  0  0.087114  0.130842  0  1.060392  0
H  H66  1  0.57552762  0.34389944  0.07968794  1  0.08049  0  0.087157  0.130849  0  1.06042  0
H  H67  1  0.34389928  0.07968773  0.57552791  1  0.080487  0  0.087148  0.130855  0  1.060415  0
H  H68  1  0.07968819  0.57552789  0.34389942  1  0.080484  0  0.087147  0.13084  0  1.060418  0
H  H69  1  0.15610045  0.92447305  0.42031227  1  0.080507  0  0.08714  0.130859  0  1.060387  0
H  H70  1  0.42031262  0.15610060  0.92447283  1  0.080495  0  0.087138  0.13086  0  1.060422  0
H  H71  1  0.92447278  0.42031264  0.15610058  1  0.0805  0  0.087139  0.130874  0  1.060405  0
H  H72  1  0.49155036  0.62393867  0.85366889  1  0.021044  0  0.097043  0.143132  0  0.988263  0
H  H73  1  0.62393933  0.85366919  0.49155018  1  0.021051  0  0.097046  0.143131  0  0.988268  0
H  H74  1  0.85366878  0.49155004  0.62393934  1  0.021046  0  0.09704  0.14312  0  0.988282  0
H  H75  1  0.87605982  0.00844923  0.64633055  1  0.021056  0  0.097039  0.143107  0  0.988269  0
H  H76  1  0.64633094  0.87606001  0.00844927  1  0.021047  0  0.097021  0.143107  0  0.988271  0
H  H77  1  0.00844922  0.64633069  0.87605983  1  0.021053  0  0.097023  0.143115  0  0.988268  0
H  H78  1  0.50844991  0.37606099  0.14633121  1  0.021045  0  0.09704  0.143095  0  0.988288  0
H  H79  1  0.37606093  0.14633047  0.50844992  1  0.021051  0  0.097041  0.143119  0  0.988279  0
H  H80  1  0.14633094  0.50844965  0.37606079  1  0.021047  0  0.097045  0.14311  0  0.988277  0
H  H81  1  0.12393935  0.99155103  0.35366902  1  0.021039  0  0.097044  0.143138  0  0.988233  0
H  H82  1  0.35366932  0.12393965  0.99155083  1  0.021063  0  0.097047  0.143129  0  0.988249  0
H  H83  1  0.99155104  0.35366952  0.12393970  1  0.021058  0  0.097033  0.143123  0  0.988279  0
H  H84  1  0.51823493  0.67437160  0.92774603  1  0.087009  0  0.096929  0.15068  0  0.99895  0
H  H85  1  0.67437125  0.92774671  0.51823478  1  0.087037  0  0.096917  0.150674  0  0.998936  0
H  H86  1  0.92774663  0.51823462  0.67437122  1  0.087031  0  0.096923  0.150683  0  0.998927  0
H  H87  1  0.82562834  0.98176459  0.57225287  1  0.086979  0  0.096934  0.150655  0  0.99894  0
H  H88  1  0.57225294  0.82562862  0.98176472  1  0.086977  0  0.096912  0.150663  0  0.99892  0
H  H89  1  0.98176409  0.57225249  0.82562851  1  0.086971  0  0.096924  0.150673  0  0.998927  0
H  H90  1  0.48176534  0.32562861  0.07225349  1  0.087033  0  0.096928  0.150667  0  0.998926  0
H  H91  1  0.32562847  0.07225298  0.48176534  1  0.086992  0  0.096931  0.150667  0  0.998943  0
H  H92  1  0.07225363  0.48176505  0.32562833  1  0.087033  0  0.096933  0.150663  0  0.998949  0
H  H93  1  0.17437082  0.01823567  0.42774726  1  0.087019  0  0.096947  0.150689  0  0.998949  0
H  H94  1  0.42774733  0.17437105  0.01823538  1  0.086982  0  0.096917  0.150656  0  0.998924  0
H  H95  1  0.01823508  0.42774777  0.17437162  1  0.086983  0  0.096925  0.150665  0  0.998931  0
H  H96  1  0.39886007  0.49516526  0.16080474  1  0.05276  0  0.099231  0.146224  0  0.978322  0
H  H97  1  0.49516506  0.16080504  0.39885954  1  0.052763  0  0.099232  0.146222  0  0.978323  0
H  H98  1  0.16080442  0.39885983  0.49516536  1  0.052765  0  0.099237  0.146236  0  0.978321  0
H  H99  1  0.00483314  0.10113980  0.33919573  1  0.053011  0  0.099225  0.146203  0  0.97835  0
H  H100  1  0.33919543  0.00483381  0.10113951  1  0.053019  0  0.099246  0.146255  0  0.978319  0
H  H101  1  0.10113925  0.33919535  0.00483407  1  0.053071  0  0.09924  0.146232  0  0.978348  0
H  H102  1  0.60114019  0.50483441  0.83919481  1  0.053069  0  0.099239  0.146243  0  0.978327  0
H  H103  1  0.50483465  0.83919519  0.60114001  1  0.053077  0  0.099229  0.146227  0  0.978318  0
H  H104  1  0.83919529  0.60113986  0.50483422  1  0.053074  0  0.099244  0.146257  0  0.97832  0
H  H105  1  0.99516658  0.89885989  0.66080440  1  0.053073  0  0.099234  0.146223  0  0.978349  0
H  H106  1  0.66080483  0.99516586  0.89886004  1  0.053083  0  0.099242  0.14624  0  0.978332  0
H  H107  1  0.89886047  0.66080434  0.99516661  1  0.053013  0  0.099222  0.146192  0  0.978364  0
H  H108  1  0.38343791  0.40958425  0.12193940  1  0.061141  0  0.09932  0.148344  0  0.986112  0
H  H109  1  0.40958404  0.12193984  0.38343766  1  0.061143  0  0.099334  0.148344  0  0.986125  0
H  H110  1  0.12194025  0.38343754  0.40958381  1  0.061138  0  0.099328  0.148347  0  0.986117  0
H  H111  1  0.09041470  0.11656285  0.37806041  1  0.061176  0  0.099331  0.14836  0  0.986098  0
H  H112  1  0.37806016  0.09041546  0.11656251  1  0.061158  0  0.099328  0.148373  0  0.986123  0
H  H113  1  0.11656251  0.37806015  0.09041555  1  0.061157  0  0.099326  0.148336  0  0.986115  0
H  H114  1  0.61656235  0.59041542  0.87806070  1  0.061156  0  0.099321  0.148353  0  0.986142  0
H  H115  1  0.59041622  0.87806037  0.61656241  1  0.061144  0  0.099332  0.148354  0  0.986111  0
H  H116  1  0.87806002  0.61656267  0.59041571  1  0.061151  0  0.099341  0.14837  0  0.986113  0
H  H117  1  0.90958501  0.88343739  0.62194024  1  0.061169  0  0.099319  0.148341  0  0.986121  0
H  H118  1  0.62194011  0.90958421  0.88343704  1  0.061145  0  0.099339  0.148357  0  0.986127  0
H  H119  1  0.88343776  0.62194007  0.90958452  1  0.06116  0  0.099297  0.148302  0  0.986147  0
H  H120  1  0.33418069  0.49074345  0.09116478  1  0.104203  0  0.094178  0.144399  0  1.031047  0
H  H121  1  0.49074291  0.09116463  0.33418009  1  0.104209  0  0.094205  0.144463  0  1.031043  0
H  H122  1  0.09116463  0.33418065  0.49074301  1  0.10422  0  0.094172  0.144393  0  1.031057  0
H  H123  1  0.00925584  0.16582031  0.40883507  1  0.104201  0  0.094172  0.144386  0  1.031022  0
H  H124  1  0.40883467  0.00925587  0.16582008  1  0.104219  0  0.094176  0.144412  0  1.031012  0
H  H125  1  0.16581973  0.40883469  0.00925583  1  0.104213  0  0.09418  0.144409  0  1.03101  0
H  H126  1  0.66582012  0.50925619  0.90883474  1  0.104204  0  0.094196  0.144438  0  1.031059  0
H  H127  1  0.50925680  0.90883506  0.66581948  1  0.10422  0  0.094175  0.144398  0  1.031049  0
H  H128  1  0.90883508  0.66582014  0.50925651  1  0.104211  0  0.094169  0.144404  0  1.031042  0
H  H129  1  0.99074388  0.83417993  0.59116503  1  0.10421  0  0.094178  0.1444  0  1.031011  0
H  H130  1  0.59116505  0.99074382  0.83418004  1  0.104207  0  0.094211  0.144483  0  1.03101  0
H  H131  1  0.83417998  0.59116555  0.99074372  1  0.104207  0  0.094223  0.144483  0  1.030999  0
H  H132  1  0.09673510  0.80885318  0.79005375  1  0.060247  0  0.099909  0.146136  0  0.975057  0
H  H133  1  0.80885407  0.79005375  0.09673404  1  0.060226  0  0.099938  0.14616  0  0.975021  0
H  H134  1  0.79005394  0.09673425  0.80885340  1  0.060236  0  0.099899  0.146138  0  0.97506  0
H  H135  1  0.69114399  0.40326524  0.70994333  1  0.060319  0  0.099915  0.146158  0  0.974921  0
H  H136  1  0.70994411  0.69114316  0.40326547  1  0.0603  0  0.099911  0.14614  0  0.974932  0
H  H137  1  0.40326613  0.70994337  0.69114288  1  0.060296  0  0.099906  0.146155  0  0.974928  0
H  H138  1  0.90326571  0.19114646  0.20994633  1  0.060232  0  0.099932  0.14617  0  0.975028  0
H  H139  1  0.19114565  0.20994648  0.90326551  1  0.060235  0  0.099931  0.146156  0  0.975032  0
H  H140  1  0.20994633  0.90326542  0.19114615  1  0.060241  0  0.099919  0.146135  0  0.975057  0
H  H141  1  0.30885627  0.59673442  0.29005677  1  0.060305  0  0.099922  0.14618  0  0.974908  0
H  H142  1  0.29005671  0.30885648  0.59673460  1  0.060307  0  0.099913  0.146165  0  0.974927  0
H  H143  1  0.59673414  0.29005685  0.30885664  1  0.060293  0  0.099915  0.146154  0  0.974952  0
H  H144  1  0.17006448  0.86840560  0.77159523  1  0.066405  0  0.091461  0.138401  0  1.03344  0
H  H145  1  0.86840624  0.77159529  0.17006402  1  0.066399  0  0.091474  0.138425  0  1.033425  0
H  H146  1  0.77159579  0.17006375  0.86840611  1  0.0664  0  0.091462  0.138405  0  1.033451  0
H  H147  1  0.63159292  0.32993548  0.72840179  1  0.066412  0  0.091462  0.138419  0  1.033387  0
H  H148  1  0.72840226  0.63159335  0.32993479  1  0.066405  0  0.091461  0.138405  0  1.033398  0
H  H149  1  0.32993566  0.72840166  0.63159300  1  0.066409  0  0.091462  0.138408  0  1.033387  0
H  H150  1  0.82993579  0.13159406  0.22840486  1  0.066393  0  0.091476  0.138443  0  1.033414  0
H  H151  1  0.13159403  0.22840492  0.82993605  1  0.066395  0  0.091473  0.138426  0  1.033416  0
H  H152  1  0.22840393  0.82993594  0.13159347  1  0.066397  0  0.091459  0.138393  0  1.033441  0
H  H153  1  0.36840625  0.67006478  0.27159833  1  0.066428  0  0.09147  0.13844  0  1.033382  0
H  H154  1  0.27159801  0.36840686  0.67006528  1  0.066404  0  0.091459  0.13842  0  1.033394  0
H  H155  1  0.67006405  0.27159857  0.36840655  1  0.066428  0  0.091461  0.138406  0  1.033396  0
H  H156  1  0.14236972  0.84367657  0.86428822  1  0.061283  0  0.097191  0.144857  0  0.992923  0
H  H157  1  0.84367709  0.86428746  0.14236970  1  0.061296  0  0.097181  0.144836  0  0.992999  0
H  H158  1  0.86428832  0.14236978  0.84367603  1  0.061289  0  0.097197  0.144863  0  0.992935  0
H  H159  1  0.65632591  0.35762766  0.63570929  1  0.061259  0  0.097223  0.144883  0  0.992908  0
H  H160  1  0.63570973  0.65632476  0.35762800  1  0.061228  0  0.097215  0.144886  0  0.992937  0
H  H161  1  0.35762877  0.63570936  0.65632469  1  0.061268  0  0.097203  0.144872  0  0.992935  0
H  H162  1  0.85763000  0.15632367  0.13571243  1  0.061301  0  0.097207  0.144889  0  0.992917  0
H  H163  1  0.15632317  0.13571220  0.85763040  1  0.061286  0  0.097199  0.144876  0  0.992918  0
H  H164  1  0.13571140  0.85762991  0.15632410  1  0.061282  0  0.097193  0.144851  0  0.992932  0
H  H165  1  0.34367436  0.64237200  0.36429136  1  0.061253  0  0.097216  0.144886  0  0.9929  0
H  H166  1  0.36429054  0.34367545  0.64237207  1  0.06126  0  0.097219  0.144896  0  0.99291  0
H  H167  1  0.64237149  0.36429140  0.34367481  1  0.061242  0  0.09721  0.144865  0  0.992922  0
C  C168  1  0.13104478  0.59647905  0.16226769  1  1.08931  0  0.192536  0.276035  0  3.925643  0
C  C169  1  0.59647821  0.16226825  0.13104394  1  1.08915  0  0.192563  0.276086  0  3.925589  0
C  C170  1  0.16226753  0.13104381  0.59647929  1  1.089312  0  0.192532  0.276121  0  3.925521  0
C  C171  1  0.90352217  0.36895539  0.33773229  1  1.089135  0  0.192601  0.276195  0  3.92561  0
C  C172  1  0.33773275  0.90352173  0.36895448  1  1.089127  0  0.192595  0.276252  0  3.925541  0
C  C173  1  0.36895494  0.33773258  0.90352166  1  1.08914  0  0.192581  0.276193  0  3.925686  0
C  C174  1  0.86895548  0.40352007  0.83773189  1  1.089324  0  0.192602  0.276262  0  3.925505  0
C  C175  1  0.40351930  0.83773209  0.86895571  1  1.08933  0  0.192603  0.27621  0  3.925468  0
C  C176  1  0.83773274  0.86895640  0.40352133  1  1.089318  0  0.192547  0.276156  0  3.925502  0
C  C177  1  0.09647864  0.63104479  0.66226721  1  1.089136  0  0.19263  0.276256  0  3.925568  0
C  C178  1  0.66226697  0.09647796  0.63104455  1  1.089131  0  0.192611  0.27618  0  3.925669  0
C  C179  1  0.63104423  0.66226713  0.09647849  1  1.089139  0  0.192622  0.276215  0  3.925646  0
C  C180  1  0.07035154  0.65475661  0.13912224  1  1.077138  0  0.191249  0.271767  0  3.918878  0
C  C181  1  0.65475633  0.13912245  0.07035073  1  1.077105  0  0.191227  0.271729  0  3.918849  0
C  C182  1  0.13912240  0.07035108  0.65475618  1  1.077101  0  0.191209  0.271553  0  3.919043  0
C  C183  1  0.84524406  0.42964769  0.36087899  1  1.077189  0  0.191208  0.271669  0  3.918965  0
C  C184  1  0.36087897  0.84524408  0.42964705  1  1.077193  0  0.191189  0.271627  0  3.919017  0
C  C185  1  0.42964819  0.36087831  0.84524469  1  1.0771  0  0.191208  0.271561  0  3.919109  0
C  C186  1  0.92964872  0.34524251  0.86087898  1  1.077127  0  0.191231  0.271415  0  3.91915  0
C  C187  1  0.34524229  0.86087949  0.92964934  1  1.077126  0  0.191174  0.271476  0  3.919037  0
C  C188  1  0.86087841  0.92964965  0.34524384  1  1.077104  0  0.191194  0.271511  0  3.919016  0
C  C189  1  0.15475620  0.57035252  0.63912109  1  1.077085  0  0.191199  0.271667  0  3.918947  0
C  C190  1  0.63912075  0.15475671  0.57035247  1  1.077217  0  0.191198  0.27166  0  3.919019  0
C  C191  1  0.57035208  0.63912081  0.15475599  1  1.077096  0  0.191212  0.271577  0  3.919124  0
C  C192  1  0.19507407  0.58916493  0.10347783  1  1.655422  0  0.186345  0.468696  0  4.291319  0
C  C193  1  0.58916459  0.10347721  0.19507358  1  1.655637  0  0.186328  0.468615  0  4.291361  0
C  C194  1  0.10347784  0.19507376  0.58916438  1  1.655423  0  0.186342  0.468719  0  4.291339  0
C  C195  1  0.91083634  0.30492490  0.39652162  1  1.655604  0  0.186368  0.468756  0  4.291488  0
C  C196  1  0.39652244  0.91083652  0.30492428  1  1.6556  0  0.186311  0.46864  0  4.291534  0
C  C197  1  0.30492456  0.39652242  0.91083666  1  1.655612  0  0.186346  0.468677  0  4.291544  0
C  C198  1  0.80492620  0.41083419  0.89652230  1  1.655426  0  0.186324  0.468616  0  4.291446  0
C  C199  1  0.41083458  0.89652250  0.80492603  1  1.655432  0  0.186374  0.468727  0  4.291279  0
C  C200  1  0.89652188  0.80492593  0.41083574  1  1.65544  0  0.186357  0.4687  0  4.291335  0
C  C201  1  0.08916392  0.69507586  0.60347787  1  1.655627  0  0.186334  0.468681  0  4.291621  0
C  C202  1  0.60347672  0.08916319  0.69507533  1  1.655625  0  0.18634  0.468665  0  4.291481  0
C  C203  1  0.69507515  0.60347782  0.08916344  1  1.655616  0  0.186326  0.468646  0  4.291486  0
C  C204  1  0.15553279  0.70943571  0.93045437  1  -0.053687  0  -0.238904  -0.44194  0  3.939796  0
C  C205  1  0.70943624  0.93045457  0.15553245  1  -0.053623  0  -0.238942  -0.442006  0  3.939777  0
C  C206  1  0.93045413  0.15553289  0.70943585  1  -0.053299  0  -0.238894  -0.441978  0  3.939748  0
C  C207  1  0.79056512  0.34446604  0.56954690  1  -0.053218  0  -0.23891  -0.44193  0  3.93981  0
C  C208  1  0.56954612  0.79056508  0.34446577  1  -0.05357  0  -0.238914  -0.441918  0  3.939796  0
C  C209  1  0.34446624  0.56954618  0.79056467  1  -0.053568  0  -0.23891  -0.441945  0  3.939761  0
C  C210  1  0.84446747  0.29056341  0.06954576  1  -0.053686  0  -0.238907  -0.442022  0  3.93982  0
C  C211  1  0.29056402  0.06954564  0.84446762  1  -0.053627  0  -0.238937  -0.442019  0  3.939793  0
C  C212  1  0.06954614  0.84446787  0.29056419  1  -0.053679  0  -0.238944  -0.442032  0  3.939762  0
C  C213  1  0.20943460  0.65553420  0.43045430  1  -0.053577  0  -0.238907  -0.441959  0  3.939743  0
C  C214  1  0.43045359  0.20943515  0.65553378  1  -0.053206  0  -0.238919  -0.44195  0  3.939769  0
C  C215  1  0.65553402  0.43045403  0.20943485  1  -0.053578  0  -0.238911  -0.441957  0  3.939766  0
C  C216  1  0.48073028  0.63289920  0.91232175  1  -0.054838  0  -0.240812  -0.450453  0  3.955793  0
C  C217  1  0.63289948  0.91232168  0.48072961  1  -0.054854  0  -0.240793  -0.450418  0  3.955767  0
C  C218  1  0.91232179  0.48073033  0.63289954  1  -0.054859  0  -0.240808  -0.450429  0  3.955754  0
C  C219  1  0.86710022  0.01926954  0.58767819  1  -0.054866  0  -0.240762  -0.450289  0  3.95575  0
C  C220  1  0.58767847  0.86709986  0.01926932  1  -0.054861  0  -0.240718  -0.45032  0  3.955614  0
C  C221  1  0.01926930  0.58767829  0.86710009  1  -0.054851  0  -0.240724  -0.450346  0  3.955619  0
C  C222  1  0.51926998  0.36710047  0.08767835  1  -0.054854  0  -0.240763  -0.450286  0  3.955751  0
C  C223  1  0.36710023  0.08767856  0.51926994  1  -0.054864  0  -0.240738  -0.450294  0  3.955737  0
C  C224  1  0.08767847  0.51927043  0.36710051  1  -0.054858  0  -0.240765  -0.450306  0  3.955788  0
C  C225  1  0.13289950  0.98073070  0.41232191  1  -0.054844  0  -0.240812  -0.450445  0  3.955678  0
C  C226  1  0.41232234  0.13289977  0.98073021  1  -0.054857  0  -0.240775  -0.450357  0  3.955639  0
C  C227  1  0.98073042  0.41232195  0.13289946  1  -0.054857  0  -0.240778  -0.450397  0  3.955764  0
C  C228  1  0.00185657  0.65790826  0.19336299  1  1.660234  0  0.18796  0.483804  0  4.290305  0
C  C229  1  0.65790851  0.19336376  0.00185665  1  1.660239  0  0.187947  0.483799  0  4.290363  0
C  C230  1  0.19336253  0.00185563  0.65790832  1  1.660241  0  0.187953  0.483949  0  4.290228  0
C  C231  1  0.84209299  0.49814243  0.30663936  1  1.660112  0  0.187969  0.4838  0  4.290617  0
C  C232  1  0.30663883  0.84209311  0.49814214  1  1.660261  0  0.188024  0.483896  0  4.29052  0
C  C233  1  0.49814316  0.30663864  0.84209303  1  1.660227  0  0.188013  0.483964  0  4.290473  0
C  C234  1  0.99814314  0.34209089  0.80663772  1  1.660225  0  0.188013  0.484008  0  4.290284  0
C  C235  1  0.34209121  0.80663703  0.99814342  1  1.660245  0  0.187999  0.483925  0  4.290067  0
C  C236  1  0.80663718  0.99814406  0.34209181  1  1.660241  0  0.187998  0.484056  0  4.290052  0
C  C237  1  0.15790728  0.50185724  0.69336074  1  1.660222  0  0.188013  0.483873  0  4.290578  0
C  C238  1  0.69336089  0.15790768  0.50185738  1  1.660259  0  0.187992  0.483877  0  4.290438  0
C  C239  1  0.50185656  0.69336051  0.15790712  1  1.660229  0  0.187971  0.483884  0  4.29045  0
C  C240  1  0.20400245  0.70329774  0.86254858  1  0.508743  0  0.126849  0.225219  0  3.901784  0
C  C241  1  0.70329812  0.86254854  0.20400207  1  0.508747  0  0.126855  0.225231  0  3.901889  0
C  C242  1  0.86254747  0.20400344  0.70329792  1  0.508713  0  0.126878  0.225361  0  3.901804  0
C  C243  1  0.79670269  0.29599861  0.63745201  1  0.508716  0  0.126797  0.225137  0  3.901808  0
C  C244  1  0.63745169  0.79670310  0.29599669  1  0.508697  0  0.126785  0.225143  0  3.901824  0
C  C245  1  0.29599769  0.63745128  0.79670265  1  0.508714  0  0.126847  0.225217  0  3.90185  0
C  C246  1  0.79599727  0.29670141  0.13745212  1  0.508716  0  0.126881  0.225368  0  3.901803  0
C  C247  1  0.29670214  0.13745167  0.79599855  1  0.508752  0  0.126898  0.225325  0  3.90169  0
C  C248  1  0.13745280  0.79599787  0.29670155  1  0.508739  0  0.126813  0.225176  0  3.901683  0
C  C249  1  0.20329703  0.70400273  0.36254858  1  0.508716  0  0.126873  0.225286  0  3.901709  0
C  C250  1  0.36254803  0.20329824  0.70400336  1  0.508679  0  0.126801  0.225163  0  3.901942  0
C  C251  1  0.70400258  0.36254893  0.20329687  1  0.50873  0  0.126832  0.225191  0  3.901693  0
C  C252  1  0.49138244  0.56335633  0.95793357  1  0.508903  0  0.12497  0.220525  0  3.910764  0
C  C253  1  0.56335631  0.95793405  0.49138214  1  0.50892  0  0.125001  0.22059  0  3.910698  0
C  C254  1  0.95793361  0.49138246  0.56335611  1  0.508911  0  0.124979  0.220533  0  3.910752  0
C  C255  1  0.93664339  0.00861778  0.54206629  1  0.508927  0  0.124992  0.22056  0  3.910784  0
C  C256  1  0.54206612  0.93664353  0.00861738  1  0.50892  0  0.125006  0.220586  0  3.910704  0
C  C257  1  0.00861714  0.54206642  0.93664405  1  0.508921  0  0.124996  0.220574  0  3.910755  0
C  C258  1  0.50861838  0.43664331  0.04206595  1  0.508914  0  0.124987  0.220544  0  3.9108  0
C  C259  1  0.43664341  0.04206619  0.50861741  1  0.508932  0  0.124987  0.220564  0  3.910798  0
C  C260  1  0.04206611  0.50861778  0.43664344  1  0.508915  0  0.12501  0.220579  0  3.910803  0
C  C261  1  0.06335577  0.99138249  0.45793384  1  0.508867  0  0.124998  0.220616  0  3.910679  0
C  C262  1  0.45793415  0.06335613  0.99138272  1  0.508866  0  0.125012  0.220587  0  3.910725  0
C  C263  1  0.99138203  0.45793385  0.06335607  1  0.508915  0  0.124977  0.220518  0  3.910748  0
C  C264  1  0.44636692  0.48420281  0.05222964  1  0.559506  0  0.127855  0.229822  0  3.911565  0
C  C265  1  0.48420281  0.05223017  0.44636573  1  0.559484  0  0.127836  0.2298  0  3.911604  0
C  C266  1  0.05222979  0.44636677  0.48420308  1  0.559505  0  0.127851  0.229817  0  3.911564  0
C  C267  1  0.01579703  0.05363415  0.44777121  1  0.559498  0  0.12782  0.229812  0  3.91164  0
C  C268  1  0.44777062  0.01579693  0.05363376  1  0.55949  0  0.12785  0.229894  0  3.911654  0
C  C269  1  0.05363350  0.44777032  0.01579692  1  0.559463  0  0.127847  0.22988  0  3.911567  0
C  C270  1  0.55363389  0.51579738  0.94777095  1  0.559507  0  0.127809  0.229822  0  3.911602  0
C  C271  1  0.51579690  0.94777007  0.55363327  1  0.559445  0  0.127844  0.22984  0  3.9116  0
C  C272  1  0.94777103  0.55363397  0.51579749  1  0.559485  0  0.127812  0.229807  0  3.911675  0
C  C273  1  0.98420324  0.94636607  0.55222996  1  0.559505  0  0.127807  0.229747  0  3.911657  0
C  C274  1  0.55222909  0.98420221  0.94636585  1  0.559494  0  0.127848  0.229901  0  3.911558  0
C  C275  1  0.94636621  0.55222992  0.98420318  1  0.559495  0  0.127845  0.229815  0  3.911613  0
C  C276  1  0.38747812  0.46864014  0.10982628  1  -0.093504  0  -0.236853  -0.44101  0  3.940087  0
C  C277  1  0.46863986  0.10982617  0.38747746  1  -0.093514  0  -0.236889  -0.44106  0  3.940109  0
C  C278  1  0.10982638  0.38747765  0.46864000  1  -0.093506  0  -0.236869  -0.441033  0  3.940094  0
C  C279  1  0.03135888  0.11252228  0.39017357  1  -0.093765  0  -0.236862  -0.441005  0  3.940065  0
C  C280  1  0.39017402  0.03135950  0.11252211  1  -0.093759  0  -0.236868  -0.441107  0  3.940091  0
C  C281  1  0.11252230  0.39017325  0.03135942  1  -0.093827  0  -0.236863  -0.441019  0  3.940053  0
C  C282  1  0.61252269  0.53135950  0.89017324  1  -0.093822  0  -0.236882  -0.441091  0  3.940106  0
C  C283  1  0.53135985  0.89017352  0.61252211  1  -0.093823  0  -0.236865  -0.441029  0  3.940081  0
C  C284  1  0.89017333  0.61252204  0.53135958  1  -0.09382  0  -0.236875  -0.441084  0  3.940096  0
C  C285  1  0.96864083  0.88747796  0.60982653  1  -0.093836  0  -0.23685  -0.440988  0  3.940092  0
C  C286  1  0.60982624  0.96864016  0.88747744  1  -0.093823  0  -0.236902  -0.441125  0  3.940089  0
C  C287  1  0.88747741  0.60982644  0.96864071  1  -0.093771  0  -0.236847  -0.440987  0  3.940083  0
C  C288  1  0.20339786  0.75855892  0.80609719  1  0.603267  0  0.127149  0.22024  0  3.926501  0
C  C289  1  0.75855935  0.80609750  0.20339730  1  0.602837  0  0.127136  0.220263  0  3.926472  0
C  C290  1  0.80609733  0.20339826  0.75855892  1  0.603275  0  0.127156  0.220236  0  3.926428  0
C  C291  1  0.74144036  0.29660274  0.69390242  1  0.602816  0  0.12711  0.220252  0  3.926349  0
C  C292  1  0.69390182  0.74144105  0.29660257  1  0.603259  0  0.127095  0.220234  0  3.926519  0
C  C293  1  0.29660228  0.69390156  0.74144117  1  0.602818  0  0.127101  0.220164  0  3.926523  0
C  C294  1  0.79660186  0.24144077  0.19390294  1  0.603277  0  0.127117  0.220179  0  3.926391  0
C  C295  1  0.24144036  0.19390274  0.79660280  1  0.602833  0  0.12712  0.220229  0  3.926428  0
C  C296  1  0.19390293  0.79660250  0.24144058  1  0.602812  0  0.127144  0.220306  0  3.926359  0
C  C297  1  0.25855936  0.70339805  0.30609820  1  0.603253  0  0.127087  0.220142  0  3.926484  0
C  C298  1  0.30609789  0.25855919  0.70339808  1  0.603248  0  0.127139  0.220281  0  3.926484  0
C  C299  1  0.70339744  0.30609814  0.25855951  1  0.60283  0  0.127079  0.220178  0  3.926385  0
C  C300  1  0.15042176  0.82364720  0.80869381  1  -0.080076  0  -0.235597  -0.438403  0  3.949497  0
C  C301  1  0.82364738  0.80869334  0.15042112  1  -0.079664  0  -0.235638  -0.438447  0  3.949546  0
C  C302  1  0.80869378  0.15042176  0.82364697  1  -0.080066  0  -0.23559  -0.438423  0  3.949528  0
C  C303  1  0.67635287  0.34957733  0.69130372  1  -0.079725  0  -0.235626  -0.438479  0  3.949382  0
C  C304  1  0.69130427  0.67635339  0.34957714  1  -0.080073  0  -0.235603  -0.438436  0  3.949445  0
C  C305  1  0.34957729  0.69130376  0.67635268  1  -0.079705  0  -0.235629  -0.438473  0  3.949432  0
C  C306  1  0.84957851  0.17635247  0.19130684  1  -0.080077  0  -0.235625  -0.438489  0  3.949431  0
C  C307  1  0.17635233  0.19130635  0.84957846  1  -0.079668  0  -0.235627  -0.438461  0  3.949467  0
C  C308  1  0.19130594  0.84957848  0.17635258  1  -0.079659  0  -0.235606  -0.438418  0  3.949482  0
C  C309  1  0.32364630  0.65042293  0.30869641  1  -0.080119  0  -0.235657  -0.438542  0  3.949433  0
C  C310  1  0.30869599  0.32364682  0.65042293  1  -0.080109  0  -0.235634  -0.438529  0  3.949418  0
C  C311  1  0.65042188  0.30869651  0.32364690  1  -0.079711  0  -0.235608  -0.438424  0  3.949403  0
N  N312  1  0.24999979  0.64363420  0.85636579  1  -1.19518  0  -0.318527  -0.248448  0  3.513937  0
N  N313  1  0.64363426  0.85636591  0.24999887  1  -1.195195  0  -0.3185  -0.248451  0  3.513993  0
N  N314  1  0.85636600  0.25000041  0.64363479  1  -1.195263  0  -0.318549  -0.24852  0  3.514044  0
N  N315  1  0.75000047  0.35636546  0.14363431  1  -1.195182  0  -0.318539  -0.248488  0  3.514007  0
N  N316  1  0.35636600  0.14363485  0.75000117  1  -1.195157  0  -0.318554  -0.248524  0  3.51399  0
N  N317  1  0.14363372  0.75000038  0.35636583  1  -1.195258  0  -0.318499  -0.248409  0  3.513783  0
N  N318  1  0.43938488  0.54661521  0.01013772  1  -1.15623  0  -0.320917  -0.263654  0  3.534333  0
N  N319  1  0.54661548  0.01013814  0.43938466  1  -1.156189  0  -0.320926  -0.263673  0  3.534343  0
N  N320  1  0.01013789  0.43938459  0.54661548  1  -1.15619  0  -0.320931  -0.263665  0  3.534347  0
N  N321  1  0.95338434  0.06061551  0.48986212  1  -1.156305  0  -0.320943  -0.263755  0  3.534442  0
N  N322  1  0.48986240  0.95338459  0.06061536  1  -1.15619  0  -0.320963  -0.263786  0  3.534494  0
N  N323  1  0.06061539  0.48986223  0.95338459  1  -1.156179  0  -0.320976  -0.263809  0  3.534414  0
N  N324  1  0.56061593  0.45338443  0.98986235  1  -1.156313  0  -0.320951  -0.263754  0  3.534433  0
N  N325  1  0.45338478  0.98986153  0.56061544  1  -1.156186  0  -0.320993  -0.263812  0  3.534423  0
N  N326  1  0.98986182  0.56061510  0.45338464  1  -1.156242  0  -0.320953  -0.263739  0  3.534502  0
N  N327  1  0.04661483  0.93938476  0.51013746  1  -1.156205  0  -0.32092  -0.263685  0  3.534429  0
N  N328  1  0.51013786  0.04661507  0.93938474  1  -1.156186  0  -0.320988  -0.263856  0  3.534489  0
N  N329  1  0.93938487  0.51013798  0.04661548  1  -1.156206  0  -0.320927  -0.263667  0  3.534369  0
N  N330  1  0.25000035  0.75291743  0.74708205  1  -1.186416  0  -0.317661  -0.260239  0  3.519103  0
N  N331  1  0.75291778  0.74708163  0.24999994  1  -1.186387  0  -0.317676  -0.26033  0  3.519112  0
N  N332  1  0.74708137  0.24999930  0.75291814  1  -1.186437  0  -0.317671  -0.260278  0  3.519018  0
N  N333  1  0.74999992  0.24708278  0.25291857  1  -1.186435  0  -0.317664  -0.260263  0  3.519038  0
N  N334  1  0.24708193  0.25291807  0.75000018  1  -1.186425  0  -0.317677  -0.2603  0  3.519066  0
N  N335  1  0.25291835  0.75000094  0.24708305  1  -1.186418  0  -0.317649  -0.260259  0  3.519024  0
O  O336  1  0.24331375  0.63593765  0.10751222  1  -1.122011  0  -0.325638  -0.514571  0  2.405352  0
O  O337  1  0.63593790  0.10751181  0.24331304  1  -1.12199  0  -0.325631  -0.514539  0  2.405431  0
O  O338  1  0.10751295  0.24331319  0.63593811  1  -1.121994  0  -0.325629  -0.514599  0  2.405325  0
O  O339  1  0.86406193  0.25668671  0.39248779  1  -1.122018  0  -0.325659  -0.514606  0  2.405422  0
O  O340  1  0.39248843  0.86406163  0.25668648  1  -1.122014  0  -0.325645  -0.514596  0  2.405462  0
O  O341  1  0.25668763  0.39248808  0.86406225  1  -1.121999  0  -0.325644  -0.514571  0  2.405505  0
O  O342  1  0.75668652  0.36406202  0.89248788  1  -1.122021  0  -0.325632  -0.514557  0  2.40554  0
O  O343  1  0.36406181  0.89248788  0.75668599  1  -1.122019  0  -0.325675  -0.514652  0  2.405376  0
O  O344  1  0.89248677  0.75668704  0.36406144  1  -1.122021  0  -0.325638  -0.514567  0  2.405301  0
O  O345  1  0.13593779  0.74331298  0.60751179  1  -1.122067  0  -0.325624  -0.514554  0  2.405498  0
O  O346  1  0.60751183  0.13593804  0.74331307  1  -1.122  0  -0.325658  -0.514587  0  2.405381  0
O  O347  1  0.74331319  0.60751210  0.13593835  1  -1.122011  0  -0.325669  -0.514607  0  2.405433  0
O  O348  1  0.19022673  0.53973478  0.05849244  1  -1.124402  0  -0.318861  -0.48418  0  2.355843  0
O  O349  1  0.53973498  0.05849109  0.19022600  1  -1.124444  0  -0.318844  -0.484121  0  2.355809  0
O  O350  1  0.05849391  0.19022749  0.53973444  1  -1.124395  0  -0.318863  -0.484168  0  2.355898  0
O  O351  1  0.96026758  0.30976980  0.44150541  1  -1.124387  0  -0.318848  -0.484205  0  2.355915  0
O  O352  1  0.44150637  0.96026751  0.30976970  1  -1.124407  0  -0.318827  -0.484138  0  2.355873  0
O  O353  1  0.30976971  0.44150635  0.96026777  1  -1.12442  0  -0.318859  -0.48417  0  2.355904  0
O  O354  1  0.80977354  0.46026488  0.94150766  1  -1.124382  0  -0.318844  -0.484147  0  2.355809  0
O  O355  1  0.46026473  0.94150696  0.80977366  1  -1.124387  0  -0.318851  -0.484153  0  2.355861  0
O  O356  1  0.94150635  0.80977217  0.46026566  1  -1.124397  0  -0.318875  -0.484186  0  2.355917  0
O  O357  1  0.03973268  0.69023041  0.55849412  1  -1.12441  0  -0.31886  -0.484183  0  2.355925  0
O  O358  1  0.55849335  0.03973273  0.69022985  1  -1.124433  0  -0.318862  -0.484152  0  2.355906  0
O  O359  1  0.69023001  0.55849444  0.03973230  1  -1.124404  0  -0.318838  -0.484132  0  2.355905  0
O  O360  1  0.94165132  0.64214495  0.16812877  1  -1.135313  0  -0.32828  -0.525896  0  2.394046  0
O  O361  1  0.64214505  0.16812929  0.94165107  1  -1.135373  0  -0.328288  -0.525904  0  2.393989  0
O  O362  1  0.16813000  0.94165023  0.64214474  1  -1.135419  0  -0.328253  -0.525912  0  2.394056  0
O  O363  1  0.85785630  0.55834817  0.33187358  1  -1.135297  0  -0.328265  -0.52584  0  2.394199  0
O  O364  1  0.33187345  0.85785660  0.55834775  1  -1.13542  0  -0.328291  -0.525868  0  2.394169  0
O  O365  1  0.55834839  0.33187326  0.85785655  1  -1.135301  0  -0.328315  -0.525932  0  2.394148  0
O  O366  1  0.05834785  0.35785532  0.83187136  1  -1.135303  0  -0.328303  -0.525956  0  2.394118  0
O  O367  1  0.35785741  0.83186972  0.05834895  1  -1.135388  0  -0.328313  -0.525967  0  2.393978  0
O  O368  1  0.83186917  0.05834948  0.35785706  1  -1.135411  0  -0.328309  -0.525973  0  2.394028  0
O  O369  1  0.14214342  0.44165207  0.66812652  1  -1.135291  0  -0.328299  -0.525884  0  2.394159  0
O  O370  1  0.66812682  0.14214362  0.44165232  1  -1.135421  0  -0.328254  -0.525838  0  2.394129  0
O  O371  1  0.44165187  0.66812695  0.14214353  1  -1.13531  0  -0.328281  -0.525882  0  2.394122  0
O  O372  1  0.01573921  0.67737350  0.25613086  1  -1.143955  0  -0.323088  -0.518947  0  2.373108  0
O  O373  1  0.67737428  0.25613171  0.01573913  1  -1.143998  0  -0.323041  -0.518889  0  2.373205  0
O  O374  1  0.25613114  0.01573881  0.67737393  1  -1.143944  0  -0.323073  -0.518972  0  2.373048  0
O  O375  1  0.82262722  0.48426097  0.24387091  1  -1.143855  0  -0.323098  -0.518972  0  2.373307  0
O  O376  1  0.24387078  0.82262696  0.48426026  1  -1.143882  0  -0.323117  -0.519016  0  2.373243  0
O  O377  1  0.48426106  0.24387091  0.82262729  1  -1.143864  0  -0.3231  -0.519016  0  2.37323  0
O  O378  1  0.98426050  0.32262564  0.74386929  1  -1.143953  0  -0.323093  -0.518986  0  2.373028  0
O  O379  1  0.32262488  0.74386910  0.98426042  1  -1.143971  0  -0.323074  -0.518926  0  2.372988  0
O  O380  1  0.74386858  0.98426034  0.32262622  1  -1.143955  0  -0.323035  -0.518961  0  2.372931  0
O  O381  1  0.17737305  0.51573925  0.75612916  1  -1.143868  0  -0.323108  -0.518992  0  2.37326  0
O  O382  1  0.75612948  0.17737325  0.51573872  1  -1.143883  0  -0.323122  -0.519037  0  2.373258  0
O  O383  1  0.51573920  0.75612930  0.17737279  1  -1.143847  0  -0.323092  -0.518979  0  2.373196  0
F  F384  1  0.15791934  0.61370153  0.22804851  1  -0.623484  0  -0.099749  -0.149609  0  1.400368  0
F  F385  1  0.61370056  0.22804875  0.15791919  1  -0.623484  0  -0.099759  -0.149625  0  1.40036  0
F  F386  1  0.22804911  0.15791776  0.61369890  1  -0.623461  0  -0.099746  -0.149611  0  1.400308  0
F  F387  1  0.88630093  0.34208026  0.27195198  1  -0.623449  0  -0.099786  -0.149665  0  1.400396  0
F  F388  1  0.27195226  0.88630139  0.34208026  1  -0.623445  0  -0.099781  -0.14968  0  1.400389  0
F  F389  1  0.34208094  0.27195155  0.88630090  1  -0.623461  0  -0.099819  -0.149695  0  1.400449  0
F  F390  1  0.84208093  0.38629814  0.77195213  1  -0.623493  0  -0.099786  -0.149657  0  1.400393  0
F  F391  1  0.38629806  0.77195154  0.84208096  1  -0.6235  0  -0.099804  -0.149676  0  1.400389  0
F  F392  1  0.77195115  0.84208190  0.38630120  1  -0.623454  0  -0.099764  -0.14964  0  1.400305  0
F  F393  1  0.11369934  0.65791941  0.72804812  1  -0.62345  0  -0.099806  -0.149695  0  1.400432  0
F  F394  1  0.72804745  0.11369775  0.65791880  1  -0.62342  0  -0.099765  -0.149653  0  1.4005  0
F  F395  1  0.65791878  0.72804814  0.11369977  1  -0.623451  0  -0.099793  -0.149671  0  1.40043  0
F  F396  1  0.09692040  0.53062443  0.17494208  1  -0.624089  0  -0.107864  -0.167743  0  1.346986  0
F  F397  1  0.53062456  0.17494237  0.09691965  1  -0.624117  0  -0.10789  -0.167769  0  1.347007  0
F  F398  1  0.17494111  0.09691794  0.53062366  1  -0.62412  0  -0.107851  -0.167761  0  1.346963  0
F  F399  1  0.96937529  0.40308234  0.32505838  1  -0.624126  0  -0.107905  -0.167812  0  1.346986  0
F  F400  1  0.32505916  0.96937517  0.40308209  1  -0.624101  0  -0.107883  -0.167799  0  1.346956  0
F  F401  1  0.40308207  0.32505846  0.96937558  1  -0.62412  0  -0.107825  -0.167722  0  1.346994  0
F  F402  1  0.90308041  0.46937466  0.82505857  1  -0.624069  0  -0.107866  -0.167769  0  1.346928  0
F  F403  1  0.46937406  0.82505792  0.90307995  1  -0.62405  0  -0.107855  -0.167742  0  1.346962  0
F  F404  1  0.82505860  0.90308174  0.46937592  1  -0.624125  0  -0.107851  -0.167763  0  1.346987  0
F  F405  1  0.03062498  0.59691787  0.67494114  1  -0.624105  0  -0.107894  -0.167812  0  1.346932  0
F  F406  1  0.67494000  0.03062455  0.59691696  1  -0.624123  0  -0.107893  -0.167784  0  1.346949  0
F  F407  1  0.59691710  0.67494125  0.03062457  1  -0.624125  0  -0.107884  -0.167771  0  1.346964  0
F  F408  1  0.10025644  0.72308512  0.13292684  1  -0.617005  0  -0.106631  -0.159259  0  1.342539  0
F  F409  1  0.72308423  0.13292819  0.10025623  1  -0.616974  0  -0.106643  -0.159292  0  1.342498  0
F  F410  1  0.13292800  0.10025587  0.72308469  1  -0.616977  0  -0.106649  -0.159264  0  1.342538  0
F  F411  1  0.77691506  0.39974531  0.36707157  1  -0.616975  0  -0.10663  -0.159262  0  1.342513  0
F  F412  1  0.36707172  0.77691522  0.39974437  1  -0.616987  0  -0.106632  -0.159254  0  1.342495  0
F  F413  1  0.39974548  0.36707218  0.77691503  1  -0.616969  0  -0.106639  -0.159252  0  1.342519  0
F  F414  1  0.89974437  0.27691398  0.86707490  1  -0.617013  0  -0.106699  -0.159235  0  1.34257  0
F  F415  1  0.27691439  0.86707429  0.89974436  1  -0.61701  0  -0.106645  -0.159222  0  1.342586  0
F  F416  1  0.86707117  0.89974385  0.27691601  1  -0.616963  0  -0.106648  -0.159247  0  1.342544  0
F  F417  1  0.22308520  0.60025545  0.63292793  1  -0.616982  0  -0.106637  -0.159268  0  1.342479  0
F  F418  1  0.63292745  0.22308504  0.60025575  1  -0.617007  0  -0.106631  -0.159248  0  1.342594  0
F  F419  1  0.60025478  0.63292749  0.22308507  1  -0.616979  0  -0.106637  -0.159241  0  1.342539  0
F  F420  1  0.05152251  0.63914175  0.06944774  1  -0.626593  0  -0.105863  -0.158526  0  1.376462  0
F  F421  1  0.63914178  0.06944838  0.05152254  1  -0.626559  0  -0.105842  -0.15848  0  1.376469  0
F  F422  1  0.06944770  0.05152205  0.63914205  1  -0.626571  0  -0.105846  -0.158458  0  1.376498  0
F  F423  1  0.86085915  0.44847461  0.43055358  1  -0.626597  0  -0.105818  -0.158463  0  1.376463  0
F  F424  1  0.43055311  0.86085871  0.44847466  1  -0.626587  0  -0.105817  -0.158472  0  1.376526  0
F  F425  1  0.44847502  0.43055372  0.86085947  1  -0.6266  0  -0.105822  -0.158452  0  1.376532  0
F  F426  1  0.94847775  0.36085901  0.93055231  1  -0.626618  0  -0.105826  -0.158408  0  1.376548  0
F  F427  1  0.36085958  0.93055123  0.94847861  1  -0.626616  0  -0.105811  -0.158405  0  1.376523  0
F  F428  1  0.93055201  0.94847819  0.36085860  1  -0.626586  0  -0.105839  -0.158452  0  1.376558  0
F  F429  1  0.13914111  0.55152560  0.56944594  1  -0.626601  0  -0.105824  -0.158486  0  1.376464  0
F  F430  1  0.56944660  0.13914098  0.55152547  1  -0.626598  0  -0.105838  -0.158493  0  1.37648  0
F  F431  1  0.55152524  0.56944595  0.13914063  1  -0.626613  0  -0.105822  -0.158452  0  1.376523  0
