# generated using pymatgen
data_Yb2H36C51(NO5)3
_symmetry_space_group_name_H-M   'P 1'
_cell_length_a   14.04501297
_cell_length_b   15.03551659
_cell_length_c   21.86420899
_cell_angle_alpha   89.99989826
_cell_angle_beta   90.00007901
_cell_angle_gamma   104.54870167
_symmetry_Int_Tables_number   1
_chemical_formula_structural   Yb2H36C51(NO5)3
_chemical_formula_sum   'Yb8 H144 C204 N12 O60'
_cell_volume   4469.10155286
_cell_formula_units_Z   4
loop_
 _symmetry_equiv_pos_site_id
 _symmetry_equiv_pos_as_xyz
  1  'x, y, z'
loop_
 _atom_site_type_symbol
 _atom_site_label
 _atom_site_symmetry_multiplicity
 _atom_site_fract_x
 _atom_site_fract_y
 _atom_site_fract_z
 _atom_site_occupancy
 _atom_site_pbe_bader_charge
 _atom_site_pbe_bader_spin_density
 _atom_site_pbe_cm5_charge
 _atom_site_pbe_ddec_charge
 _atom_site_pbe_ddec_spin_density
 _atom_site_pbe_ddec_sum_bond_order
 _atom_site_pbe_magmom
Yb  Yb0  1  0.51181711  0.93740888  0.72249961  1  2.185199  0  1.580251  2.059334  0  2.119157  0
Yb  Yb1  1  0.98818243  0.56259065  0.22250025  1  2.185193  0  1.580282  2.059345  0  2.119244  0
Yb  Yb2  1  0.48818156  0.06259176  0.27750027  1  2.185251  0  1.580271  2.059333  0  2.11921  0
Yb  Yb3  1  0.01181749  0.43740931  0.77749962  1  2.185181  0  1.580245  2.059277  0  2.119317  0
Yb  Yb4  1  0.68632789  0.32352435  0.74353581  1  2.170313  0  1.607565  2.059973  0  2.160414  0
Yb  Yb5  1  0.81367324  0.17647589  0.24353616  1  2.170302  0  1.607543  2.059818  0  2.160628  0
Yb  Yb6  1  0.31367292  0.67647631  0.25646361  1  2.170299  0  1.607562  2.059876  0  2.160543  0
Yb  Yb7  1  0.18632650  0.82352340  0.75646326  1  2.170302  0  1.607518  2.059813  0  2.160674  0
H  H8  1  0.77178060  0.80904740  0.79015512  1  0.09616  0  0.100576  0.107288  0  1.026959  0
H  H9  1  0.72821815  0.69095130  0.29015583  1  0.096134  0  0.100599  0.107293  0  1.026869  0
H  H10  1  0.22821789  0.19095255  0.20984476  1  0.096167  0  0.100568  0.107304  0  1.026945  0
H  H11  1  0.27178088  0.30904798  0.70984404  1  0.096136  0  0.100573  0.107258  0  1.02693  0
H  H12  1  0.87297736  0.69550678  0.79631415  1  0.074617  0  0.109819  0.111265  0  1.007183  0
H  H13  1  0.62702175  0.80449328  0.29631464  1  0.074584  0  0.109822  0.111286  0  1.007149  0
H  H14  1  0.12702202  0.30449387  0.20368572  1  0.074595  0  0.109817  0.111259  0  1.007183  0
H  H15  1  0.37297745  0.19550668  0.70368523  1  0.074584  0  0.109826  0.111302  0  1.007137  0
H  H16  1  0.57562989  0.72678164  0.60923703  1  0.114916  0  0.101226  0.114831  0  1.045215  0
H  H17  1  0.92436875  0.77321814  0.10923690  1  0.114939  0  0.101241  0.114867  0  1.045191  0
H  H18  1  0.42436860  0.27321832  0.39076284  1  0.114803  0  0.101213  0.114832  0  1.045173  0
H  H19  1  0.07562938  0.22678318  0.89076251  1  0.114906  0  0.101205  0.114825  0  1.045209  0
H  H20  1  0.55714349  0.60355583  0.53178129  1  0.051625  0  0.097894  0.0929  0  1.001995  0
H  H21  1  0.94285521  0.89644481  0.03178149  1  0.051645  0  0.097872  0.092895  0  1.001978  0
H  H22  1  0.44285589  0.39644482  0.46821813  1  0.051654  0  0.097881  0.092887  0  1.001974  0
H  H23  1  0.05714221  0.10355650  0.96821793  1  0.051614  0  0.09785  0.092864  0  1.00199  0
H  H24  1  0.65487661  0.48611623  0.54077144  1  0.069861  0  0.099068  0.094258  0  1.008458  0
H  H25  1  0.84512278  0.01388443  0.04077248  1  0.069856  0  0.099084  0.094262  0  1.008509  0
H  H26  1  0.34512349  0.51388442  0.45922843  1  0.06985  0  0.099063  0.094248  0  1.00847  0
H  H27  1  0.15487446  0.98611619  0.95922831  1  0.069875  0  0.099085  0.094302  0  1.008478  0
H  H28  1  0.76530600  0.48932951  0.62824046  1  0.102525  0  0.107548  0.118889  0  1.026195  0
H  H29  1  0.73469335  0.01067027  0.12824095  1  0.102514  0  0.107566  0.118917  0  1.026213  0
H  H30  1  0.23469338  0.51067114  0.37175987  1  0.102513  0  0.107572  0.118936  0  1.026194  0
H  H31  1  0.26530371  0.98932966  0.87175938  1  0.10256  0  0.107563  0.118899  0  1.026198  0
H  H32  1  0.44898410  0.74597995  0.45683950  1  0.084434  0  0.107456  0.11263  0  0.98386  0
H  H33  1  0.05101474  0.75401862  0.95684003  1  0.084421  0  0.107468  0.112656  0  0.983892  0
H  H34  1  0.55101653  0.25402002  0.54315946  1  0.084301  0  0.107474  0.112659  0  0.983897  0
H  H35  1  0.94898429  0.24598065  0.04316121  1  0.084401  0  0.107447  0.112649  0  0.983901  0
H  H36  1  0.44889836  0.79162075  0.56707397  1  0.095034  0  0.110072  0.117305  0  1.00473  0
H  H37  1  0.05110006  0.70837663  0.06707451  1  0.095025  0  0.110049  0.117269  0  1.004716  0
H  H38  1  0.55110138  0.20837854  0.43292545  1  0.095028  0  0.11007  0.117286  0  1.00472  0
H  H39  1  0.94890005  0.29162128  0.93292628  1  0.094916  0  0.110067  0.11731  0  1.004688  0
H  H40  1  0.16699435  0.82266274  0.37076944  1  0.055648  0  0.100376  0.101597  0  1.03257  0
H  H41  1  0.33300471  0.67733740  0.87076986  1  0.055675  0  0.100363  0.101589  0  1.032582  0
H  H42  1  0.83300486  0.17733722  0.62922997  1  0.055591  0  0.10037  0.101595  0  1.032576  0
H  H43  1  0.66699521  0.32266257  0.12923002  1  0.055588  0  0.100372  0.101603  0  1.032568  0
H  H44  1  0.03611663  0.89056574  0.41045841  1  0.055963  0  0.095325  0.091271  0  1.024542  0
H  H45  1  0.46388267  0.60943500  0.91045856  1  0.055988  0  0.09533  0.091294  0  1.024551  0
H  H46  1  0.96388347  0.10943492  0.58954101  1  0.055525  0  0.095339  0.091323  0  1.024522  0
H  H47  1  0.53611725  0.39056497  0.08954085  1  0.055537  0  0.095345  0.091325  0  1.024519  0
H  H48  1  0.03087123  0.92787796  0.52151019  1  0.064019  0  0.095098  0.09182  0  1.018863  0
H  H49  1  0.46912836  0.57212159  0.02151035  1  0.064001  0  0.095094  0.091816  0  1.01887  0
H  H50  1  0.96912869  0.07212201  0.47848968  1  0.063994  0  0.095094  0.091828  0  1.018865  0
H  H51  1  0.53087227  0.42787839  0.97848952  1  0.064025  0  0.095101  0.091866  0  1.018848  0
H  H52  1  0.15545817  0.89758600  0.59220434  1  0.129269  0  0.10895  0.125841  0  1.020084  0
H  H53  1  0.34454046  0.60241201  0.09220481  1  0.129254  0  0.108951  0.125834  0  1.020103  0
H  H54  1  0.84454175  0.10241397  0.40779462  1  0.129235  0  0.108943  0.125819  0  1.020116  0
H  H55  1  0.65546017  0.39758796  0.90779460  1  0.129245  0  0.108945  0.125821  0  1.020107  0
H  H56  1  0.58593319  0.56904792  0.81357428  1  0.095255  0  0.107322  0.11499  0  1.002648  0
H  H57  1  0.91407076  0.93095420  0.31357395  1  0.095217  0  0.107367  0.11502  0  1.002615  0
H  H58  1  0.41406636  0.43095341  0.18642605  1  0.095273  0  0.107324  0.115015  0  1.002597  0
H  H59  1  0.08593094  0.06904716  0.68642501  1  0.095256  0  0.107335  0.115  0  1.002601  0
H  H60  1  0.50528149  0.70003833  0.81496822  1  0.094943  0  0.11052  0.115471  0  0.999335  0
H  H61  1  0.99471962  0.79996102  0.31496904  1  0.09488  0  0.110509  0.11544  0  0.999248  0
H  H62  1  0.49471771  0.29996163  0.18503120  1  0.094975  0  0.11051  0.115459  0  0.999235  0
H  H63  1  0.00528048  0.20003963  0.68503038  1  0.094875  0  0.110497  0.115436  0  0.999228  0
H  H64  1  0.44907876  0.38802055  0.63961834  1  0.15668  0  0.105673  0.12459  0  1.026858  0
H  H65  1  0.05092275  0.11198017  0.13961671  1  0.1567  0  0.105689  0.124555  0  1.026908  0
H  H66  1  0.55092062  0.61198010  0.36038199  1  0.156659  0  0.105682  0.124601  0  1.026798  0
H  H67  1  0.94907931  0.88801982  0.86038225  1  0.156653  0  0.105662  0.124578  0  1.026834  0
H  H68  1  0.32627582  0.39912878  0.56047478  1  0.045302  0  0.096297  0.087705  0  1.028351  0
H  H69  1  0.17372611  0.10087144  0.06047327  1  0.045558  0  0.096289  0.087705  0  1.028298  0
H  H70  1  0.67372410  0.60087119  0.43952600  1  0.045296  0  0.096287  0.087702  0  1.028335  0
H  H71  1  0.82627578  0.89912787  0.93952568  1  0.045285  0  0.096286  0.087706  0  1.028328  0
H  H72  1  0.24585608  0.52958940  0.56215458  1  0.046486  0  0.09754  0.093886  0  1.016032  0
H  H73  1  0.25414411  0.97040938  0.06215315  1  0.046451  0  0.097535  0.093867  0  1.016023  0
H  H74  1  0.75414295  0.47040987  0.43784621  1  0.046484  0  0.097524  0.093848  0  1.015983  0
H  H75  1  0.74585706  0.02958992  0.93784672  1  0.046469  0  0.097562  0.093902  0  1.015999  0
H  H76  1  0.28387943  0.64498838  0.64451058  1  0.103006  0  0.104601  0.110998  0  1.020867  0
H  H77  1  0.21612018  0.85501021  0.14451017  1  0.102981  0  0.10461  0.110999  0  1.020825  0
H  H78  1  0.71611960  0.35501089  0.35548929  1  0.103008  0  0.104604  0.110988  0  1.020862  0
H  H79  1  0.78388117  0.14498978  0.85549016  1  0.103  0  0.104601  0.110981  0  1.020874  0
H  H80  1  0.59372026  0.09642571  0.83340332  1  0.135607  0  0.121209  0.087738  0  1.038292  0
H  H81  1  0.90627958  0.40357431  0.33340348  1  0.135612  0  0.121217  0.087741  0  1.038282  0
H  H82  1  0.40628019  0.90357358  0.16659701  1  0.135599  0  0.121205  0.08771  0  1.038295  0
H  H83  1  0.09371926  0.59642702  0.66659640  1  0.13566  0  0.121218  0.08773  0  1.038317  0
H  H84  1  0.59122640  0.12911769  0.94253691  1  0.047285  0  0.111609  0.120448  0  1.002276  0
H  H85  1  0.90877504  0.37088210  0.44253711  1  0.04714  0  0.111599  0.120419  0  1.002288  0
H  H86  1  0.40877441  0.87088297  0.05746342  1  0.047318  0  0.111601  0.120421  0  1.002263  0
H  H87  1  0.09122559  0.62911787  0.55746277  1  0.047118  0  0.111609  0.120435  0  1.002265  0
H  H88  1  0.42135405  0.84732788  0.96755948  1  0.083853  0  0.105585  0.109177  0  1.036307  0
H  H89  1  0.07864534  0.65267274  0.46755920  1  0.083847  0  0.105608  0.109224  0  1.036319  0
H  H90  1  0.57864550  0.15267346  0.03244085  1  0.083846  0  0.105588  0.109169  0  1.036282  0
H  H91  1  0.92135583  0.34732656  0.53244113  1  0.083878  0  0.10559  0.109175  0  1.036292  0
H  H92  1  0.43390564  0.82731092  0.85718688  1  0.125742  0  0.118473  0.087217  0  1.043604  0
H  H93  1  0.06609215  0.67268992  0.35718610  1  0.125725  0  0.118485  0.087266  0  1.043543  0
H  H94  1  0.56609374  0.17268973  0.14281391  1  0.125724  0  0.118492  0.087271  0  1.043551  0
H  H95  1  0.93390794  0.32731074  0.64281468  1  0.125732  0  0.118503  0.087265  0  1.043584  0
H  H96  1  0.70289034  0.09971845  0.74333013  1  0.667153  0  0.302822  0.41515  0  0.917033  0
H  H97  1  0.79710936  0.40028177  0.24332974  1  0.667146  0  0.302829  0.415117  0  0.917077  0
H  H98  1  0.29711047  0.90028221  0.25667020  1  0.667158  0  0.302831  0.415153  0  0.917031  0
H  H99  1  0.20289056  0.59971820  0.75667013  1  0.667139  0  0.302827  0.415117  0  0.917076  0
H  H100  1  0.69673649  0.99730868  0.76645093  1  0.611496  0  0.313868  0.402116  0  0.916623  0
H  H101  1  0.80326347  0.50269213  0.26645103  1  0.6115  0  0.313878  0.402126  0  0.916579  0
H  H102  1  0.30326361  0.00269197  0.23354894  1  0.611498  0  0.313883  0.402118  0  0.916593  0
H  H103  1  0.19673645  0.49730784  0.73354884  1  0.6115  0  0.313886  0.402138  0  0.916563  0
H  H104  1  0.48756212  0.03308018  0.61128414  1  0.645668  0  0.285266  0.34988  0  1.011252  0
H  H105  1  0.01243774  0.46691990  0.11128342  1  0.645666  0  0.285317  0.35001  0  1.011094  0
H  H106  1  0.51243851  0.96691979  0.38871573  1  0.645632  0  0.285334  0.349997  0  1.011119  0
H  H107  1  0.98756075  0.53308006  0.88871646  1  0.645613  0  0.285322  0.349988  0  1.01113  0
H  H108  1  0.57323464  0.10096665  0.64821207  1  0.636241  0  0.292096  0.396065  0  0.942382  0
H  H109  1  0.92676634  0.39903379  0.14821133  1  0.636249  0  0.292102  0.396081  0  0.942362  0
H  H110  1  0.42676634  0.89903470  0.35178872  1  0.636256  0  0.292111  0.396094  0  0.942345  0
H  H111  1  0.07323269  0.60096548  0.85178854  1  0.636251  0  0.292115  0.396109  0  0.942325  0
H  H112  1  0.51682598  0.24054223  0.82452522  1  0.633965  0  0.287585  0.35357  0  1.003047  0
H  H113  1  0.98317599  0.25945784  0.32452562  1  0.633953  0  0.287564  0.353526  0  1.003104  0
H  H114  1  0.48317536  0.75945776  0.17547465  1  0.633958  0  0.287566  0.353525  0  1.003107  0
H  H115  1  0.01682464  0.74054214  0.67547425  1  0.633954  0  0.28756  0.35352  0  1.003116  0
H  H116  1  0.51184709  0.17063572  0.76780883  1  0.658224  0  0.300196  0.402459  0  0.930253  0
H  H117  1  0.98815265  0.32936445  0.26780914  1  0.658221  0  0.300201  0.402443  0  0.93027  0
H  H118  1  0.48815372  0.82936495  0.23219059  1  0.658216  0  0.300193  0.402428  0  0.930287  0
H  H119  1  0.01184727  0.67063552  0.73219027  1  0.658249  0  0.300209  0.402426  0  0.930288  0
H  H120  1  0.05451028  0.11847421  0.32333019  1  0.067223  0  0.112367  0.079573  0  1.04396  0
H  H121  1  0.44548975  0.38152472  0.82333091  1  0.067242  0  0.112359  0.079541  0  1.044027  0
H  H122  1  0.94548910  0.88152644  0.67666968  1  0.067237  0  0.112361  0.079541  0  1.043996  0
H  H123  1  0.55450964  0.61847319  0.17666850  1  0.06725  0  0.112378  0.079536  0  1.044005  0
H  H124  1  0.16941345  0.05520348  0.38596004  1  0.081542  0  0.109529  0.119282  0  1.005346  0
H  H125  1  0.33058756  0.44479600  0.88596012  1  0.081574  0  0.109539  0.119276  0  1.005374  0
H  H126  1  0.83058664  0.94479718  0.61403984  1  0.081542  0  0.109521  0.119255  0  1.005364  0
H  H127  1  0.66941290  0.55520329  0.11403930  1  0.081554  0  0.109528  0.119236  0  1.005376  0
H  H128  1  0.18604826  0.28103548  0.51125417  1  0.059309  0  0.105795  0.109847  0  1.010262  0
H  H129  1  0.31395341  0.21896416  0.01125447  1  0.059184  0  0.105777  0.109839  0  1.010295  0
H  H130  1  0.81395309  0.71896451  0.48874662  1  0.058963  0  0.105789  0.109845  0  1.010298  0
H  H131  1  0.68604882  0.78103652  0.98874586  1  0.059281  0  0.10579  0.10982  0  1.0103  0
H  H132  1  0.07221888  0.33555187  0.44233689  1  0.089303  0  0.107127  0.069952  0  1.02592  0
H  H133  1  0.42778133  0.16444680  0.94233740  1  0.08926  0  0.1071  0.069904  0  1.025918  0
H  H134  1  0.92778247  0.66444812  0.55766344  1  0.089296  0  0.10712  0.069943  0  1.025898  0
H  H135  1  0.57221895  0.83555181  0.05766247  1  0.089294  0  0.107126  0.069937  0  1.025923  0
H  H136  1  0.32690975  0.09481412  0.63794724  1  0.064251  0  0.113894  0.080812  0  1.021083  0
H  H137  1  0.17309016  0.40518590  0.13794628  1  0.064284  0  0.113895  0.080841  0  1.02109  0
H  H138  1  0.67309214  0.90518518  0.36205263  1  0.064241  0  0.113923  0.080858  0  1.021073  0
H  H139  1  0.82691189  0.59481684  0.86205360  1  0.064263  0  0.113929  0.080873  0  1.021098  0
H  H140  1  0.20680656  0.16004645  0.58107109  1  0.079879  0  0.106538  0.114857  0  0.998237  0
H  H141  1  0.29319272  0.33995437  0.08106986  1  0.0799  0  0.106548  0.114908  0  0.998206  0
H  H142  1  0.79319407  0.83995352  0.41893015  1  0.079921  0  0.106554  0.114915  0  0.998202  0
H  H143  1  0.70680755  0.66004697  0.91893002  1  0.079867  0  0.106532  0.114856  0  0.998203  0
H  H144  1  0.33119085  0.08226629  0.41412347  1  0.149146  0  0.113841  0.132019  0  1.028477  0
H  H145  1  0.16880860  0.41773243  0.91412207  1  0.149107  0  0.113846  0.132101  0  1.02846  0
H  H146  1  0.66880729  0.91773229  0.58587686  1  0.149139  0  0.113856  0.132086  0  1.028419  0
H  H147  1  0.83119292  0.58226825  0.08587734  1  0.149132  0  0.11387  0.132118  0  1.028449  0
H  H148  1  0.44518217  0.02272560  0.47744485  1  0.090138  0  0.117177  0.086718  0  1.014846  0
H  H149  1  0.05481755  0.47727367  0.97744374  1  0.090125  0  0.117192  0.086715  0  1.014831  0
H  H150  1  0.55481757  0.97727368  0.52255457  1  0.090104  0  0.117182  0.086711  0  1.014841  0
H  H151  1  0.94518362  0.52272563  0.02255522  1  0.09007  0  0.117192  0.08672  0  1.014843  0
C  C152  1  0.69367175  0.75055134  0.71007584  1  -0.00456  0  -0.009952  -0.064584  0  3.908788  0
C  C153  1  0.80632776  0.74944823  0.21007656  1  -0.004518  0  -0.009888  -0.064527  0  3.908722  0
C  C154  1  0.30632763  0.24944931  0.28992357  1  -0.004522  0  -0.009951  -0.0646  0  3.908673  0
C  C155  1  0.19367162  0.25055242  0.78992286  1  -0.004528  0  -0.009879  -0.064524  0  3.908835  0
C  C156  1  0.76255802  0.75458060  0.75614157  1  -0.021631  0  -0.085609  -0.091885  0  3.984621  0
C  C157  1  0.73744086  0.74541885  0.25614222  1  -0.021715  0  -0.085657  -0.091963  0  3.98459  0
C  C158  1  0.23744065  0.24542004  0.24385831  1  -0.021666  0  -0.085613  -0.091948  0  3.984675  0
C  C159  1  0.26255835  0.25458111  0.74385765  1  -0.02173  0  -0.08564  -0.091902  0  3.984654  0
C  C160  1  0.81818287  0.68937642  0.76025703  1  -0.079421  0  -0.085727  -0.104932  0  3.997654  0
C  C161  1  0.68181618  0.81062372  0.26025756  1  -0.079328  0  -0.085713  -0.104885  0  3.997663  0
C  C162  1  0.18181580  0.31062422  0.23974284  1  -0.079386  0  -0.085711  -0.104881  0  3.997727  0
C  C163  1  0.31818391  0.18937694  0.73974231  1  -0.079325  0  -0.085719  -0.104926  0  3.997669  0
C  C164  1  0.80189040  0.61541428  0.72031508  1  -0.020303  0  -0.005346  -0.068312  0  3.907649  0
C  C165  1  0.69810931  0.88458595  0.22031462  1  -0.020281  0  -0.005369  -0.068385  0  3.907602  0
C  C166  1  0.19810898  0.38458636  0.27968525  1  -0.020292  0  -0.0054  -0.06842  0  3.907614  0
C  C167  1  0.30189079  0.11541471  0.77968617  1  -0.020276  0  -0.005374  -0.0684  0  3.90768  0
C  C168  1  0.73609105  0.61117249  0.66976166  1  0.020246  0  0.000533  0.053622  0  3.933233  0
C  C169  1  0.76390751  0.88882647  0.16976125  1  0.02025  0  0.000505  0.053611  0  3.933175  0
C  C170  1  0.26390691  0.38882814  0.33023959  1  0.020255  0  0.000572  0.053669  0  3.93314  0
C  C171  1  0.23609098  0.11117349  0.83023862  1  0.020251  0  0.000545  0.053676  0  3.933201  0
C  C172  1  0.68184057  0.68071846  0.66387435  1  -0.034415  0  0.001737  0.060011  0  3.918229  0
C  C173  1  0.81815815  0.81928121  0.16387453  1  -0.034448  0  0.001732  0.060008  0  3.918243  0
C  C174  1  0.31815898  0.31928288  0.33612553  1  -0.034411  0  0.001795  0.060138  0  3.918095  0
C  C175  1  0.18184051  0.18071944  0.83612535  1  -0.034436  0  0.00175  0.059998  0  3.91824  0
C  C176  1  0.61720600  0.67511037  0.61319423  1  -0.043951  0  -0.094357  -0.135563  0  3.966514  0
C  C177  1  0.88279265  0.82488940  0.11319492  1  -0.043941  0  -0.094366  -0.135614  0  3.966507  0
C  C178  1  0.38279249  0.32488958  0.38680518  1  -0.043866  0  -0.094342  -0.135621  0  3.966525  0
C  C179  1  0.11720548  0.17511192  0.88680449  1  -0.043974  0  -0.094343  -0.135529  0  3.966448  0
C  C180  1  0.60792839  0.60662183  0.56995694  1  -0.073906  0  -0.094637  -0.084626  0  4.047063  0
C  C181  1  0.89207090  0.89337804  0.06995710  1  -0.07386  0  -0.094643  -0.084634  0  4.046923  0
C  C182  1  0.39207099  0.39337881  0.43004247  1  -0.073852  0  -0.094639  -0.084585  0  4.047008  0
C  C183  1  0.10792562  0.10662258  0.93004278  1  -0.073889  0  -0.094624  -0.084615  0  4.046889  0
C  C184  1  0.66280277  0.54025971  0.57501779  1  -0.056892  0  -0.091526  -0.076106  0  4.025268  0
C  C185  1  0.83719670  0.95974084  0.07501782  1  -0.056917  0  -0.091506  -0.076056  0  4.025201  0
C  C186  1  0.33719715  0.45974026  0.42498208  1  -0.056907  0  -0.091526  -0.076106  0  4.025286  0
C  C187  1  0.16280053  0.04025978  0.92498206  1  -0.056896  0  -0.091537  -0.076184  0  4.025208  0
C  C188  1  0.72522014  0.54229159  0.62395350  1  -0.048522  0  -0.087935  -0.126814  0  3.962932  0
C  C189  1  0.77477887  0.95770954  0.12395347  1  -0.048546  0  -0.087982  -0.126891  0  3.962955  0
C  C190  1  0.27477941  0.45770975  0.37604729  1  -0.048568  0  -0.087983  -0.126914  0  3.963033  0
C  C191  1  0.22521926  0.04229178  0.87604686  1  -0.048504  0  -0.087946  -0.126815  0  3.962913  0
C  C192  1  0.63421659  0.82042550  0.71408141  1  1.536351  0  0.189753  0.570489  0  4.212956  0
C  C193  1  0.86578364  0.67957680  0.21408226  1  1.536312  0  0.1898  0.570614  0  4.212706  0
C  C194  1  0.36578386  0.17957653  0.28591847  1  1.536428  0  0.189789  0.570563  0  4.212782  0
C  C195  1  0.13421557  0.32042316  0.78591716  1  1.536274  0  0.189775  0.570559  0  4.212706  0
C  C196  1  0.85038100  0.53977005  0.73515035  1  1.570897  0  0.234111  0.643402  0  4.141383  0
C  C197  1  0.64961623  0.96022875  0.23515113  1  1.5709  0  0.234145  0.643453  0  4.141066  0
C  C198  1  0.14961766  0.46023059  0.26484952  1  1.570915  0  0.234168  0.643511  0  4.141244  0
C  C199  1  0.35038315  0.03977190  0.76484920  1  1.570898  0  0.234106  0.643494  0  4.140978  0
C  C200  1  0.31395560  0.78165120  0.43676369  1  -0.058333  0  -0.006865  -0.054276  0  3.93797  0
C  C201  1  0.18604322  0.71834742  0.93676301  1  -0.058342  0  -0.006924  -0.054458  0  3.937951  0
C  C202  1  0.68604325  0.21834739  0.56323664  1  -0.05827  0  -0.006904  -0.054421  0  3.937974  0
C  C203  1  0.81395653  0.28165186  0.06323778  1  -0.058107  0  -0.006924  -0.05439  0  3.937919  0
C  C204  1  0.38928017  0.77258209  0.47502397  1  0.004946  0  -0.086676  -0.10593  0  4.003576  0
C  C205  1  0.11071727  0.72741643  0.97502413  1  0.00501  0  -0.086689  -0.10594  0  4.003446  0
C  C206  1  0.61071903  0.22741788  0.52497590  1  0.00507  0  -0.086741  -0.105997  0  4.003505  0
C  C207  1  0.88928247  0.27258285  0.02497666  1  0.004805  0  -0.086672  -0.105984  0  4.003456  0
C  C208  1  0.38878266  0.79728909  0.53702940  1  -0.074765  0  -0.083331  -0.097548  0  4.000182  0
C  C209  1  0.11121571  0.70270836  0.03702909  1  -0.074792  0  -0.083332  -0.097552  0  4.000033  0
C  C210  1  0.61121691  0.20270951  0.46297047  1  -0.074764  0  -0.083328  -0.097517  0  4.000015  0
C  C211  1  0.88878314  0.29729023  0.96297170  1  -0.074676  0  -0.083336  -0.097559  0  4.000107  0
C  C212  1  0.31224846  0.82896221  0.56117703  1  -0.049299  0  -0.011872  -0.083542  0  3.931979  0
C  C213  1  0.18774905  0.67103723  0.06117774  1  -0.04926  0  -0.011807  -0.083331  0  3.931764  0
C  C214  1  0.68775003  0.17103774  0.43882193  1  -0.049307  0  -0.011834  -0.083424  0  3.931846  0
C  C215  1  0.81225158  0.32896275  0.93882305  1  -0.049275  0  -0.011829  -0.083387  0  3.931817  0
C  C216  1  0.23435136  0.84171355  0.52268440  1  0.009558  0  -0.002437  0.054395  0  3.955791  0
C  C217  1  0.26564788  0.65828462  0.02268382  1  0.009482  0  -0.002444  0.054296  0  3.955863  0
C  C218  1  0.76564892  0.15828505  0.47731593  1  0.0095  0  -0.002462  0.0543  0  3.95581  0
C  C219  1  0.73435133  0.34171534  0.97731605  1  0.009466  0  -0.002462  0.054324  0  3.955944  0
C  C220  1  0.23658223  0.81901326  0.45891444  1  -0.045389  0  -0.00396  0.047127  0  3.968522  0
C  C221  1  0.26341573  0.68098461  0.95891479  1  -0.045458  0  -0.003949  0.047222  0  3.968584  0
C  C222  1  0.76341698  0.18098396  0.54108497  1  -0.04549  0  -0.003968  0.047194  0  3.968585  0
C  C223  1  0.73658348  0.31901535  0.04108508  1  -0.045482  0  -0.003985  0.047074  0  3.968675  0
C  C224  1  0.16371765  0.83768971  0.41935386  1  -0.014143  0  -0.09329  -0.132122  0  3.984299  0
C  C225  1  0.33628042  0.66230894  0.91935475  1  -0.014096  0  -0.093241  -0.132065  0  3.984259  0
C  C226  1  0.83628049  0.16230887  0.58064510  1  -0.013984  0  -0.09325  -0.132077  0  3.984284  0
C  C227  1  0.66371932  0.33769034  0.08064512  1  -0.01397  0  -0.093231  -0.132032  0  3.984291  0
C  C228  1  0.09111348  0.87602391  0.44147763  1  -0.06874  0  -0.099504  -0.097241  0  4.058789  0
C  C229  1  0.40888480  0.62397537  0.94147772  1  -0.068794  0  -0.099552  -0.09735  0  4.058915  0
C  C230  1  0.90888572  0.12397605  0.55852179  1  -0.068327  0  -0.099547  -0.097362  0  4.058905  0
C  C231  1  0.59111423  0.37602390  0.05852170  1  -0.068317  0  -0.099531  -0.097315  0  4.058871  0
C  C232  1  0.08846466  0.89759118  0.50421302  1  -0.068121  0  -0.097993  -0.084328  0  4.040358  0
C  C233  1  0.41153436  0.60240909  0.00421309  1  -0.068089  0  -0.098009  -0.084342  0  4.040377  0
C  C234  1  0.91153526  0.10240879  0.49578685  1  -0.06812  0  -0.098025  -0.084378  0  4.040391  0
C  C235  1  0.58846573  0.39759157  0.99578633  1  -0.068118  0  -0.098049  -0.084486  0  4.040446  0
C  C236  1  0.15817005  0.88089616  0.54393414  1  -0.029611  0  -0.089588  -0.128339  0  3.951552  0
C  C237  1  0.34182833  0.61910128  0.04393459  1  -0.029592  0  -0.0896  -0.128333  0  3.951504  0
C  C238  1  0.84182880  0.11910243  0.45606527  1  -0.029545  0  -0.089545  -0.128252  0  3.951474  0
C  C239  1  0.65817213  0.38089801  0.95606529  1  -0.029595  0  -0.089556  -0.128232  0  3.951572  0
C  C240  1  0.31382677  0.74878082  0.37226057  1  1.564363  0  0.201122  0.583623  0  4.212289  0
C  C241  1  0.18617212  0.75121862  0.87226077  1  1.564341  0  0.201086  0.583617  0  4.212203  0
C  C242  1  0.68617351  0.25121778  0.62773976  1  1.564291  0  0.201148  0.583666  0  4.212356  0
C  C243  1  0.81382691  0.24878065  0.12773956  1  1.564274  0  0.201112  0.583645  0  4.212085  0
C  C244  1  0.31640687  0.85092603  0.62807631  1  1.609019  0  0.234451  0.660234  0  4.15498  0
C  C245  1  0.18360001  0.64907611  0.12807795  1  1.609074  0  0.23448  0.660232  0  4.155069  0
C  C246  1  0.68359358  0.14907326  0.37192219  1  1.609083  0  0.234484  0.660273  0  4.154966  0
C  C247  1  0.81639759  0.35092041  0.87192238  1  1.609013  0  0.234403  0.660168  0  4.155068  0
C  C248  1  0.50780100  0.50564883  0.73517949  1  -0.019154  0  -0.007492  -0.06422  0  3.914834  0
C  C249  1  0.99219980  0.99435275  0.23517961  1  -0.019071  0  -0.007481  -0.064183  0  3.914698  0
C  C250  1  0.49219856  0.49435251  0.26482038  1  -0.019126  0  -0.00748  -0.064151  0  3.914737  0
C  C251  1  0.00780101  0.00564791  0.76482026  1  -0.01914  0  -0.007484  -0.064241  0  3.914833  0
C  C252  1  0.52999388  0.57306056  0.77992291  1  -0.050822  0  -0.079709  -0.090607  0  3.992392  0
C  C253  1  0.97000806  0.92693956  0.27992172  1  -0.050782  0  -0.079757  -0.090645  0  3.9924  0
C  C254  1  0.47000746  0.42693942  0.22007788  1  -0.050841  0  -0.079715  -0.090699  0  3.992421  0
C  C255  1  0.02999204  0.07306110  0.72007770  1  -0.050802  0  -0.0797  -0.090593  0  3.992329  0
C  C256  1  0.48417494  0.64557723  0.78103013  1  -0.020008  0  -0.083474  -0.097818  0  4.000363  0
C  C257  1  0.01582701  0.85442382  0.28102863  1  -0.019921  0  -0.083417  -0.097717  0  4.000243  0
C  C258  1  0.51582658  0.35442344  0.21897249  1  -0.020007  0  -0.083418  -0.097714  0  4.000284  0
C  C259  1  0.98417148  0.14557613  0.71897170  1  -0.019791  0  -0.083472  -0.097781  0  4.000476  0
C  C260  1  0.41216286  0.64937732  0.73860231  1  -0.022914  0  -0.006588  -0.07354  0  3.922423  0
C  C261  1  0.08783796  0.85062244  0.23860225  1  -0.02288  0  -0.006602  -0.073556  0  3.922461  0
C  C262  1  0.58783795  0.35062334  0.26139802  1  -0.022875  0  -0.0066  -0.073551  0  3.92243  0
C  C263  1  0.91216499  0.14937824  0.76139579  1  -0.023061  0  -0.006573  -0.073532  0  3.922509  0
C  C264  1  0.38741083  0.58235044  0.69097061  1  -0.062878  0  -0.001419  0.050223  0  3.949246  0
C  C265  1  0.11259098  0.91765081  0.19097049  1  -0.062856  0  -0.001451  0.050167  0  3.949215  0
C  C266  1  0.61258944  0.41765090  0.30902972  1  -0.062889  0  -0.001485  0.050153  0  3.949213  0
C  C267  1  0.88740822  0.08234915  0.80903075  1  -0.062795  0  -0.001497  0.050132  0  3.949217  0
C  C268  1  0.43637804  0.50881552  0.68897930  1  0.015837  0  0.005165  0.065861  0  3.924594  0
C  C269  1  0.06362359  0.99118505  0.18897813  1  0.01569  0  0.00512  0.065832  0  3.924361  0
C  C270  1  0.56362295  0.49118583  0.31102103  1  0.015678  0  0.005138  0.065792  0  3.924379  0
C  C271  1  0.93637865  0.00881563  0.81102083  1  0.015805  0  0.00519  0.065905  0  3.924448  0
C  C272  1  0.41142698  0.44292307  0.64114270  1  -0.081426  0  -0.088782  -0.126036  0  3.957126  0
C  C273  1  0.08857471  0.05707833  0.14114209  1  -0.081279  0  -0.08879  -0.126003  0  3.957058  0
C  C274  1  0.58857240  0.55707758  0.35885763  1  -0.081266  0  -0.088724  -0.125941  0  3.95698  0
C  C275  1  0.91142735  0.94292166  0.85885733  1  -0.081317  0  -0.088801  -0.126039  0  3.957088  0
C  C276  1  0.34372145  0.45013953  0.59696087  1  -0.018079  0  -0.09301  -0.082051  0  4.03315  0
C  C277  1  0.15628053  0.04986060  0.09695987  1  -0.018356  0  -0.09297  -0.082046  0  4.033122  0
C  C278  1  0.65627846  0.54986044  0.40303946  1  -0.018095  0  -0.093011  -0.082107  0  4.033105  0
C  C279  1  0.84372207  0.95013871  0.90303955  1  -0.018053  0  -0.093002  -0.082094  0  4.033132  0
C  C280  1  0.29815183  0.52376475  0.59784307  1  -0.066559  0  -0.093318  -0.079962  0  4.033761  0
C  C281  1  0.20184912  0.97623670  0.09784250  1  -0.066625  0  -0.093298  -0.079882  0  4.033742  0
C  C282  1  0.70184738  0.47623521  0.40215726  1  -0.066567  0  -0.093307  -0.079868  0  4.033646  0
C  C283  1  0.79815205  0.02376260  0.90215829  1  -0.066453  0  -0.093303  -0.079892  0  4.033631  0
C  C284  1  0.31930567  0.58833063  0.64392978  1  -0.081601  0  -0.093305  -0.139931  0  3.978154  0
C  C285  1  0.18069589  0.91167004  0.14392927  1  -0.081586  0  -0.093317  -0.139956  0  3.978144  0
C  C286  1  0.68069442  0.41167003  0.35607010  1  -0.081597  0  -0.093319  -0.139965  0  3.978275  0
C  C287  1  0.81930457  0.08832925  0.85607106  1  -0.081841  0  -0.093297  -0.139929  0  3.978396  0
C  C288  1  0.56598087  0.43511518  0.73806373  1  1.536865  0  0.182055  0.555819  0  4.239315  0
C  C289  1  0.93402043  0.06488576  0.23806295  1  1.536851  0  0.181914  0.555513  0  4.239656  0
C  C290  1  0.43401940  0.56488617  0.26193660  1  1.536884  0  0.181991  0.555678  0  4.239471  0
C  C291  1  0.06597949  0.93511421  0.76193601  1  1.536878  0  0.182051  0.555795  0  4.239372  0
C  C292  1  0.36131267  0.72447064  0.74716144  1  1.592657  0  0.237741  0.645716  0  4.141535  0
C  C293  1  0.13869315  0.77553464  0.24716014  1  1.592539  0  0.237824  0.645761  0  4.141226  0
C  C294  1  0.63868903  0.27553071  0.25283844  1  1.592755  0  0.237791  0.64577  0  4.141368  0
C  C295  1  0.86130517  0.22446463  0.75283973  1  1.59256  0  0.237821  0.645698  0  4.141268  0
C  C296  1  0.55674291  0.04226052  0.86449433  1  0.429657  0  0.046855  0.107821  0  3.965993  0
C  C297  1  0.94325627  0.45773942  0.36449445  1  0.429612  0  0.046842  0.107805  0  3.965963  0
C  C298  1  0.44325701  0.95773945  0.13550600  1  0.429654  0  0.046907  0.107955  0  3.965984  0
C  C299  1  0.05674222  0.54226053  0.63550679  1  0.429597  0  0.046856  0.10782  0  3.966011  0
C  C300  1  0.55414866  0.06048291  0.92665481  1  -0.026791  0  -0.083649  -0.17577  0  3.936944  0
C  C301  1  0.94585222  0.43951760  0.42665450  1  -0.026602  0  -0.083651  -0.175757  0  3.936928  0
C  C302  1  0.44585215  0.93951775  0.07334552  1  -0.026763  0  -0.083683  -0.17579  0  3.93697  0
C  C303  1  0.05414787  0.56048306  0.57334537  1  -0.026571  0  -0.08365  -0.175729  0  3.936874  0
C  C304  1  0.50406122  0.99142679  0.96687246  1  0.001753  0  0.007754  0.09231  0  3.992641  0
C  C305  1  0.99593834  0.50857358  0.46687226  1  0.001714  0  0.007765  0.092322  0  3.992551  0
C  C306  1  0.49593834  0.00857455  0.03312833  1  0.03957  0  0.007758  0.09223  0  3.992716  0
C  C307  1  0.00406158  0.49142639  0.53312807  1  0.039564  0  0.00775  0.092229  0  3.992688  0
C  C308  1  0.46180667  0.90545108  0.94060079  1  -0.048752  0  -0.081895  -0.169193  0  3.917459  0
C  C309  1  0.03819268  0.59454959  0.44060055  1  -0.048772  0  -0.081916  -0.16925  0  3.917502  0
C  C310  1  0.53819165  0.09454818  0.05939999  1  -0.048741  0  -0.081881  -0.169153  0  3.917567  0
C  C311  1  0.96180919  0.40545246  0.55939978  1  -0.048759  0  -0.08192  -0.169189  0  3.917604  0
C  C312  1  0.46859033  0.89300677  0.87788964  1  0.51635  0  0.056755  0.138966  0  3.930975  0
C  C313  1  0.03140821  0.60699403  0.37788937  1  0.516351  0  0.056731  0.138879  0  3.931053  0
C  C314  1  0.53140906  0.10699388  0.12211115  1  0.516355  0  0.056754  0.138924  0  3.931033  0
C  C315  1  0.96859189  0.39300663  0.62211096  1  0.516363  0  0.056755  0.138919  0  3.931155  0
C  C316  1  0.08577225  0.15302260  0.36505729  1  0.567795  0  0.048207  0.101466  0  3.961146  0
C  C317  1  0.41422944  0.34697694  0.86505756  1  0.567242  0  0.048187  0.101467  0  3.961098  0
C  C318  1  0.91422856  0.84697807  0.63494304  1  0.567664  0  0.048207  0.101493  0  3.961098  0
C  C319  1  0.58577155  0.65302167  0.13494231  1  0.567685  0  0.048112  0.10135  0  3.961148  0
C  C320  1  0.14991213  0.11767101  0.40036847  1  -0.080236  0  -0.081346  -0.176868  0  3.941215  0
C  C321  1  0.35008729  0.38232774  0.90037002  1  -0.080178  0  -0.081318  -0.176795  0  3.941246  0
C  C322  1  0.85008761  0.88232827  0.59963140  1  -0.080105  0  -0.081356  -0.17687  0  3.941266  0
C  C323  1  0.64991316  0.61767156  0.09963077  1  -0.080223  0  -0.081286  -0.176706  0  3.941158  0
C  C324  1  0.18810430  0.16247766  0.45461465  1  -0.002444  0  0.013271  0.103115  0  3.982459  0
C  C325  1  0.31189593  0.33752097  0.95461484  1  -0.00232  0  0.013294  0.103178  0  3.982543  0
C  C326  1  0.81189545  0.83752162  0.54538523  1  -0.002441  0  0.013302  0.103191  0  3.982494  0
C  C327  1  0.68810613  0.66247902  0.04538503  1  -0.002663  0  0.013283  0.103198  0  3.982473  0
C  C328  1  0.15807269  0.24180356  0.47030964  1  -0.029922  0  -0.082462  -0.177423  0  3.956551  0
C  C329  1  0.34192828  0.25819505  0.97031042  1  -0.029886  0  -0.082473  -0.177511  0  3.956613  0
C  C330  1  0.84192848  0.75819574  0.52969069  1  -0.029579  0  -0.08249  -0.177522  0  3.95665  0
C  C331  1  0.65807378  0.74180494  0.02968991  1  -0.029616  0  -0.082488  -0.177493  0  3.956551  0
C  C332  1  0.09442870  0.27278471  0.43166470  1  0.496152  0  0.045488  0.091875  0  3.992376  0
C  C333  1  0.40557309  0.22721467  0.93166558  1  0.496173  0  0.045511  0.091968  0  3.992372  0
C  C334  1  0.90557282  0.72721596  0.56833517  1  0.495956  0  0.045503  0.091925  0  3.992306  0
C  C335  1  0.59442808  0.77278462  0.06833475  1  0.496148  0  0.045471  0.091876  0  3.992281  0
C  C336  1  0.32655660  0.09487262  0.58810048  1  0.556312  0  0.044328  0.092094  0  3.976586  0
C  C337  1  0.17344394  0.40512751  0.08809952  1  0.556299  0  0.044339  0.092101  0  3.976622  0
C  C338  1  0.67344528  0.90512668  0.41189939  1  0.556313  0  0.044287  0.091995  0  3.976741  0
C  C339  1  0.82655776  0.59487385  0.91189944  1  0.556374  0  0.044333  0.092071  0  3.976635  0
C  C340  1  0.25918528  0.13110725  0.55606131  1  -0.062551  0  -0.086901  -0.185252  0  3.958947  0
C  C341  1  0.24081432  0.36889226  0.05606091  1  -0.062613  0  -0.086949  -0.18533  0  3.958995  0
C  C342  1  0.74081589  0.86889205  0.44393902  1  -0.062633  0  -0.08696  -0.18533  0  3.959047  0
C  C343  1  0.75918720  0.63110841  0.94394034  1  -0.062525  0  -0.086946  -0.185279  0  3.958934  0
C  C344  1  0.25808098  0.12700765  0.49193963  1  -0.05912  0  0.010187  0.0989  0  3.989116  0
C  C345  1  0.24191877  0.37299159  0.99193926  1  -0.059197  0  0.010189  0.098874  0  3.989161  0
C  C346  1  0.74191876  0.87299164  0.50806070  1  -0.059146  0  0.01021  0.098928  0  3.989072  0
C  C347  1  0.75808276  0.62700909  0.00806061  1  -0.059165  0  0.010211  0.098885  0  3.989052  0
C  C348  1  0.32597803  0.08600355  0.46367477  1  -0.025459  0  -0.075097  -0.15812  0  3.895775  0
C  C349  1  0.17402132  0.41399437  0.96367338  1  -0.025494  0  -0.075027  -0.15813  0  3.895815  0
C  C350  1  0.67402136  0.91399436  0.53632556  1  -0.025454  0  -0.075041  -0.158122  0  3.895728  0
C  C351  1  0.82598091  0.58600631  0.03632558  1  -0.025502  0  -0.075063  -0.158145  0  3.895766  0
C  C352  1  0.39163255  0.05343114  0.49956681  1  0.462014  0  0.050852  0.097954  0  3.964813  0
C  C353  1  0.10836721  0.44656807  0.99956532  1  0.462163  0  0.050802  0.097964  0  3.96486  0
C  C354  1  0.60836701  0.94656745  0.50043307  1  0.462038  0  0.050823  0.097943  0  3.964804  0
C  C355  1  0.89163342  0.55343190  0.00043410  1  0.462041  0  0.050808  0.097933  0  3.964877  0
N  N356  1  0.51382133  0.96006685  0.83936501  1  -1.231907  0  -0.370397  -0.339963  0  3.462987  0
N  N357  1  0.98617802  0.53993380  0.33936523  1  -1.231872  0  -0.370382  -0.339902  0  3.463046  0
N  N358  1  0.48617930  0.03993313  0.16063532  1  -1.231932  0  -0.370413  -0.340013  0  3.463039  0
N  N359  1  0.01382153  0.46006754  0.66063510  1  -1.231955  0  -0.370421  -0.33994  0  3.463114  0
N  N360  1  0.05793145  0.22949996  0.37975796  1  -1.233404  0  -0.30254  -0.238323  0  3.384772  0
N  N361  1  0.44206955  0.27049953  0.87975836  1  -1.23294  0  -0.302581  -0.238412  0  3.3848  0
N  N362  1  0.94206936  0.77050070  0.62024237  1  -1.233218  0  -0.302541  -0.23833  0  3.384744  0
N  N363  1  0.55793162  0.72949977  0.12024151  1  -1.233379  0  -0.302521  -0.238281  0  3.384735  0
N  N364  1  0.39320437  0.05766815  0.56094062  1  -1.189571  0  -0.304387  -0.246751  0  3.391922  0
N  N365  1  0.10679524  0.44233136  0.06093909  1  -1.189555  0  -0.304383  -0.246807  0  3.391975  0
N  N366  1  0.60679626  0.94233183  0.43905879  1  -1.189525  0  -0.304381  -0.246746  0  3.391899  0
N  N367  1  0.89320468  0.55766861  0.93905941  1  -1.18956  0  -0.304414  -0.246809  0  3.391972  0
O  O368  1  0.58887535  0.84239327  0.66775772  1  -1.179662  0  -0.388971  -0.628766  0  2.257699  0
O  O369  1  0.91112338  0.65760638  0.16775864  1  -1.179579  0  -0.389025  -0.628842  0  2.257596  0
O  O370  1  0.41112492  0.15760807  0.33224215  1  -1.179645  0  -0.389003  -0.628822  0  2.257629  0
O  O371  1  0.08887600  0.34239427  0.83224123  1  -1.179561  0  -0.389003  -0.628801  0  2.257586  0
O  O372  1  0.62846542  0.85848790  0.76585275  1  -1.185204  0  -0.379713  -0.643633  0  2.236425  0
O  O373  1  0.87153347  0.64151154  0.26585365  1  -1.18524  0  -0.379696  -0.643651  0  2.236327  0
O  O374  1  0.37153468  0.14151276  0.23414667  1  -1.185286  0  -0.379719  -0.643638  0  2.23638  0
O  O375  1  0.12846574  0.35848842  0.73414576  1  -1.185245  0  -0.379727  -0.643659  0  2.236296  0
O  O376  1  0.94010221  0.56169562  0.75350549  1  -1.196242  0  -0.365264  -0.651403  0  2.299228  0
O  O377  1  0.55989844  0.93830523  0.25350576  1  -1.196292  0  -0.3653  -0.651426  0  2.299217  0
O  O378  1  0.05989806  0.43830573  0.24649393  1  -1.196269  0  -0.365317  -0.651471  0  2.299181  0
O  O379  1  0.44010023  0.06169541  0.74649503  1  -1.196276  0  -0.36528  -0.651463  0  2.299191  0
O  O380  1  0.80129527  0.45696703  0.73195978  1  -1.198118  0  -0.395648  -0.686912  0  2.418848  0
O  O381  1  0.69870565  0.04303529  0.23196019  1  -1.198115  0  -0.395636  -0.68688  0  2.418559  0
O  O382  1  0.19870500  0.54303432  0.26804009  1  -1.198133  0  -0.395657  -0.686901  0  2.418783  0
O  O383  1  0.30129230  0.95696534  0.76804014  1  -1.198093  0  -0.395629  -0.686898  0  2.418443  0
O  O384  1  0.24846901  0.67828240  0.35554011  1  -1.167204  0  -0.371121  -0.610479  0  2.259678  0
O  O385  1  0.25152860  0.82171502  0.85554028  1  -1.167144  0  -0.371076  -0.610441  0  2.259773  0
O  O386  1  0.75153127  0.32171621  0.64445885  1  -1.167176  0  -0.371106  -0.610442  0  2.259695  0
O  O387  1  0.74846971  0.17828425  0.14445960  1  -1.167187  0  -0.371069  -0.610417  0  2.259692  0
O  O388  1  0.38040277  0.79024814  0.33470102  1  -1.1825  0  -0.356276  -0.598768  0  2.236141  0
O  O389  1  0.11959463  0.70975138  0.83470075  1  -1.182537  0  -0.356282  -0.59877  0  2.235974  0
O  O390  1  0.61959769  0.20975115  0.66529931  1  -1.182453  0  -0.35628  -0.598776  0  2.236195  0
O  O391  1  0.88040439  0.29024790  0.16530004  1  -1.182459  0  -0.356279  -0.598759  0  2.23594  0
O  O392  1  0.23725426  0.82863076  0.65878218  1  -1.199559  0  -0.408946  -0.657397  0  2.327228  0
O  O393  1  0.26274286  0.67136915  0.15878066  1  -1.19971  0  -0.408992  -0.657461  0  2.327704  0
O  O394  1  0.76274530  0.17136784  0.34121815  1  -1.199578  0  -0.408931  -0.657412  0  2.327353  0
O  O395  1  0.73725973  0.32863291  0.84121967  1  -1.199648  0  -0.408887  -0.657367  0  2.32788  0
O  O396  1  0.40041568  0.88879374  0.64975147  1  -1.205288  0  -0.418657  -0.67628  0  2.412568  0
O  O397  1  0.09958019  0.61120412  0.14975400  1  -1.205176  0  -0.418651  -0.676245  0  2.412259  0
O  O398  1  0.59958318  0.11120485  0.35024703  1  -1.205324  0  -0.418694  -0.676307  0  2.412484  0
O  O399  1  0.90042313  0.38879247  0.85024633  1  -1.205132  0  -0.418659  -0.676247  0  2.412079  0
O  O400  1  0.61128406  0.42807867  0.78801388  1  -1.176226  0  -0.400595  -0.631009  0  2.236947  0
O  O401  1  0.88871661  0.07192215  0.28801351  1  -1.176178  0  -0.400555  -0.630887  0  2.237052  0
O  O402  1  0.38871532  0.57192198  0.21198691  1  -1.176205  0  -0.400588  -0.630975  0  2.236977  0
O  O403  1  0.11128313  0.92807713  0.71198545  1  -1.176241  0  -0.400603  -0.630991  0  2.237044  0
O  O404  1  0.57325458  0.38413232  0.69234567  1  -1.172381  0  -0.393976  -0.628794  0  2.250596  0
O  O405  1  0.92674665  0.11586871  0.19234528  1  -1.17242  0  -0.393868  -0.628587  0  2.250692  0
O  O406  1  0.42674623  0.61586834  0.30765466  1  -1.17242  0  -0.393906  -0.628648  0  2.25064  0
O  O407  1  0.07325273  0.88413194  0.80765414  1  -1.172376  0  -0.39394  -0.628747  0  2.250592  0
O  O408  1  0.41249001  0.80497830  0.75736713  1  -1.203669  0  -0.392527  -0.686557  0  2.458514  0
O  O409  1  0.08750567  0.69501794  0.25736680  1  -1.20352  0  -0.392626  -0.686696  0  2.458143  0
O  O410  1  0.58750937  0.19502234  0.24263229  1  -1.20377  0  -0.392542  -0.68656  0  2.458401  0
O  O411  1  0.91249425  0.30498203  0.74263170  1  -1.203506  0  -0.392596  -0.686622  0  2.457998  0
O  O412  1  0.26697855  0.70396505  0.74746647  1  -1.208609  0  -0.366793  -0.643687  0  2.350379  0
O  O413  1  0.23301943  0.79603466  0.24746661  1  -1.208689  0  -0.3668  -0.643687  0  2.350551  0
O  O414  1  0.73302137  0.29603492  0.25253294  1  -1.208641  0  -0.366814  -0.643718  0  2.350382  0
O  O415  1  0.76698067  0.20396599  0.75253235  1  -1.208721  0  -0.366805  -0.643655  0  2.350681  0
O  O416  1  0.66478526  0.03360522  0.74012766  1  -1.265521  0  -0.65729  -0.858342  0  2.113829  0
O  O417  1  0.83521480  0.46639364  0.24012722  1  -1.265533  0  -0.657327  -0.858332  0  2.113797  0
O  O418  1  0.33521466  0.96639475  0.25987312  1  -1.265535  0  -0.657332  -0.858357  0  2.113798  0
O  O419  1  0.16478512  0.53360633  0.75987311  1  -1.265526  0  -0.657337  -0.858359  0  2.113816  0
O  O420  1  0.54460250  0.03429628  0.63923807  1  -1.28298  0  -0.668449  -0.850222  0  2.156387  0
O  O421  1  0.95539775  0.46570418  0.13923773  1  -1.283054  0  -0.668508  -0.850367  0  2.156334  0
O  O422  1  0.45539831  0.96570438  0.36076180  1  -1.283023  0  -0.668524  -0.850365  0  2.156369  0
O  O423  1  0.04460074  0.53429578  0.86076122  1  -1.283  0  -0.668509  -0.850332  0  2.15634  0
O  O424  1  0.55464318  0.22553452  0.78797190  1  -1.298091  0  -0.667862  -0.868388  0  2.176351  0
O  O425  1  0.94535803  0.27446562  0.28797179  1  -1.298083  0  -0.66786  -0.868307  0  2.176359  0
O  O426  1  0.44535835  0.77446615  0.21202797  1  -1.298082  0  -0.667851  -0.86831  0  2.176405  0
O  O427  1  0.05464243  0.72553367  0.71202808  1  -1.298126  0  -0.667864  -0.868279  0  2.17644  0
