# generated using pymatgen
data_ZnH10C21Br2NO4
_symmetry_space_group_name_H-M   'P 1'
_cell_length_a   14.01226949
_cell_length_b   21.40839561
_cell_length_c   28.51803399
_cell_angle_alpha   90.00003577
_cell_angle_beta   89.99970455
_cell_angle_gamma   93.58289661
_symmetry_Int_Tables_number   1
_chemical_formula_structural   ZnH10C21Br2NO4
_chemical_formula_sum   'Zn12 H120 C252 Br24 N12 O48'
_cell_volume   8538.12472136
_cell_formula_units_Z   12
loop_
 _symmetry_equiv_pos_site_id
 _symmetry_equiv_pos_as_xyz
  1  'x, y, z'
loop_
 _atom_site_type_symbol
 _atom_site_label
 _atom_site_symmetry_multiplicity
 _atom_site_fract_x
 _atom_site_fract_y
 _atom_site_fract_z
 _atom_site_occupancy
 _atom_site_pbe_bader_charge
 _atom_site_pbe_bader_spin_density
 _atom_site_pbe_cm5_charge
 _atom_site_pbe_ddec_charge
 _atom_site_pbe_ddec_spin_density
 _atom_site_pbe_ddec_sum_bond_order
 _atom_site_pbe_magmom
Zn  Zn0  1  0.89438808  0.74593475  0.30802659  1  1.296497  0  0.674727  0.829074  0  2.381967  0
Zn  Zn1  1  0.10070164  0.75417458  0.30895087  1  1.302  0  0.674018  0.826478  0  2.395434  0
Zn  Zn2  1  0.10561206  0.25406523  0.80802617  1  1.296501  0  0.674712  0.829055  0  2.382034  0
Zn  Zn3  1  0.89929649  0.24582681  0.80895265  1  1.301912  0  0.674022  0.826489  0  2.395443  0
Zn  Zn4  1  0.20731741  0.11447326  0.48492905  1  1.284988  0  0.669814  0.824742  0  2.380483  0
Zn  Zn5  1  0.41402640  0.12190947  0.48645765  1  1.298444  0  0.675283  0.828631  0  2.398483  0
Zn  Zn6  1  0.20233572  0.61025321  0.98717909  1  1.290941  0  0.67012  0.825779  0  2.37155  0
Zn  Zn7  1  0.40814191  0.62345657  0.98518746  1  1.286572  0  0.675268  0.827994  0  2.411452  0
Zn  Zn8  1  0.79268205  0.88552398  0.98492895  1  1.285176  0  0.669819  0.82472  0  2.380524  0
Zn  Zn9  1  0.58597393  0.87808965  0.98645912  1  1.298486  0  0.67529  0.82874  0  2.398379  0
Zn  Zn10  1  0.79766595  0.38974497  0.48717818  1  1.290829  0  0.670123  0.825862  0  2.371521  0
Zn  Zn11  1  0.59186022  0.37654630  0.48518846  1  1.286492  0  0.67525  0.828019  0  2.411464  0
H  H12  1  0.14574861  0.64773050  0.42460532  1  0.101595  0  0.107911  0.128884  0  0.99811  0
H  H13  1  0.84072746  0.61237517  0.42767197  1  0.111205  0  0.105879  0.111445  0  1.009638  0
H  H14  1  0.85445373  0.54942216  0.50111704  1  0.116591  0  0.10814  0.125743  0  1.009193  0
H  H15  1  0.86131454  0.43207026  0.61371874  1  0.118353  0  0.106737  0.120407  0  1.013502  0
H  H16  1  0.85166492  0.36234389  0.68428987  1  0.105115  0  0.104691  0.11012  0  1.00806  0
H  H17  1  0.15293235  0.39972220  0.70792668  1  0.135853  0  0.103061  0.118692  0  1.045013  0
H  H18  1  0.15170571  0.89016970  0.42716901  1  0.103849  0  0.106975  0.111617  0  1.006728  0
H  H19  1  0.84690080  0.85348478  0.42348870  1  0.119469  0  0.108724  0.130092  0  0.994864  0
H  H20  1  0.13647018  0.95498701  0.49935846  1  0.138268  0  0.108215  0.124625  0  1.004759  0
H  H21  1  0.13083733  0.07717950  0.60713112  1  0.136332  0  0.10617  0.121923  0  1.011337  0
H  H22  1  0.85075650  0.09491660  0.71254666  1  0.129823  0  0.103726  0.120654  0  1.044945  0
H  H23  1  0.14480699  0.14452080  0.67889974  1  0.098015  0  0.104089  0.108967  0  1.016139  0
H  H24  1  0.74855187  0.79657235  0.24543762  1  0.132877  0  0.122156  0.098226  0  1.005976  0
H  H25  1  0.73919019  0.70691432  0.37386652  1  0.147522  0  0.126987  0.105975  0  0.984052  0
H  H26  1  0.57005739  0.80215746  0.24333882  1  0.106481  0  0.106437  0.116407  0  1.014095  0
H  H27  1  0.56045370  0.71050894  0.37859954  1  0.110022  0  0.114754  0.12462  0  0.982182  0
H  H28  1  0.42942776  0.71300912  0.24227965  1  0.102602  0  0.097841  0.102779  0  1.053453  0
H  H29  1  0.43300925  0.79993804  0.37928771  1  0.077615  0  0.117262  0.1277  0  0.975856  0
H  H30  1  0.25358535  0.79736505  0.37497838  1  0.156919  0  0.126391  0.104404  0  0.990258  0
H  H31  1  0.25039761  0.71154586  0.24510546  1  0.117476  0  0.12162  0.096953  0  1.007729  0
H  H32  1  0.85425170  0.35226906  0.92460622  1  0.101274  0  0.107868  0.12886  0  0.998138  0
H  H33  1  0.15927367  0.38762580  0.92767078  1  0.111158  0  0.105899  0.111457  0  1.009668  0
H  H34  1  0.14554686  0.45057863  0.00111606  1  0.116389  0  0.108123  0.125736  0  1.009247  0
H  H35  1  0.13868536  0.56792824  0.11371853  1  0.118369  0  0.106753  0.120392  0  1.013488  0
H  H36  1  0.14833094  0.63765745  0.18428826  1  0.104387  0  0.104644  0.110115  0  1.008124  0
H  H37  1  0.84706193  0.60028009  0.20792434  1  0.135375  0  0.103077  0.118695  0  1.045018  0
H  H38  1  0.84829412  0.10983267  0.92716911  1  0.103893  0  0.10698  0.111651  0  1.006672  0
H  H39  1  0.15309903  0.14651712  0.92348847  1  0.119331  0  0.108725  0.130094  0  0.994887  0
H  H40  1  0.86352944  0.04501352  0.99935883  1  0.138274  0  0.108196  0.124629  0  1.004719  0
H  H41  1  0.86916407  0.92281899  0.10712852  1  0.136201  0  0.106114  0.121817  0  1.011428  0
H  H42  1  0.14923960  0.90508288  0.21254588  1  0.129959  0  0.103748  0.120674  0  1.044935  0
H  H43  1  0.85519009  0.85547772  0.17889714  1  0.097962  0  0.104092  0.10892  0  1.016227  0
H  H44  1  0.25145089  0.20342574  0.74543891  1  0.132863  0  0.122197  0.098306  0  1.005905  0
H  H45  1  0.26080654  0.29308709  0.87386713  1  0.147435  0  0.126993  0.105975  0  0.983953  0
H  H46  1  0.42994620  0.19784156  0.74334142  1  0.106443  0  0.106494  0.116425  0  1.014083  0
H  H47  1  0.43954307  0.28949342  0.87860075  1  0.109976  0  0.114753  0.124576  0  0.982201  0
H  H48  1  0.57057120  0.28699365  0.74228123  1  0.102598  0  0.097827  0.102752  0  1.05347  0
H  H49  1  0.56698944  0.20006197  0.87928890  1  0.077567  0  0.11723  0.127651  0  0.975909  0
H  H50  1  0.74641347  0.20263590  0.87497912  1  0.158131  0  0.126386  0.104339  0  0.990357  0
H  H51  1  0.74960217  0.28845831  0.74510763  1  0.11743  0  0.121637  0.096932  0  1.007757  0
H  H52  1  0.55406426  0.04315583  0.53159907  1  0.138464  0  0.121684  0.101175  0  1.001963  0
H  H53  1  0.73336789  0.03906383  0.53596555  1  0.110466  0  0.091546  0.10011  0  1.074058  0
H  H54  1  0.86373393  0.05475653  0.43412948  1  0.110937  0  0.117504  0.129926  0  0.974585  0
H  H55  1  0.89046992  0.18583192  0.54927135  1  0.102216  0  0.11225  0.125241  0  0.996767  0
H  H56  1  0.06919702  0.17999143  0.54295288  1  0.141867  0  0.119304  0.09316  0  1.022124  0
H  H57  1  0.04316661  0.05556757  0.43225276  1  0.123334  0  0.12658  0.102519  0  0.985366  0
H  H58  1  0.45846490  0.99184783  0.60055543  1  0.080799  0  0.098073  0.102028  0  1.027668  0
H  H59  1  0.15256989  0.96929306  0.58704857  1  0.121628  0  0.10267  0.117608  0  1.047377  0
H  H60  1  0.45024465  0.92527474  0.67270906  1  0.086339  0  0.107645  0.114613  0  0.988965  0
H  H61  1  0.14814472  0.78076692  0.78785515  1  0.071686  0  0.108909  0.113855  0  0.983802  0
H  H62  1  0.15064903  0.71545952  0.86080686  1  0.100984  0  0.107803  0.11617  0  0.991209  0
H  H63  1  0.45257009  0.76128405  0.87452483  1  0.107899  0  0.104537  0.121684  0  1.046984  0
H  H64  1  0.46076540  0.27406940  0.58530385  1  0.112528  0  0.107171  0.12521  0  1.036795  0
H  H65  1  0.16515050  0.22229484  0.61506468  1  0.054731  0  0.102926  0.106295  0  1.019182  0
H  H66  1  0.17405735  0.29001051  0.68653911  1  0.133604  0  0.107106  0.12022  0  1.011832  0
H  H67  1  0.16727629  0.41798402  0.79441510  1  0.13716  0  0.108296  0.125727  0  1.004949  0
H  H68  1  0.15433452  0.48159289  0.86763266  1  0.065665  0  0.10674  0.110895  0  1.0043  0
H  H69  1  0.45989923  0.49121735  0.88240328  1  0.127672  0  0.101982  0.117787  0  1.02412  0
H  H70  1  0.44637862  0.79471331  0.07217500  1  0.1509  0  0.10674  0.128138  0  1.036013  0
H  H71  1  0.16834559  0.71764043  0.11432831  1  0.072968  0  0.101603  0.104674  0  1.022579  0
H  H72  1  0.17589201  0.78530904  0.18584166  1  0.113401  0  0.10644  0.11989  0  1.007161  0
H  H73  1  0.16824869  0.90885780  0.29831650  1  0.140617  0  0.106865  0.126361  0  1.016574  0
H  H74  1  0.15730671  0.97477342  0.37032465  1  0.114504  0  0.104439  0.108988  0  1.015324  0
H  H75  1  0.45934877  0.02261570  0.36357638  1  0.129604  0  0.105696  0.126778  0  1.007157  0
H  H76  1  0.46920297  0.51495517  0.10418132  1  0.119227  0  0.101204  0.12098  0  1.020652  0
H  H77  1  0.17173967  0.45569064  0.08994543  1  0.106084  0  0.102564  0.106812  0  1.031754  0
H  H78  1  0.18535152  0.38339280  0.15792659  1  0.089832  0  0.110051  0.116194  0  0.978052  0
H  H79  1  0.21144192  0.24776215  0.26985640  1  0.080409  0  0.108742  0.114555  0  0.980581  0
H  H80  1  0.20116831  0.18955345  0.34596754  1  0.09224  0  0.107598  0.117337  0  0.985882  0
H  H81  1  0.44527483  0.30171142  0.39701039  1  0.142167  0  0.105016  0.124971  0  1.033104  0
H  H82  1  0.54418277  0.52730143  0.96419914  1  0.110129  0  0.126287  0.105649  0  0.97919  0
H  H83  1  0.57455134  0.71530422  0.99881444  1  0.149977  0  0.124223  0.106378  0  1.005621  0
H  H84  1  0.75239992  0.71507305  0.99835450  1  0.133452  0  0.110955  0.124486  0  1.025378  0
H  H85  1  0.72162930  0.51804081  0.96379075  1  0.092891  0  0.098232  0.102951  0  1.054699  0
H  H86  1  0.87620878  0.67673038  0.04267415  1  0.104939  0  0.112812  0.122615  0  0.998605  0
H  H87  1  0.86794881  0.54929286  0.92479139  1  0.094215  0  0.117285  0.127866  0  0.977129  0
H  H88  1  0.04635412  0.54928890  0.93051022  1  0.132  0  0.125706  0.102659  0  0.993033  0
H  H89  1  0.05469881  0.67141449  0.04285367  1  0.118746  0  0.121143  0.095643  0  1.002862  0
H  H90  1  0.57547304  0.20470527  0.45181412  1  0.158371  0  0.123112  0.102065  0  1.017013  0
H  H91  1  0.75515499  0.20759796  0.45257447  1  0.135672  0  0.110913  0.126998  0  1.023022  0
H  H92  1  0.44593543  0.95683890  0.03160212  1  0.138436  0  0.121662  0.101275  0  1.001949  0
H  H93  1  0.26663224  0.96093605  0.03596555  1  0.110477  0  0.091562  0.100114  0  1.074042  0
H  H94  1  0.13626637  0.94524397  0.93413071  1  0.110974  0  0.117508  0.129944  0  0.974608  0
H  H95  1  0.10953079  0.81416796  0.04927203  1  0.102191  0  0.112242  0.12525  0  0.996745  0
H  H96  1  0.93080309  0.82000891  0.04295429  1  0.141903  0  0.119293  0.093118  0  1.022241  0
H  H97  1  0.95683371  0.94443293  0.93225472  1  0.12338  0  0.126604  0.102569  0  0.98533  0
H  H98  1  0.54153448  0.00815113  0.10055604  1  0.08078  0  0.098057  0.102043  0  1.027648  0
H  H99  1  0.84742846  0.03070870  0.08704701  1  0.12205  0  0.102641  0.117591  0  1.047351  0
H  H100  1  0.54975312  0.07472285  0.17271038  1  0.086294  0  0.107657  0.114663  0  0.988956  0
H  H101  1  0.85185492  0.21923306  0.28785542  1  0.071681  0  0.108899  0.113849  0  0.983825  0
H  H102  1  0.84935346  0.28454095  0.36080647  1  0.10095  0  0.107791  0.116186  0  0.991138  0
H  H103  1  0.54743266  0.23872064  0.37452553  1  0.108521  0  0.104537  0.121661  0  1.047049  0
H  H104  1  0.53923561  0.72593003  0.08530446  1  0.112552  0  0.107194  0.125242  0  1.036764  0
H  H105  1  0.83485148  0.77770320  0.11506456  1  0.054761  0  0.102884  0.106257  0  1.01923  0
H  H106  1  0.82594317  0.70998755  0.18653898  1  0.133689  0  0.107076  0.120165  0  1.011889  0
H  H107  1  0.83272743  0.58201456  0.29441384  1  0.137103  0  0.108348  0.125874  0  1.004822  0
H  H108  1  0.84566853  0.51840665  0.36763204  1  0.065615  0  0.106779  0.110938  0  1.004257  0
H  H109  1  0.54010456  0.50878407  0.38240413  1  0.127853  0  0.101983  0.117766  0  1.024217  0
H  H110  1  0.55362135  0.20528891  0.57217729  1  0.150938  0  0.106748  0.128206  0  1.035999  0
H  H111  1  0.83165537  0.28236181  0.61432958  1  0.07292  0  0.101581  0.104649  0  1.022654  0
H  H112  1  0.82410745  0.21469276  0.68584257  1  0.113426  0  0.106478  0.11996  0  1.007072  0
H  H113  1  0.83175214  0.09114078  0.79831697  1  0.140606  0  0.106851  0.126271  0  1.016608  0
H  H114  1  0.84269470  0.02522425  0.87032436  1  0.114598  0  0.104451  0.109013  0  1.015357  0
H  H115  1  0.54065160  0.97738524  0.86357801  1  0.129569  0  0.105727  0.126904  0  1.007162  0
H  H116  1  0.53080506  0.48503771  0.60418345  1  0.119163  0  0.101193  0.120996  0  1.02068  0
H  H117  1  0.82826236  0.54431253  0.58994297  1  0.10599  0  0.102595  0.106801  0  1.031789  0
H  H118  1  0.81464899  0.61660946  0.65792420  1  0.089931  0  0.110047  0.116127  0  0.978122  0
H  H119  1  0.78856077  0.75223782  0.76985695  1  0.080387  0  0.108735  0.114528  0  0.98057  0
H  H120  1  0.79882934  0.81044701  0.84596808  1  0.092008  0  0.107586  0.117322  0  0.98594  0
H  H121  1  0.55472207  0.69828672  0.89700975  1  0.142142  0  0.105056  0.125021  0  1.033071  0
H  H122  1  0.45581940  0.47269955  0.46419948  1  0.11007  0  0.126355  0.105753  0  0.979342  0
H  H123  1  0.42545123  0.28469724  0.49881547  1  0.149999  0  0.124219  0.106392  0  1.005571  0
H  H124  1  0.24760203  0.28492935  0.49835634  1  0.133527  0  0.110908  0.12443  0  1.025391  0
H  H125  1  0.27837363  0.48196064  0.46379015  1  0.092873  0  0.09825  0.102921  0  1.054759  0
H  H126  1  0.12379075  0.32327137  0.54267618  1  0.105001  0  0.112814  0.122594  0  0.998568  0
H  H127  1  0.13205297  0.45070717  0.42479184  1  0.094318  0  0.117272  0.127854  0  0.977153  0
H  H128  1  0.95364832  0.45071113  0.43050999  1  0.131909  0  0.125718  0.102675  0  0.992997  0
H  H129  1  0.94530068  0.32858679  0.54285397  1  0.118666  0  0.121138  0.095605  0  1.00287  0
H  H130  1  0.42452423  0.79528776  0.95181877  1  0.158115  0  0.123211  0.102205  0  1.016935  0
H  H131  1  0.24484275  0.79240021  0.95257676  1  0.136083  0  0.110908  0.126986  0  1.022962  0
C  C132  1  0.00368555  0.16707483  0.74137828  1  1.574815  0  0.215091  0.585931  0  4.175152  0
C  C133  1  0.98649071  0.66988496  0.37702735  1  1.570759  0  0.213935  0.590919  0  4.171235  0
C  C134  1  0.99259071  0.63310082  0.42158511  1  -0.023248  0  -0.013685  -0.011581  0  3.953296  0
C  C135  1  0.08250289  0.62660209  0.44194040  1  0.055285  0  -0.092092  -0.154215  0  3.983441  0
C  C136  1  0.91022275  0.60662870  0.44364458  1  -0.071141  0  -0.08416  -0.098459  0  3.983297  0
C  C137  1  0.08933862  0.59420289  0.48381073  1  -0.107821  0  -0.012693  0.064543  0  3.937608  0
C  C138  1  0.91749977  0.57255738  0.48475749  1  0.004808  0  -0.076717  -0.103642  0  3.908562  0
C  C139  1  0.00752019  0.56545540  0.50596663  1  0.083242  0  -0.005885  0.080612  0  4.113991  0
C  C140  1  0.01341650  0.52916356  0.54700450  1  0.077778  0  -0.041199  -0.084784  0  4.116213  0
C  C141  1  0.01510026  0.49559194  0.58155211  1  -0.390767  0  -0.040437  -0.085342  0  4.11643  0
C  C142  1  0.01226755  0.45606071  0.62113267  1  0.102172  0  -0.005105  0.084353  0  4.106248  0
C  C143  1  0.09452929  0.44573907  0.64818667  1  -0.143562  0  -0.011095  0.070136  0  3.920345  0
C  C144  1  0.92448374  0.42494007  0.63490349  1  -0.054631  0  -0.079635  -0.11058  0  3.925902  0
C  C145  1  0.91936832  0.38614037  0.67392161  1  0.021829  0  -0.087306  -0.100026  0  3.993143  0
C  C146  1  0.08918636  0.40718878  0.68738152  1  0.032494  0  -0.092104  -0.152473  0  3.98284  0
C  C147  1  0.00168635  0.37690746  0.70047158  1  -0.059877  0  -0.017844  -0.020536  0  3.963425  0
C  C148  1  0.99846960  0.33314660  0.74162743  1  1.56808  0  0.214055  0.584294  0  4.175308  0
C  C149  1  0.00703926  0.83092611  0.37679474  1  1.57544  0  0.214133  0.588854  0  4.176258  0
C  C150  1  0.00000101  0.86875376  0.42077465  1  -0.097438  0  -0.013105  -0.011673  0  3.955585  0
C  C151  1  0.08188181  0.89615480  0.44268385  1  -0.028698  0  -0.082499  -0.095734  0  3.985829  0
C  C152  1  0.90978708  0.87531610  0.44070580  1  0.02816  0  -0.090734  -0.151098  0  3.976232  0
C  C153  1  0.90214414  0.90856787  0.48214451  1  -0.055867  0  -0.010972  0.066602  0  3.934706  0
C  C154  1  0.07369771  0.93127431  0.48319648  1  -0.080771  0  -0.075891  -0.102152  0  3.911106  0
C  C155  1  0.98336590  0.93823350  0.50412769  1  0.175439  0  -0.005742  0.080905  0  4.115498  0
C  C156  1  0.97744822  0.97479305  0.54497905  1  0.127224  0  -0.040968  -0.086915  0  4.120101  0
C  C157  1  0.97799793  0.00795479  0.57979539  1  -0.495155  0  -0.042083  -0.090848  0  4.135123  0
C  C158  1  0.98359250  0.04638627  0.61991527  1  0.156479  0  -0.006863  0.078645  0  4.121737  0
C  C159  1  0.07035141  0.08083429  0.63084636  1  -0.00154  0  -0.080976  -0.111235  0  3.922116  0
C  C160  1  0.90506702  0.05199014  0.65045219  1  -0.149313  0  -0.009345  0.070878  0  3.917088  0
C  C161  1  0.91212040  0.09017478  0.68975434  1  0.019627  0  -0.091422  -0.150059  0  3.975125  0
C  C162  1  0.07780180  0.11840545  0.67048549  1  -0.077551  0  -0.087017  -0.099478  0  3.987406  0
C  C163  1  0.99859356  0.12379285  0.69999267  1  0.000671  0  -0.015874  -0.016835  0  3.958631  0
C  C164  1  0.70327454  0.77782349  0.27381550  1  0.423598  0  0.058171  0.111124  0  3.905277  0
C  C165  1  0.69818950  0.72826092  0.34631278  1  0.428126  0  0.057844  0.10646  0  3.91776  0
C  C166  1  0.60458611  0.78070807  0.27301368  1  0.08787  0  -0.075415  -0.163293  0  3.925051  0
C  C167  1  0.59949597  0.73064894  0.34860339  1  0.038764  0  -0.077527  -0.175543  0  3.949379  0
C  C168  1  0.55088790  0.75647342  0.31102197  1  -0.125842  0  0.018511  0.111079  0  3.9808  0
C  C169  1  0.44568105  0.75655850  0.31088465  1  -0.039729  0  0.01771  0.109132  0  3.982048  0
C  C170  1  0.39346253  0.73225485  0.27242413  1  -0.01058  0  -0.079437  -0.161192  0  3.937943  0
C  C171  1  0.39535734  0.77969861  0.34892100  1  0.097683  0  -0.07579  -0.171041  0  3.937574  0
C  C172  1  0.29620482  0.77843557  0.34697849  1  0.396683  0  0.057957  0.105535  0  3.920342  0
C  C173  1  0.29440187  0.73120009  0.27364173  1  0.502142  0  0.056795  0.108726  0  3.906049  0
C  C174  1  0.99631030  0.83292512  0.24137672  1  1.575086  0  0.215057  0.585846  0  4.17532  0
C  C175  1  0.01351157  0.33011505  0.87702756  1  1.570297  0  0.213976  0.590972  0  4.171356  0
C  C176  1  0.00741030  0.36689828  0.92158570  1  -0.018981  0  -0.013666  -0.011563  0  3.953372  0
C  C177  1  0.91749799  0.37339795  0.94194149  1  0.055545  0  -0.092032  -0.154186  0  3.983442  0
C  C178  1  0.08977883  0.39337134  0.94364427  1  -0.075093  0  -0.084176  -0.098439  0  3.983372  0
C  C179  1  0.91066401  0.40579763  0.98381185  1  -0.107857  0  -0.012665  0.064629  0  3.937425  0
C  C180  1  0.08250205  0.42744221  0.98475722  1  0.004827  0  -0.076688  -0.103639  0  3.908711  0
C  C181  1  0.99248374  0.43454353  0.00596735  1  0.083204  0  -0.005867  0.080589  0  4.114175  0
C  C182  1  0.98658540  0.47083351  0.04700491  1  0.077763  0  -0.041166  -0.08486  0  4.115967  0
C  C183  1  0.98490140  0.50440655  0.08155323  1  -0.390749  0  -0.040487  -0.085253  0  4.116166  0
C  C184  1  0.98773157  0.54393779  0.12113205  1  0.10212  0  -0.005142  0.084243  0  4.106371  0
C  C185  1  0.90546816  0.55425991  0.14818521  1  -0.143554  0  -0.011134  0.069987  0  3.920478  0
C  C186  1  0.07551460  0.57505938  0.13490380  1  -0.054436  0  -0.079617  -0.110467  0  3.925963  0
C  C187  1  0.08062970  0.61386003  0.17392087  1  0.02244  0  -0.087281  -0.100103  0  3.99328  0
C  C188  1  0.91081085  0.59281209  0.18737971  1  0.032951  0  -0.092106  -0.152424  0  3.982888  0
C  C189  1  0.99831135  0.62309248  0.20047062  1  -0.059851  0  -0.017824  -0.020478  0  3.963366  0
C  C190  1  0.00152629  0.66685382  0.24162656  1  1.568219  0  0.213958  0.584183  0  4.175343  0
C  C191  1  0.99296164  0.16907437  0.87679485  1  1.575419  0  0.21419  0.58896  0  4.176321  0
C  C192  1  0.99999940  0.13124732  0.92077423  1  -0.097501  0  -0.013186  -0.011796  0  3.955703  0
C  C193  1  0.91811921  0.10384664  0.94268341  1  -0.028719  0  -0.082458  -0.09574  0  3.985652  0
C  C194  1  0.09021329  0.12468581  0.94070607  1  0.029014  0  -0.090678  -0.151018  0  3.976229  0
C  C195  1  0.09785602  0.09143639  0.98214544  1  -0.05624  0  -0.010994  0.066589  0  3.934666  0
C  C196  1  0.92630217  0.06872715  0.98319670  1  -0.080752  0  -0.075903  -0.102174  0  3.910886  0
C  C197  1  0.01663273  0.06176964  0.00412896  1  0.175338  0  -0.005732  0.080887  0  4.115596  0
C  C198  1  0.02255066  0.02520963  0.04497994  1  0.127318  0  -0.04099  -0.086903  0  4.120229  0
C  C199  1  0.02200107  0.99204557  0.07979392  1  -0.495027  0  -0.042046  -0.090823  0  4.135067  0
C  C200  1  0.01640596  0.95361270  0.11991240  1  0.156545  0  -0.006841  0.078667  0  4.121319  0
C  C201  1  0.92964689  0.91916421  0.13084326  1  -0.001752  0  -0.080927  -0.111128  0  3.922185  0
C  C202  1  0.09492969  0.94800884  0.15044981  1  -0.149315  0  -0.009344  0.070854  0  3.916537  0
C  C203  1  0.08787518  0.90982421  0.18975231  1  0.019516  0  -0.091549  -0.150164  0  3.975107  0
C  C204  1  0.92219537  0.88159307  0.17048239  1  -0.077257  0  -0.087047  -0.099459  0  3.987417  0
C  C205  1  0.00140192  0.87620616  0.19999120  1  0.000689  0  -0.015769  -0.016687  0  3.958571  0
C  C206  1  0.29672659  0.22217555  0.77381739  1  0.423752  0  0.058052  0.110923  0  3.905218  0
C  C207  1  0.30180958  0.27173955  0.84631363  1  0.428107  0  0.057824  0.106482  0  3.917494  0
C  C208  1  0.39541579  0.21929143  0.77301567  1  0.087984  0  -0.075344  -0.163079  0  3.925047  0
C  C209  1  0.40050170  0.26935200  0.84860504  1  0.038722  0  -0.077472  -0.175412  0  3.949308  0
C  C210  1  0.44911230  0.24352750  0.81102384  1  -0.125844  0  0.018459  0.110825  0  3.981045  0
C  C211  1  0.55431782  0.24344336  0.81088625  1  -0.040097  0  0.017688  0.109162  0  3.982137  0
C  C212  1  0.60653755  0.26774793  0.77242561  1  -0.010568  0  -0.079449  -0.161216  0  3.937839  0
C  C213  1  0.60464113  0.22030326  0.84892211  1  0.098063  0  -0.075726  -0.170915  0  3.937536  0
C  C214  1  0.70379438  0.22156630  0.84697936  1  0.395485  0  0.05791  0.105502  0  3.920395  0
C  C215  1  0.70559681  0.26880315  0.77364331  1  0.502179  0  0.056833  0.108878  0  3.905883  0
C  C216  1  0.60215613  0.07804231  0.51446003  1  0.420364  0  0.053181  0.105542  0  3.908744  0
C  C217  1  0.70091177  0.07612793  0.51663432  1  0.044258  0  -0.084174  -0.176074  0  3.955997  0
C  C218  1  0.75769899  0.12239254  0.49331148  1  -0.101573  0  0.018399  0.112884  0  3.968856  0
C  C219  1  0.86320252  0.12068304  0.49189610  1  -0.024588  0  0.025198  0.126895  0  3.956626  0
C  C220  1  0.90667024  0.08356909  0.45868442  1  8.1e-05  0  -0.073483  -0.170775  0  3.931073  0
C  C221  1  0.92162175  0.15653329  0.52278245  1  -0.030947  0  -0.075188  -0.165216  0  3.919659  0
C  C222  1  0.02014919  0.15367501  0.51954214  1  0.466095  0  0.054232  0.103348  0  3.923656  0
C  C223  1  0.00579429  0.08369966  0.45737656  1  0.50665  0  0.059782  0.106945  0  3.92268  0
C  C224  1  0.30896778  0.02989625  0.54928292  1  1.583047  0  0.213184  0.585031  0  4.175869  0
C  C225  1  0.30601819  0.98506276  0.58967128  1  -0.04325  0  -0.018565  -0.018923  0  3.96212  0
C  C226  1  0.39014188  0.97165446  0.61333865  1  -0.064004  0  -0.092266  -0.102416  0  4.007161  0
C  C227  1  0.21760386  0.95918854  0.60568195  1  0.065871  0  -0.092503  -0.15322  0  3.979373  0
C  C228  1  0.21328910  0.92180754  0.64547852  1  -0.107766  0  -0.008972  0.0762  0  3.908314  0
C  C229  1  0.38562167  0.93476250  0.65335332  1  0.007273  0  -0.079503  -0.106452  0  3.929881  0
C  C230  1  0.29688857  0.90927386  0.67074558  1  0.095588  0  -0.002744  0.094249  0  4.096196  0
C  C231  1  0.29423403  0.87354012  0.71222249  1  -0.239759  0  -0.044311  -0.090708  0  4.139158  0
C  C232  1  0.29655336  0.84369026  0.74859490  1  -0.080337  0  -0.042883  -0.092325  0  4.139394  0
C  C233  1  0.29862032  0.80821109  0.79011038  1  0.154161  0  -0.001939  0.094312  0  4.102331  0
C  C234  1  0.21426387  0.77635176  0.80737289  1  -0.027529  0  -0.078222  -0.107324  0  3.937955  0
C  C235  1  0.38427056  0.80242561  0.81564990  1  -0.097503  0  -0.007235  0.073671  0  3.906489  0
C  C236  1  0.21562885  0.74006420  0.84765335  1  -0.028509  0  -0.08683  -0.101744  0  3.994527  0
C  C237  1  0.38598910  0.76553297  0.85558111  1  -0.009831  0  -0.091691  -0.156748  0  3.989778  0
C  C238  1  0.30186854  0.73380520  0.87171030  1  0.029418  0  -0.01671  -0.021795  0  3.971715  0
C  C239  1  0.30514873  0.69330215  0.91448007  1  1.561469  0  0.211741  0.575927  0  4.184264  0
C  C240  1  0.31039074  0.19934566  0.55537525  1  1.573662  0  0.213339  0.577849  0  4.190161  0
C  C241  1  0.31263041  0.24332712  0.59620941  1  -0.056143  0  -0.019043  -0.025342  0  3.985922  0
C  C242  1  0.39811412  0.27749772  0.60743484  1  0.074511  0  -0.091192  -0.155372  0  3.988253  0
C  C243  1  0.23123678  0.24908910  0.62411046  1  0.012947  0  -0.090443  -0.108085  0  3.999327  0
C  C244  1  0.23590334  0.28690215  0.66366578  1  -0.105012  0  -0.080636  -0.109059  0  3.927831  0
C  C245  1  0.40245809  0.31569355  0.64671911  1  -0.096646  0  -0.009222  0.067194  0  3.916344  0
C  C246  1  0.32197132  0.32107801  0.67604697  1  0.110952  0  -0.0057  0.081144  0  4.12244  0
C  C247  1  0.32596905  0.35783837  0.71697546  1  -0.271776  0  -0.043983  -0.099642  0  4.14356  0
C  C248  1  0.32638112  0.38759705  0.75344011  1  0.009417  0  -0.036857  -0.074717  0  4.11312  0
C  C249  1  0.32127049  0.42142216  0.79559661  1  0.057317  0  -0.005839  0.083239  0  4.106322  0
C  C250  1  0.40367948  0.44177269  0.82140790  1  -0.037271  0  -0.013459  0.065214  0  3.93165  0
C  C251  1  0.23089453  0.43550975  0.81342089  1  0.003759  0  -0.075636  -0.097229  0  3.902479  0
C  C252  1  0.22379753  0.46986521  0.85433922  1  -0.060307  0  -0.082687  -0.092492  0  3.9873  0
C  C253  1  0.39642980  0.47512984  0.86283188  1  -0.070213  0  -0.097257  -0.156771  0  4.001873  0
C  C254  1  0.30630895  0.48997941  0.87926160  1  0.001001  0  -0.015581  -0.016359  0  3.95739  0
C  C255  1  0.30014285  0.52964746  0.92229754  1  1.580732  0  0.213895  0.588045  0  4.172434  0
C  C256  1  0.30621615  0.70677720  0.04851750  1  1.575737  0  0.212101  0.580028  0  4.189245  0
C  C257  1  0.30687509  0.75155492  0.08902801  1  -0.050404  0  -0.018296  -0.023664  0  3.975454  0
C  C258  1  0.38721999  0.79250182  0.09700849  1  0.010287  0  -0.092953  -0.155885  0  3.982751  0
C  C259  1  0.23017332  0.74993022  0.12076873  1  -0.013902  0  -0.09182  -0.109379  0  4.001294  0
C  C260  1  0.23451493  0.78726022  0.16062316  1  -0.066473  0  -0.082136  -0.11223  0  3.930315  0
C  C261  1  0.39173818  0.82936946  0.13708909  1  -0.087894  0  -0.011248  0.063919  0  3.921057  0
C  C262  1  0.31618631  0.82758913  0.17010093  1  0.127005  0  -0.007826  0.079683  0  4.120648  0
C  C263  1  0.32119524  0.86380820  0.21137622  1  0.181421  0  -0.045699  -0.101953  0  4.145344  0
C  C264  1  0.32310420  0.89437401  0.24753580  1  -0.506228  0  -0.039543  -0.079189  0  4.112769  0
C  C265  1  0.31964107  0.93005792  0.28898432  1  0.086302  0  -0.006924  0.081174  0  4.107662  0
C  C266  1  0.40164251  0.96246063  0.30825659  1  -0.052565  0  -0.012995  0.066954  0  3.928946  0
C  C267  1  0.23134816  0.93468223  0.31246256  1  -0.002606  0  -0.080386  -0.106561  0  3.910578  0
C  C268  1  0.22556281  0.97065165  0.35271851  1  -0.059496  0  -0.085014  -0.097809  0  3.989463  0
C  C269  1  0.39619298  0.99759330  0.34897470  1  -0.02678  0  -0.09259  -0.15401  0  3.985525  0
C  C270  1  0.30780797  0.00196406  0.37145369  1  -0.035098  0  -0.014941  -0.014603  0  3.954916  0
C  C271  1  0.30283381  0.04089006  0.41506470  1  1.569231  0  0.214595  0.590659  0  4.167589  0
C  C272  1  0.31251665  0.53663241  0.05437199  1  1.543447  0  0.212123  0.585128  0  4.170851  0
C  C273  1  0.31967132  0.49018915  0.09334485  1  -0.001691  0  -0.019199  -0.021569  0  3.962411  0
C  C274  1  0.40757704  0.48590876  0.11623517  1  0.02721  0  -0.096086  -0.15526  0  3.993818  0
C  C275  1  0.23973724  0.45250766  0.10807282  1  -0.026158  0  -0.087478  -0.100459  0  3.992575  0
C  C276  1  0.24727847  0.41238499  0.14592148  1  -0.043029  0  -0.078965  -0.108309  0  3.93389  0
C  C277  1  0.41472091  0.44616323  0.15438049  1  -0.107768  0  -0.0116  0.071055  0  3.916352  0
C  C278  1  0.33430574  0.40903671  0.17074637  1  0.123069  0  -0.002814  0.095835  0  4.095271  0
C  C279  1  0.33760683  0.37157715  0.21134102  1  -0.448791  0  -0.044649  -0.091336  0  4.126906  0
C  C280  1  0.33620420  0.34165730  0.24780566  1  0.116275  0  -0.044409  -0.089682  0  4.128576  0
C  C281  1  0.33253320  0.30851991  0.29058700  1  0.102834  0  -0.004629  0.0867  0  4.114541  0
C  C282  1  0.39772148  0.32310261  0.32750988  1  -0.099726  0  -0.010412  0.069127  0  3.917427  0
C  C283  1  0.26147937  0.25968036  0.29822190  1  -0.050852  0  -0.081957  -0.113411  0  3.955311  0
C  C284  1  0.25580475  0.22731245  0.34039556  1  -0.00577  0  -0.088592  -0.10474  0  3.99655  0
C  C285  1  0.39311319  0.29021776  0.36953626  1  0.0177  0  -0.095579  -0.165787  0  3.996272  0
C  C286  1  0.32240995  0.24186080  0.37610622  1  -0.010294  0  -0.017222  -0.015652  0  3.974565  0
C  C287  1  0.32115137  0.20340163  0.41998687  1  1.567079  0  0.213166  0.584959  0  4.183287  0
C  C288  1  0.59378472  0.56729563  0.97177324  1  0.464121  0  0.057691  0.108633  0  3.907481  0
C  C289  1  0.61014596  0.67257448  0.99156598  1  0.496237  0  0.056173  0.108443  0  3.898011  0
C  C290  1  0.70923540  0.67194955  0.99155569  1  -0.034523  0  -0.076707  -0.161991  0  3.904965  0
C  C291  1  0.69219054  0.56296156  0.97097853  1  0.050139  0  -0.079519  -0.168844  0  3.944453  0
C  C292  1  0.75205647  0.61603167  0.98170396  1  -0.063624  0  0.017859  0.108474  0  3.968274  0
C  C293  1  0.85698303  0.61362051  0.98324566  1  -0.054984  0  0.02211  0.117092  0  3.963319  0
C  C294  1  0.91103743  0.64849110  0.01671123  1  -0.021682  0  -0.072569  -0.162685  0  3.920381  0
C  C295  1  0.90607349  0.57691013  0.95174938  1  -0.031711  0  -0.072769  -0.164865  0  3.925433  0
C  C296  1  0.00503166  0.57676735  0.95441059  1  0.509639  0  0.060298  0.106966  0  3.915991  0
C  C297  1  0.00967791  0.64553081  0.01738107  1  0.506178  0  0.055778  0.101662  0  3.926362  0
C  C298  1  0.61372299  0.16880107  0.46955091  1  0.469727  0  0.058343  0.116837  0  3.889485  0
C  C299  1  0.71302065  0.17008941  0.47011955  1  -0.008514  0  -0.077666  -0.167067  0  3.911355  0
C  C300  1  0.39784321  0.92195428  0.01446214  1  0.420278  0  0.053254  0.105435  0  3.908798  0
C  C301  1  0.29908848  0.92387100  0.01663457  1  0.044767  0  -0.08419  -0.175978  0  3.95596  0
C  C302  1  0.24230051  0.87760612  0.99331206  1  -0.101566  0  0.018322  0.112728  0  3.968965  0
C  C303  1  0.13679718  0.87931748  0.99189695  1  -0.02478  0  0.025113  0.126779  0  3.95656  0
C  C304  1  0.09332914  0.91643189  0.95868540  1  0.000277  0  -0.073489  -0.170775  0  3.931068  0
C  C305  1  0.07837714  0.84346705  0.02278358  1  -0.030954  0  -0.075081  -0.165124  0  3.919476  0
C  C306  1  0.97985044  0.84632533  0.01954413  1  0.466016  0  0.054198  0.103321  0  3.923717  0
C  C307  1  0.99420501  0.91630039  0.95737877  1  0.506687  0  0.059694  0.106772  0  3.922911  0
C  C308  1  0.69102954  0.97010550  0.04928255  1  1.58305  0  0.213262  0.585133  0  4.175766  0
C  C309  1  0.69398067  0.01493713  0.08967115  1  -0.043745  0  -0.018565  -0.018921  0  3.962084  0
C  C310  1  0.60985673  0.02834544  0.11333909  1  -0.063904  0  -0.092247  -0.102489  0  4.007224  0
C  C311  1  0.78239349  0.04081230  0.10568127  1  0.065855  0  -0.09245  -0.153086  0  3.979169  0
C  C312  1  0.78670775  0.07819237  0.14547819  1  -0.107648  0  -0.008956  0.076141  0  3.908328  0
C  C313  1  0.61437639  0.06523601  0.15335378  1  0.007174  0  -0.079462  -0.106427  0  3.929949  0
C  C314  1  0.70310864  0.09072513  0.17074617  1  0.09561  0  -0.002753  0.094274  0  4.096149  0
C  C315  1  0.70576342  0.12645842  0.21222414  1  -0.239723  0  -0.044421  -0.090827  0  4.139254  0
C  C316  1  0.70344732  0.15630877  0.24859588  1  -0.080319  0  -0.042848  -0.092312  0  4.13931  0
C  C317  1  0.70138019  0.19179076  0.29011102  1  0.1542  0  -0.002014  0.094339  0  4.102065  0
C  C318  1  0.78573713  0.22364962  0.30737298  1  -0.027595  0  -0.078133  -0.107366  0  3.937876  0
C  C319  1  0.61572982  0.19757766  0.31565041  1  -0.097482  0  -0.007154  0.07378  0  3.906281  0
C  C320  1  0.78437316  0.25993720  0.34765312  1  -0.028507  0  -0.086739  -0.10157  0  3.994293  0
C  C321  1  0.61401157  0.23447030  0.35558164  1  -0.010503  0  -0.091687  -0.156788  0  3.989846  0
C  C322  1  0.69813322  0.26619621  0.37171029  1  0.029424  0  -0.016824  -0.021934  0  3.971738  0
C  C323  1  0.69485249  0.30669834  0.41448148  1  1.561449  0  0.211803  0.576019  0  4.184387  0
C  C324  1  0.68961205  0.80065422  0.05537620  1  1.57436  0  0.213408  0.577777  0  4.190206  0
C  C325  1  0.68737115  0.75667184  0.09620930  1  -0.056181  0  -0.019052  -0.025272  0  3.985815  0
C  C326  1  0.60188593  0.72250171  0.10743528  1  0.074514  0  -0.091193  -0.155374  0  3.988173  0
C  C327  1  0.76876377  0.75090987  0.12411049  1  0.012926  0  -0.090364  -0.108034  0  3.999354  0
C  C328  1  0.76409680  0.71309684  0.16366616  1  -0.105118  0  -0.080638  -0.10905  0  3.927902  0
C  C329  1  0.59754160  0.68430637  0.14671919  1  -0.096669  0  -0.009213  0.067177  0  3.916335  0
C  C330  1  0.67802869  0.67892098  0.17604650  1  0.110939  0  -0.00566  0.081216  0  4.122413  0
C  C331  1  0.67403044  0.64215970  0.21697428  1  -0.271945  0  -0.044043  -0.099754  0  4.143577  0
C  C332  1  0.67362147  0.61240011  0.25343927  1  0.009374  0  -0.036776  -0.074592  0  4.113139  0
C  C333  1  0.67873175  0.57857595  0.29559539  1  0.057827  0  -0.005802  0.083401  0  4.106421  0
C  C334  1  0.59632476  0.55822683  0.32140793  1  -0.037336  0  -0.013501  0.065019  0  3.931807  0
C  C335  1  0.76910823  0.56448836  0.31341978  1  0.003518  0  -0.075723  -0.097514  0  3.902502  0
C  C336  1  0.77620486  0.53013339  0.35433808  1  -0.063969  0  -0.082682  -0.092471  0  3.987272  0
C  C337  1  0.60357268  0.52487063  0.36283152  1  -0.070383  0  -0.097276  -0.156691  0  4.001975  0
C  C338  1  0.69369183  0.51002013  0.37926101  1  0.004664  0  -0.01562  -0.016407  0  3.9573  0
C  C339  1  0.69985686  0.47035304  0.42229762  1  1.58053  0  0.213854  0.588047  0  4.172339  0
C  C340  1  0.69378608  0.29322361  0.54851877  1  1.576288  0  0.212182  0.580044  0  4.189381  0
C  C341  1  0.69312610  0.24844685  0.58902891  1  -0.050843  0  -0.01834  -0.023553  0  3.975337  0
C  C342  1  0.61278044  0.20750042  0.59701027  1  0.010257  0  -0.092954  -0.156037  0  3.982827  0
C  C343  1  0.76982687  0.25007203  0.62077014  1  -0.013885  0  -0.091819  -0.109429  0  4.001377  0
C  C344  1  0.76548555  0.21274204  0.66062456  1  -0.066609  0  -0.082107  -0.112253  0  3.93018  0
C  C345  1  0.60826183  0.17063280  0.63709052  1  -0.087804  0  -0.011296  0.063933  0  3.921229  0
C  C346  1  0.68381336  0.17241314  0.67010252  1  0.126998  0  -0.007842  0.079653  0  4.1206  0
C  C347  1  0.67880543  0.13619409  0.71137780  1  0.181588  0  -0.045677  -0.101925  0  4.145286  0
C  C348  1  0.67689823  0.10562829  0.74753808  1  -0.5063  0  -0.039498  -0.079092  0  4.112747  0
C  C349  1  0.68036083  0.06994346  0.78898622  1  0.086255  0  -0.006995  0.080897  0  4.107839  0
C  C350  1  0.59835786  0.03754169  0.80825833  1  -0.05263  0  -0.013017  0.067035  0  3.928883  0
C  C351  1  0.76865332  0.06531729  0.81246353  1  -0.002646  0  -0.080292  -0.106179  0  3.910615  0
C  C352  1  0.77443817  0.02934695  0.85271805  1  -0.059629  0  -0.085059  -0.098002  0  3.989752  0
C  C353  1  0.60380678  0.00240717  0.84897571  1  -0.026276  0  -0.092664  -0.15427  0  3.985663  0
C  C354  1  0.69219142  0.99803502  0.87145354  1  -0.035365  0  -0.014918  -0.014528  0  3.954971  0
C  C355  1  0.69716704  0.95910669  0.91506452  1  1.569309  0  0.214575  0.590645  0  4.167495  0
C  C356  1  0.68748610  0.46336700  0.55437160  1  1.54305  0  0.212145  0.585047  0  4.17104  0
C  C357  1  0.68033442  0.50980841  0.59334521  1  -0.001324  0  -0.019193  -0.021267  0  3.962193  0
C  C358  1  0.59242962  0.51408600  0.61623715  1  0.027359  0  -0.096077  -0.155377  0  3.993781  0
C  C359  1  0.76026719  0.54749271  0.60807194  1  -0.026097  0  -0.087566  -0.100708  0  3.99278  0
C  C360  1  0.75272476  0.58761447  0.64592064  1  -0.043215  0  -0.078981  -0.108168  0  3.933954  0
C  C361  1  0.58528249  0.55383154  0.65438286  1  -0.107609  0  -0.011582  0.070976  0  3.916411  0
C  C362  1  0.66569754  0.59095854  0.67074855  1  0.122946  0  -0.002826  0.09574  0  4.095149  0
C  C363  1  0.66239896  0.62841905  0.71134358  1  -0.448919  0  -0.04452  -0.090998  0  4.126908  0
C  C364  1  0.66380126  0.65833938  0.74780577  1  0.116362  0  -0.044436  -0.089862  0  4.128703  0
C  C365  1  0.66747127  0.69147867  0.79058712  1  0.102551  0  -0.004624  0.086749  0  4.114461  0
C  C366  1  0.60227833  0.67689597  0.82750945  1  -0.099466  0  -0.010503  0.069045  0  3.917461  0
C  C367  1  0.73852235  0.74032009  0.79822221  1  -0.050774  0  -0.081914  -0.113332  0  3.955301  0
C  C368  1  0.74419435  0.77268754  0.84039623  1  -0.005529  0  -0.088603  -0.104733  0  3.996626  0
C  C369  1  0.60688614  0.70978037  0.86953585  1  0.017689  0  -0.095594  -0.165795  0  3.996157  0
C  C370  1  0.67758877  0.75813921  0.87610670  1  -0.010292  0  -0.017238  -0.015827  0  3.974615  0
C  C371  1  0.67884877  0.79659559  0.91998806  1  1.567364  0  0.213193  0.585162  0  4.183099  0
C  C372  1  0.40621742  0.43270583  0.47177369  1  0.464657  0  0.057595  0.108464  0  3.90774  0
C  C373  1  0.38985530  0.32742745  0.49156713  1  0.496442  0  0.056229  0.108505  0  3.897874  0
C  C374  1  0.29076586  0.32805238  0.49155709  1  -0.034617  0  -0.076665  -0.161951  0  3.905028  0
C  C375  1  0.30781089  0.43703989  0.47097923  1  0.050126  0  -0.079421  -0.168588  0  3.944491  0
C  C376  1  0.24794628  0.38396979  0.48170549  1  -0.063691  0  0.017748  0.108298  0  3.968494  0
C  C377  1  0.14301903  0.38638142  0.48324676  1  -0.054954  0  0.022157  0.11725  0  3.963048  0
C  C378  1  0.08896232  0.35151017  0.51671196  1  -0.021636  0  -0.072623  -0.162765  0  3.92026  0
C  C379  1  0.09392810  0.42309084  0.45175027  1  -0.031657  0  -0.072815  -0.164961  0  3.925494  0
C  C380  1  0.99497133  0.42323363  0.45441095  1  0.509416  0  0.060368  0.10704  0  3.91589  0
C  C381  1  0.99032179  0.35446999  0.51738127  1  0.506255  0  0.055819  0.101747  0  3.92652  0
C  C382  1  0.38627503  0.83119429  0.96955427  1  0.470417  0  0.058269  0.116757  0  3.889827  0
C  C383  1  0.28697758  0.82990830  0.97012140  1  -0.009  0  -0.077622  -0.166917  0  3.911263  0
Br  Br384  1  0.21164521  0.58838654  0.51187983  1  -0.066684  0  0.027706  -0.071265  0  1.446946  0
Br  Br385  1  0.21538573  0.48391235  0.63088975  1  -0.048602  0  0.023986  -0.061721  0  1.463238  0
Br  Br386  1  0.77914236  0.91358286  0.50957994  1  -0.072982  0  0.022555  -0.074927  0  1.432138  0
Br  Br387  1  0.78684144  0.00672930  0.63769409  1  -0.062835  0  0.0325  -0.054159  0  1.441623  0
Br  Br388  1  0.78835637  0.41161847  0.01188105  1  -0.066655  0  0.027662  -0.07131  0  1.446832  0
Br  Br389  1  0.78461332  0.51608663  0.13088858  1  -0.048662  0  0.024019  -0.061622  0  1.463273  0
Br  Br390  1  0.22085556  0.08642075  0.00958210  1  -0.073313  0  0.022541  -0.074948  0  1.432088  0
Br  Br391  1  0.21315950  0.99326780  0.13769389  1  -0.062868  0  0.03248  -0.054189  0  1.441501  0
Br  Br392  1  0.09191906  0.88885625  0.66677817  1  -0.060357  0  0.018276  -0.066522  0  1.362462  0
Br  Br393  1  0.49978339  0.84513010  0.79526126  1  -0.054649  0  0.043183  -0.037918  0  1.444573  0
Br  Br394  1  0.51981254  0.36058167  0.66148401  1  -0.045306  0  0.065654  -0.010613  0  1.517719  0
Br  Br395  1  0.52664572  0.42308424  0.79941779  1  -0.057921  0  0.0255  -0.072544  0  1.491155  0
Br  Br396  1  0.50298527  0.88252713  0.14833132  1  -0.049786  0  0.051468  -0.033009  0  1.537056  0
Br  Br397  1  0.52202580  0.95821081  0.27796473  1  -0.062818  0  0.020631  -0.074201  0  1.442333  0
Br  Br398  1  0.53448959  0.44307912  0.18514718  1  -0.048984  0  0.020366  -0.068459  0  1.467169  0
Br  Br399  1  0.49453389  0.38823536  0.31994578  1  -0.035757  0  0.041926  -0.037421  0  1.543935  0
Br  Br400  1  0.90807970  0.11114368  0.16677755  1  -0.060351  0  0.018258  -0.066542  0  1.362529  0
Br  Br401  1  0.50021519  0.15487456  0.29526274  1  -0.054599  0  0.043144  -0.037972  0  1.444484  0
Br  Br402  1  0.48018749  0.63941591  0.16148332  1  -0.045334  0  0.065612  -0.010658  0  1.517699  0
Br  Br403  1  0.47335737  0.57691574  0.29941814  1  -0.057836  0  0.025489  -0.072519  0  1.49108  0
Br  Br404  1  0.49701521  0.11747372  0.64833231  1  -0.049762  0  0.051479  -0.033001  0  1.537084  0
Br  Br405  1  0.47797519  0.04179478  0.77796748  1  -0.062837  0  0.020686  -0.074146  0  1.442316  0
Br  Br406  1  0.46551247  0.55691239  0.68514810  1  -0.048925  0  0.020353  -0.06841  0  1.467235  0
Br  Br407  1  0.50546685  0.61176463  0.81994452  1  -0.035707  0  0.041937  -0.037394  0  1.544024  0
N  N408  1  0.74912588  0.75133952  0.30945674  1  -1.231939  0  -0.321945  -0.207474  0  3.521165  0
N  N409  1  0.24660312  0.75424288  0.31007278  1  -1.265024  0  -0.322925  -0.208194  0  3.523668  0
N  N410  1  0.25087350  0.24866000  0.80945771  1  -1.231959  0  -0.321999  -0.207528  0  3.521092  0
N  N411  1  0.75339660  0.24576038  0.81007423  1  -1.264969  0  -0.322939  -0.208241  0  3.523562  0
N  N412  1  0.06155631  0.11803771  0.48737787  1  -1.243347  0  -0.321978  -0.208259  0  3.520218  0
N  N413  1  0.55940364  0.12309247  0.49077018  1  -1.257632  0  -0.326114  -0.212112  0  3.524135  0
N  N414  1  0.55345691  0.62109296  0.98220530  1  -1.243661  0  -0.323496  -0.206404  0  3.523589  0
N  N415  1  0.05604467  0.61042634  0.98668345  1  -1.245173  0  -0.319952  -0.204105  0  3.517897  0
N  N416  1  0.93844415  0.88196282  0.98737984  1  -1.243437  0  -0.321902  -0.208085  0  3.520354  0
N  N417  1  0.44059486  0.87690290  0.99077236  1  -1.258333  0  -0.326162  -0.212251  0  3.524392  0
N  N418  1  0.44654516  0.37890897  0.48220633  1  -1.244279  0  -0.323545  -0.206533  0  3.523726  0
N  N419  1  0.94395646  0.38957372  0.48668322  1  -1.245044  0  -0.319986  -0.204163  0  3.517937  0
O  O420  1  0.90417995  0.68625520  0.36487655  1  -1.155318  0  -0.312654  -0.546324  0  2.329459  0
O  O421  1  0.06452884  0.68261458  0.35514763  1  -1.170521  0  -0.320448  -0.552259  0  2.329772  0
O  O422  1  0.91818431  0.30499378  0.75146410  1  -1.172379  0  -0.313042  -0.547128  0  2.338858  0
O  O423  1  0.07705197  0.32653805  0.76309010  1  -1.168986  0  -0.310074  -0.544748  0  2.357706  0
O  O424  1  0.92965621  0.81767524  0.35458797  1  -1.17218  0  -0.319491  -0.551217  0  2.330701  0
O  O425  1  0.08971100  0.81434300  0.36544883  1  -1.16502  0  -0.312467  -0.545468  0  2.332017  0
O  O426  1  0.92615262  0.17335177  0.76380643  1  -1.175058  0  -0.310835  -0.545631  0  2.36308  0
O  O427  1  0.08425445  0.19531429  0.75043386  1  -1.172506  0  -0.311667  -0.545984  0  2.341993  0
O  O428  1  0.09582089  0.31374340  0.86487654  1  -1.154922  0  -0.31264  -0.546337  0  2.329627  0
O  O429  1  0.93547166  0.31738682  0.85514830  1  -1.170477  0  -0.32052  -0.552328  0  2.329782  0
O  O430  1  0.08181215  0.69500618  0.25146270  1  -1.172492  0  -0.313044  -0.547107  0  2.338799  0
O  O431  1  0.92294280  0.67346051  0.26309006  1  -1.169049  0  -0.310017  -0.544702  0  2.357818  0
O  O432  1  0.07034341  0.18232429  0.85458727  1  -1.172198  0  -0.319491  -0.551205  0  2.330762  0
O  O433  1  0.91029015  0.18565888  0.86545020  1  -1.165007  0  -0.312506  -0.545531  0  2.332  0
O  O434  1  0.07384379  0.82664913  0.26380510  1  -1.17531  0  -0.310822  -0.545582  0  2.363195  0
O  O435  1  0.91574340  0.80468520  0.25043354  1  -1.172612  0  -0.311661  -0.546001  0  2.34206  0
O  O436  1  0.22872601  0.04854283  0.53555312  1  -1.171382  0  -0.312742  -0.546355  0  2.361397  0
O  O437  1  0.39037583  0.04733413  0.53254745  1  -1.171598  0  -0.312095  -0.54723  0  2.357117  0
O  O438  1  0.22614739  0.67796985  0.93472945  1  -1.171451  0  -0.317294  -0.552976  0  2.322472  0
O  O439  1  0.38754777  0.67801117  0.92761165  1  -1.16379  0  -0.311011  -0.537709  0  2.362337  0
O  O440  1  0.22889460  0.18217312  0.53827073  1  -1.178334  0  -0.313722  -0.557446  0  2.349544  0
O  O441  1  0.39071778  0.18271389  0.54073353  1  -1.16204  0  -0.306753  -0.538159  0  2.379481  0
O  O442  1  0.21753574  0.54622731  0.93383316  1  -1.160341  0  -0.312076  -0.543568  0  2.339906  0
O  O443  1  0.37800875  0.54479422  0.94354085  1  -1.175055  0  -0.316963  -0.555712  0  2.352388  0
O  O444  1  0.22637514  0.67777877  0.03869223  1  -1.175377  0  -0.316231  -0.555227  0  2.344477  0
O  O445  1  0.38549330  0.70019955  0.02786590  1  -1.171474  0  -0.309947  -0.535136  0  2.326865  0
O  O446  1  0.22063086  0.04724439  0.43298926  1  -1.167872  0  -0.314299  -0.546648  0  2.316525  0
O  O447  1  0.38208558  0.06494992  0.43051869  1  -1.166804  0  -0.316572  -0.542063  0  2.347822  0
O  O448  1  0.23011858  0.54226829  0.03621867  1  -1.16968  0  -0.311704  -0.548017  0  2.339014  0
O  O449  1  0.38925034  0.56777702  0.04296298  1  -1.16428  0  -0.316812  -0.544206  0  2.365311  0
O  O450  1  0.24009464  0.17944720  0.43331678  1  -1.170374  0  -0.319926  -0.55378  0  2.331272  0
O  O451  1  0.40109251  0.19683674  0.44017329  1  -1.164698  0  -0.311619  -0.543074  0  2.321628  0
O  O452  1  0.77127140  0.95145845  0.03555078  1  -1.171405  0  -0.31277  -0.546382  0  2.361346  0
O  O453  1  0.60962291  0.95266574  0.03254833  1  -1.171651  0  -0.312152  -0.547336  0  2.357143  0
O  O454  1  0.77385594  0.32202503  0.43473243  1  -1.171516  0  -0.317333  -0.553072  0  2.32251  0
O  O455  1  0.61245586  0.32199354  0.42761188  1  -1.163717  0  -0.311002  -0.537693  0  2.362411  0
O  O456  1  0.77110827  0.81782582  0.03827149  1  -1.178377  0  -0.313746  -0.557412  0  2.34961  0
O  O457  1  0.60928516  0.81728599  0.04073505  1  -1.162668  0  -0.30681  -0.538207  0  2.379515  0
O  O458  1  0.78246327  0.45376711  0.43383056  1  -1.160161  0  -0.312069  -0.543607  0  2.339778  0
O  O459  1  0.62199274  0.45521238  0.44354427  1  -1.174882  0  -0.31693  -0.555693  0  2.352433  0
O  O460  1  0.77362728  0.32222298  0.53869401  1  -1.17546  0  -0.316265  -0.555217  0  2.344409  0
O  O461  1  0.61451111  0.29979939  0.52786492  1  -1.17149  0  -0.309995  -0.535187  0  2.326889  0
O  O462  1  0.77937101  0.95275003  0.93298746  1  -1.16795  0  -0.314259  -0.546584  0  2.31653  0
O  O463  1  0.61791391  0.93504918  0.93051975  1  -1.167021  0  -0.316588  -0.542094  0  2.347689  0
O  O464  1  0.76988227  0.45773159  0.53621632  1  -1.169733  0  -0.311722  -0.548015  0  2.339113  0
O  O465  1  0.61075111  0.43222239  0.54296453  1  -1.164257  0  -0.316813  -0.544206  0  2.365398  0
O  O466  1  0.75990648  0.82054675  0.93331883  1  -1.170686  0  -0.319896  -0.553824  0  2.331285  0
O  O467  1  0.59890764  0.80316283  0.94017434  1  -1.16471  0  -0.311651  -0.543149  0  2.321554  0
