# generated using pymatgen
data_DyNiH34C51(NO2)5
_symmetry_space_group_name_H-M   'P 1'
_cell_length_a   8.68907212
_cell_length_b   21.24580013
_cell_length_c   27.78182065
_cell_angle_alpha   90.00013876
_cell_angle_beta   90.00020140
_cell_angle_gamma   98.10785017
_symmetry_Int_Tables_number   1
_chemical_formula_structural   DyNiH34C51(NO2)5
_chemical_formula_sum   'Dy4 Ni4 H136 C204 N20 O40'
_cell_volume   5077.43411679
_cell_formula_units_Z   4
loop_
 _symmetry_equiv_pos_site_id
 _symmetry_equiv_pos_as_xyz
  1  'x, y, z'
loop_
 _atom_site_type_symbol
 _atom_site_label
 _atom_site_symmetry_multiplicity
 _atom_site_fract_x
 _atom_site_fract_y
 _atom_site_fract_z
 _atom_site_occupancy
 _atom_site_pbe_bader_charge
 _atom_site_pbe_bader_spin_density
 _atom_site_pbe_cm5_charge
 _atom_site_pbe_ddec_charge
 _atom_site_pbe_ddec_spin_density
 _atom_site_pbe_ddec_sum_bond_order
 _atom_site_pbe_magmom
Dy  Dy0  1  0.81587487  0.75435373  0.31298855  1  2.187037  0  1.551948  2.103164  0  2.216567  0
Dy  Dy1  1  0.23180759  0.74869673  0.42035160  1  2.17673  0  1.524821  2.061185  0  2.16551  0
Dy  Dy2  1  0.18412000  0.24564455  0.81298232  1  2.187151  0  1.552018  2.10332  0  2.216433  0
Dy  Dy3  1  0.76818088  0.25130290  0.92034351  1  2.176769  0  1.524789  2.061236  0  2.165464  0
Ni  Ni4  1  0.27709077  0.23952808  0.31441857  1  0.909897  0  0.602403  0.412374  0  2.766004  0
Ni  Ni5  1  0.77744655  0.26426485  0.40744697  1  0.907452  0  0.599305  0.4113  0  2.756722  0
Ni  Ni6  1  0.72290741  0.76046974  0.81441785  1  0.910015  0  0.602344  0.412287  0  2.765829  0
Ni  Ni7  1  0.22255097  0.73573475  0.90744061  1  0.907668  0  0.599256  0.411478  0  2.756012  0
H  H8  1  0.33195205  0.04186569  0.20990403  1  0.100761  0  0.107959  0.129588  0  1.010367  0
H  H9  1  0.21124252  0.12322275  0.15033595  1  0.085684  0  0.103862  0.121915  0  1.023836  0
H  H10  1  0.19597620  0.37223957  0.16160361  1  0.090589  0  0.106673  0.126085  0  1.01478  0
H  H11  1  0.17699536  0.45182434  0.23676902  1  0.058383  0  0.101411  0.114701  0  1.035253  0
H  H12  1  0.05302212  0.40357355  0.42192235  1  0.092207  0  0.108513  0.131454  0  0.999712  0
H  H13  1  0.13293475  0.31514954  0.48349424  1  0.091049  0  0.10516  0.122768  0  1.020752  0
H  H14  1  0.50200498  0.13653317  0.46315075  1  0.107842  0  0.105604  0.125743  0  1.015261  0
H  H15  1  0.57108217  0.06639554  0.38717730  1  0.098247  0  0.105117  0.121933  0  1.02092  0
H  H16  1  0.94882200  0.17886562  0.15982031  1  0.047685  0  0.099554  0.101161  0  1.014162  0
H  H17  1  0.83961525  0.17899570  0.07701826  1  0.080735  0  0.106016  0.113831  0  0.9991  0
H  H18  1  0.24218764  0.30496071  0.03010895  1  0.08933  0  0.107949  0.114271  0  0.986533  0
H  H19  1  0.35068266  0.30600675  0.11294196  1  0.077916  0  0.101197  0.103751  0  1.024748  0
H  H20  1  0.91254025  0.43263121  0.28491168  1  0.069409  0  0.097764  0.098842  0  1.046112  0
H  H21  1  0.84846646  0.54289586  0.29169424  1  0.084778  0  0.106896  0.110304  0  1.004623  0
H  H22  1  0.22253967  0.58880290  0.39145557  1  0.089523  0  0.105469  0.097276  0  1.076934  0
H  H23  1  0.29375643  0.48002411  0.38332430  1  0.045749  0  0.097318  0.096029  0  1.05597  0
H  H24  1  0.18710888  0.12920929  0.49477305  1  0.073854  0  0.09588  0.095296  0  1.044744  0
H  H25  1  0.19736669  0.12339899  0.58380789  1  0.086245  0  0.106079  0.111154  0  0.994353  0
H  H26  1  0.45312387  0.31155976  0.58855952  1  0.100466  0  0.103411  0.10582  0  1.005959  0
H  H27  1  0.44518621  0.31736998  0.49888073  1  0.072824  0  0.09823  0.099216  0  1.040844  0
H  H28  1  0.27773078  0.16148040  0.70067684  1  0.654509  0  0.308014  0.380127  0  0.953036  0
H  H29  1  0.33648152  0.99533189  0.35578017  1  0.093386  0  0.097691  0.098102  0  1.05884  0
H  H30  1  0.43404012  0.89175369  0.35267630  1  0.130049  0  0.11574  0.119017  0  1.017618  0
H  H31  1  0.70909748  0.95427518  0.22801909  1  0.096725  0  0.109072  0.11466  0  0.987298  0
H  H32  1  0.62026113  0.06044661  0.23387240  1  0.041671  0  0.101455  0.104676  0  1.00192  0
H  H33  1  0.70987084  0.45423642  0.51930479  1  0.071241  0  0.106544  0.127835  0  1.009391  0
H  H34  1  0.80594630  0.36538503  0.57788012  1  0.079735  0  0.105217  0.12268  0  1.017579  0
H  H35  1  0.82964131  0.11939394  0.55502395  1  0.084659  0  0.10629  0.125668  0  1.014723  0
H  H36  1  0.87925194  0.04775004  0.47745520  1  0.090445  0  0.100234  0.113352  0  1.04173  0
H  H37  1  0.00823249  0.10827596  0.29376451  1  0.118941  0  0.108026  0.130271  0  1.009763  0
H  H38  1  0.90384786  0.19473441  0.23511378  1  0.067988  0  0.10112  0.113771  0  1.047703  0
H  H39  1  0.55244447  0.37524340  0.26226928  1  0.099876  0  0.10592  0.126453  0  1.012105  0
H  H40  1  0.50015532  0.44647289  0.33966057  1  0.082395  0  0.101686  0.114409  0  1.04263  0
H  H41  1  0.05560947  0.30123071  0.58427015  1  0.074409  0  0.098958  0.101157  0  1.008172  0
H  H42  1  0.08651854  0.29043410  0.67315598  1  0.118728  0  0.107981  0.114427  0  1.006857  0
H  H43  1  0.64615062  0.17060739  0.68046060  1  0.108108  0  0.10365  0.107639  0  1.007885  0
H  H44  1  0.61674628  0.17916405  0.59119178  1  0.025047  0  0.098461  0.099968  0  1.020678  0
H  H45  1  0.80254260  0.03058567  0.32591899  1  0.095528  0  0.096658  0.096584  0  1.055904  0
H  H46  1  0.87898694  0.92292885  0.31742294  1  0.107753  0  0.106828  0.100062  0  1.057601  0
H  H47  1  0.19853464  0.95997898  0.43477236  1  0.087779  0  0.110748  0.11808  0  0.981944  0
H  H48  1  0.14187950  0.07166041  0.43856031  1  0.058839  0  0.096857  0.096246  0  1.045774  0
H  H49  1  0.86948376  0.37638054  0.22855136  1  0.073389  0  0.095165  0.094217  0  1.049621  0
H  H50  1  0.83922724  0.38821699  0.14034008  1  0.093537  0  0.105697  0.110391  0  0.995349  0
H  H51  1  0.53980270  0.20932371  0.13565539  1  0.069665  0  0.100978  0.098059  0  1.021447  0
H  H52  1  0.57664770  0.19568890  0.22386668  1  0.089757  0  0.098855  0.102227  0  1.04425  0
H  H53  1  0.73626014  0.35422365  0.02373172  1  0.673379  0  0.307643  0.376518  0  0.958819  0
H  H54  1  0.74586745  0.51786475  0.38036293  1  0.088576  0  0.099154  0.101911  0  1.043426  0
H  H55  1  0.64627750  0.62064390  0.38838692  1  0.110394  0  0.112426  0.110713  0  1.034379  0
H  H56  1  0.31652775  0.53857825  0.49478718  1  0.109824  0  0.10946  0.115757  0  0.987306  0
H  H57  1  0.41519971  0.43486378  0.48583596  1  0.084682  0  0.102648  0.106854  0  1.00651  0
H  H58  1  0.41728958  0.72068557  0.24811675  1  0.154917  0  0.13374  0.062555  0  1.005911  0
H  H59  1  0.28243705  0.59012773  0.18926548  1  0.050263  0  0.105475  0.11511  0  0.974451  0
H  H60  1  0.22421284  0.65903054  0.21660245  1  0.077603  0  0.113572  0.128029  0  1.017596  0
H  H61  1  0.17335403  0.58304707  0.24429420  1  0.067826  0  0.102445  0.115196  0  1.011714  0
H  H62  1  0.39892453  0.54026356  0.29300132  1  0.075812  0  0.100215  0.112922  0  1.023605  0
H  H63  1  0.58898837  0.58286464  0.28223435  1  0.134886  0  0.118525  0.141486  0  1.001985  0
H  H64  1  0.48625297  0.53672345  0.23498068  1  0.055276  0  0.106373  0.115869  0  0.979012  0
H  H65  1  0.43437606  0.82274080  0.51450256  1  0.184704  0  0.130824  0.067369  0  1.030591  0
H  H66  1  0.77048168  0.94059713  0.44799749  1  0.069488  0  0.098625  0.108848  0  1.007381  0
H  H67  1  0.70698486  0.86652166  0.41840250  1  0.137958  0  0.118196  0.145464  0  1.011486  0
H  H68  1  0.86604539  0.87311659  0.46003953  1  0.061197  0  0.107247  0.12401  0  0.991665  0
H  H69  1  0.60331085  0.86506192  0.56489392  1  0.075067  0  0.112353  0.124623  0  1.002195  0
H  H70  1  0.71305492  0.93795092  0.54426977  1  0.057192  0  0.102159  0.112764  0  0.979832  0
H  H71  1  0.80194018  0.86696219  0.54812011  1  0.077142  0  0.101393  0.113938  0  1.016743  0
H  H72  1  0.64775534  0.72178284  0.40510154  1  0.66658  0  0.306694  0.418008  0  0.906098  0
H  H73  1  0.82786901  0.73200408  0.42212790  1  0.669547  0  0.308802  0.42346  0  0.896249  0
H  H74  1  0.43968187  0.79103200  0.34191377  1  0.647861  0  0.305028  0.408468  0  0.925454  0
H  H75  1  0.27604320  0.78189250  0.31377441  1  0.661994  0  0.296866  0.407899  0  0.929395  0
H  H76  1  0.66805212  0.95813981  0.70989785  1  0.100536  0  0.107914  0.129555  0  1.010259  0
H  H77  1  0.78876857  0.87677446  0.65033155  1  0.085473  0  0.103831  0.121891  0  1.023924  0
H  H78  1  0.80402451  0.62775718  0.66160057  1  0.09045  0  0.1067  0.126125  0  1.014924  0
H  H79  1  0.82300618  0.54816890  0.73676477  1  0.058638  0  0.101419  0.114672  0  1.035253  0
H  H80  1  0.94698738  0.59643041  0.92191797  1  0.092324  0  0.108504  0.131512  0  0.999547  0
H  H81  1  0.86707025  0.68485608  0.98350181  1  0.090857  0  0.105175  0.122848  0  1.020487  0
H  H82  1  0.49799142  0.86346807  0.96315573  1  0.10774  0  0.105618  0.125768  0  1.015158  0
H  H83  1  0.42892241  0.93359830  0.88717298  1  0.098361  0  0.105107  0.121936  0  1.020966  0
H  H84  1  0.05117967  0.82113065  0.65982436  1  0.047739  0  0.099607  0.10122  0  1.01407  0
H  H85  1  0.16039524  0.82100217  0.57702171  1  0.08076  0  0.106071  0.113893  0  0.99906  0
H  H86  1  0.75781387  0.69503601  0.53010995  1  0.089491  0  0.107959  0.114327  0  0.986491  0
H  H87  1  0.64932252  0.69399125  0.61294571  1  0.078026  0  0.101224  0.103801  0  1.024716  0
H  H88  1  0.08746646  0.56736556  0.78491062  1  0.069347  0  0.097763  0.098841  0  1.046189  0
H  H89  1  0.15153966  0.45710236  0.79169088  1  0.085158  0  0.106918  0.110329  0  1.004606  0
H  H90  1  0.77745833  0.41119522  0.89145102  1  0.090855  0  0.105451  0.097242  0  1.077059  0
H  H91  1  0.70624965  0.51997779  0.88331879  1  0.045896  0  0.097351  0.096124  0  1.056051  0
H  H92  1  0.81289383  0.87079256  0.99477191  1  0.073753  0  0.095848  0.095213  0  1.044785  0
H  H93  1  0.80263741  0.87660365  0.08380570  1  0.086268  0  0.106125  0.111165  0  0.994423  0
H  H94  1  0.54687096  0.68843908  0.08855597  1  0.100483  0  0.103412  0.105801  0  1.005964  0
H  H95  1  0.55481886  0.68263189  0.99887860  1  0.072832  0  0.098257  0.099216  0  1.040903  0
H  H96  1  0.72226975  0.83851793  0.20067665  1  0.654503  0  0.308052  0.380084  0  0.953038  0
H  H97  1  0.66352028  0.00466846  0.85577510  1  0.093604  0  0.09768  0.098097  0  1.058699  0
H  H98  1  0.56595898  0.10824903  0.85267131  1  0.130247  0  0.115754  0.119115  0  1.017613  0
H  H99  1  0.29089763  0.04572324  0.72801404  1  0.09713  0  0.109063  0.114684  0  0.987334  0
H  H100  1  0.37973683  0.93955327  0.73386803  1  0.041882  0  0.101495  0.104702  0  1.001887  0
H  H101  1  0.29012399  0.54575788  0.01929926  1  0.070698  0  0.106586  0.127931  0  1.009327  0
H  H102  1  0.19404132  0.63461327  0.07788292  1  0.080304  0  0.105156  0.122633  0  1.017635  0
H  H103  1  0.17037109  0.88061383  0.05503042  1  0.084469  0  0.106274  0.125655  0  1.01468  0
H  H104  1  0.12076735  0.95225035  0.97745093  1  0.090471  0  0.100208  0.113321  0  1.041858  0
H  H105  1  0.99175205  0.89172650  0.79375569  1  0.118751  0  0.10807  0.130262  0  1.009678  0
H  H106  1  0.09613943  0.80526451  0.73511101  1  0.067985  0  0.10113  0.113851  0  1.047777  0
H  H107  1  0.44755910  0.62475850  0.76226800  1  0.099794  0  0.105894  0.126465  0  1.012194  0
H  H108  1  0.49986117  0.55352031  0.83965166  1  0.082132  0  0.101608  0.114419  0  1.042431  0
H  H109  1  0.94438808  0.69876954  0.08426850  1  0.074359  0  0.098947  0.101154  0  1.008178  0
H  H110  1  0.91348326  0.70956555  0.17315324  1  0.118744  0  0.108025  0.114481  0  1.006848  0
H  H111  1  0.35385307  0.82939419  0.18046034  1  0.108018  0  0.103669  0.107698  0  1.007845  0
H  H112  1  0.38325413  0.82083766  0.09119262  1  0.025127  0  0.098443  0.099969  0  1.020671  0
H  H113  1  0.19745799  0.96941552  0.82591484  1  0.095505  0  0.096663  0.096568  0  1.055885  0
H  H114  1  0.12101898  0.07707137  0.81741813  1  0.107608  0  0.106832  0.100143  0  1.057506  0
H  H115  1  0.80146863  0.04002311  0.93476751  1  0.087512  0  0.110732  0.118029  0  0.981772  0
H  H116  1  0.85813355  0.92833982  0.93855645  1  0.059008  0  0.096852  0.096222  0  1.045703  0
H  H117  1  0.13051195  0.62362311  0.72855045  1  0.073312  0  0.095154  0.094206  0  1.049565  0
H  H118  1  0.16077070  0.61178253  0.64033594  1  0.093552  0  0.105719  0.110401  0  0.995332  0
H  H119  1  0.46021261  0.79067630  0.63565371  1  0.06966  0  0.100954  0.098048  0  1.02147  0
H  H120  1  0.42335311  0.80430953  0.72386750  1  0.089767  0  0.098843  0.102247  0  1.04424  0
H  H121  1  0.26373967  0.64577162  0.52373424  1  0.673416  0  0.307601  0.376551  0  0.958783  0
H  H122  1  0.25413088  0.48213474  0.88035686  1  0.08848  0  0.099186  0.102029  0  1.043253  0
H  H123  1  0.35371057  0.37935561  0.88838005  1  0.111536  0  0.112467  0.110815  0  1.03435  0
H  H124  1  0.68347548  0.46142170  0.99478154  1  0.109613  0  0.10948  0.115831  0  0.987338  0
H  H125  1  0.58480190  0.56513851  0.98582968  1  0.084444  0  0.102603  0.106817  0  1.006574  0
H  H126  1  0.58270920  0.27931626  0.74811210  1  0.154868  0  0.133743  0.062443  0  1.006042  0
H  H127  1  0.71756952  0.40987532  0.68926626  1  0.050231  0  0.105465  0.115105  0  0.974513  0
H  H128  1  0.77578915  0.34097166  0.71660209  1  0.077658  0  0.113533  0.12801  0  1.017626  0
H  H129  1  0.82664537  0.41695332  0.74429547  1  0.067802  0  0.102446  0.11522  0  1.011806  0
H  H130  1  0.60108307  0.45973561  0.79300278  1  0.075726  0  0.100262  0.112984  0  1.023585  0
H  H131  1  0.41101660  0.41713734  0.78223624  1  0.134843  0  0.118521  0.141493  0  1.001943  0
H  H132  1  0.51375088  0.46328025  0.73498278  1  0.055036  0  0.106384  0.115868  0  0.97901  0
H  H133  1  0.56562947  0.17726157  0.01450096  1  0.184732  0  0.130792  0.067352  0  1.030518  0
H  H134  1  0.22950928  0.05940214  0.94799673  1  0.069498  0  0.098633  0.10886  0  1.007268  0
H  H135  1  0.29300097  0.13347701  0.91840302  1  0.137966  0  0.118229  0.145612  0  1.01142  0
H  H136  1  0.13394834  0.12688368  0.96003914  1  0.061102  0  0.107275  0.124021  0  0.991652  0
H  H137  1  0.39669479  0.13494255  0.06489170  1  0.075069  0  0.112347  0.124621  0  1.002144  0
H  H138  1  0.28694685  0.06205299  0.04426801  1  0.057316  0  0.102187  0.112827  0  0.979849  0
H  H139  1  0.19806346  0.13304031  0.04811947  1  0.077134  0  0.101423  0.113979  0  1.016841  0
H  H140  1  0.35224215  0.27821676  0.90509592  1  0.666619  0  0.306756  0.418097  0  0.905971  0
H  H141  1  0.17212262  0.26799461  0.92212385  1  0.669611  0  0.308783  0.423507  0  0.896188  0
H  H142  1  0.56031336  0.20896639  0.84190789  1  0.64803  0  0.305024  0.408367  0  0.925599  0
H  H143  1  0.72394719  0.21810957  0.81377016  1  0.661975  0  0.296886  0.407894  0  0.929409  0
C  C144  1  0.34406793  0.12286226  0.26219946  1  0.36917  0  0.088234  0.168207  0  4.061518  0
C  C145  1  0.31065192  0.09000697  0.21724268  1  -0.095862  0  -0.105788  -0.188109  0  4.002789  0
C  C146  1  0.24844133  0.13071469  0.18738934  1  -0.034379  0  -0.106855  -0.184538  0  4.003273  0
C  C147  1  0.24391637  0.18859636  0.21389450  1  0.370428  0  0.087486  0.16802  0  4.052385  0
C  C148  1  0.21098980  0.24478778  0.19304817  1  0.019098  0  0.002761  -0.065853  0  3.975634  0
C  C149  1  0.21800698  0.30074796  0.21968758  1  0.440245  0  0.091283  0.177462  0  4.03486  0
C  C150  1  0.20189928  0.36194549  0.19972134  1  -0.045751  0  -0.103341  -0.179043  0  3.995616  0
C  C151  1  0.19156380  0.40199174  0.23760442  1  -0.056489  0  -0.108343  -0.193081  0  4.017999  0
C  C152  1  0.19538878  0.36475051  0.28074303  1  0.347236  0  0.090487  0.174832  0  4.049971  0
C  C153  1  0.15811005  0.38520117  0.32639878  1  0.096721  0  0.000315  -0.06881  0  3.978816  0
C  C154  1  0.16531044  0.34735359  0.36700660  1  0.392196  0  0.093701  0.17776  0  4.04316  0
C  C155  1  0.11432552  0.36371604  0.41411761  1  -0.029473  0  -0.09869  -0.180219  0  3.998732  0
C  C156  1  0.15489292  0.31926638  0.44515587  1  -0.073403  0  -0.099748  -0.177925  0  4.001204  0
C  C157  1  0.23136154  0.27576296  0.41718254  1  0.380786  0  0.094314  0.180864  0  4.027512  0
C  C158  1  0.30613440  0.22803921  0.43704697  1  0.066626  0  0.00454  -0.062052  0  3.958791  0
C  C159  1  0.37351472  0.18594476  0.40796824  1  0.374073  0  0.092455  0.170305  0  4.05833  0
C  C160  1  0.46619940  0.14003757  0.42597031  1  -0.022225  0  -0.100703  -0.183622  0  4.006168  0
C  C161  1  0.50086714  0.10464756  0.38763695  1  -0.080534  0  -0.099678  -0.171235  0  3.98891  0
C  C162  1  0.42759281  0.12797642  0.34604031  1  0.413442  0  0.093934  0.182579  0  4.015146  0
C  C163  1  0.41712405  0.09797501  0.30116561  1  0.015247  0  -4.7e-05  -0.070293  0  3.962193  0
C  C164  1  0.15621102  0.24350356  0.14233548  1  -0.003288  0  0.001678  0.090734  0  3.992389  0
C  C165  1  0.01361629  0.20630136  0.13137892  1  -0.028219  0  -0.092089  -0.142415  0  4.001347  0
C  C166  1  0.95264323  0.20588703  0.08525359  1  -0.011882  0  -0.085998  -0.092938  0  3.999  0
C  C167  1  0.03336265  0.24204239  0.04853918  1  -0.076749  0  -0.020655  -0.040493  0  3.983905  0
C  C168  1  0.17773090  0.27767792  0.05868693  1  -0.071149  0  -0.075826  -0.069892  0  3.944381  0
C  C169  1  0.23799352  0.27854871  0.10528938  1  0.034348  0  -0.087084  -0.131014  0  3.96599  0
C  C170  1  0.95511616  0.24361187  0.00098125  1  1.550034  0  0.196075  0.579437  0  4.221498  0
C  C171  1  0.11166167  0.44926313  0.33208634  1  0.02486  0  0.002166  0.09508  0  3.986136  0
C  C172  1  0.98450644  0.46748814  0.30698697  1  -0.020217  0  -0.089717  -0.136546  0  3.973574  0
C  C173  1  0.94674264  0.52875772  0.31126967  1  -0.109339  0  -0.083723  -0.095617  0  4.000695  0
C  C174  1  0.03423373  0.57313067  0.34144541  1  -0.026263  0  -0.016664  -0.046787  0  3.964811  0
C  C175  1  0.15785245  0.55461293  0.36747220  1  0.011976  0  -0.080789  -0.078641  0  3.966828  0
C  C176  1  0.19672928  0.49368462  0.36287815  1  -0.087183  0  -0.089549  -0.141114  0  3.982023  0
C  C177  1  0.99616852  0.63930335  0.34611561  1  1.570918  0  0.236587  0.657949  0  4.152395  0
C  C178  1  0.31591451  0.22358593  0.49037573  1  -0.023465  0  0.00501  0.100385  0  3.961819  0
C  C179  1  0.24852433  0.16885745  0.51501946  1  -0.00505  0  -0.089023  -0.128296  0  3.966866  0
C  C180  1  0.25297902  0.16559474  0.56505901  1  -0.089204  0  -0.084211  -0.089325  0  3.976389  0
C  C181  1  0.32603163  0.21726842  0.59180933  1  -0.001065  0  -0.019708  -0.052055  0  4.00305  0
C  C182  1  0.39459960  0.27196719  0.56751475  1  -0.076816  0  -0.082276  -0.090965  0  3.986057  0
C  C183  1  0.38966654  0.27507272  0.51754538  1  -0.023215  0  -0.087878  -0.128646  0  3.960854  0
C  C184  1  0.33229169  0.21631151  0.64547500  1  1.521383  0  0.226822  0.574835  0  4.145906  0
C  C185  1  0.47304686  0.03552905  0.29580056  1  0.010882  0  0.004832  0.099563  0  3.975365  0
C  C186  1  0.42028593  0.98664348  0.32836479  1  -0.06182  0  -0.086265  -0.128491  0  3.959479  0
C  C187  1  0.47316294  0.92814519  0.32610142  1  -0.026997  0  -0.072589  -0.061744  0  3.918385  0
C  C188  1  0.57765926  0.91604183  0.28991053  1  -0.043093  0  -0.017108  -0.041194  0  3.977157  0
C  C189  1  0.62660067  0.96346344  0.25585524  1  -0.034537  0  -0.079192  -0.08507  0  3.960782  0
C  C190  1  0.57618280  0.02282645  0.25908199  1  -0.066078  0  -0.087657  -0.141202  0  3.977685  0
C  C191  1  0.64619018  0.85594119  0.29188699  1  1.526816  0  0.208573  0.575492  0  4.207713  0
C  C192  1  0.70905779  0.37830154  0.46329759  1  0.414532  0  0.086811  0.16624  0  4.070314  0
C  C193  1  0.73129635  0.40658047  0.51031651  1  -0.013157  0  -0.106736  -0.189446  0  4.006917  0
C  C194  1  0.78077378  0.36208232  0.53966590  1  -0.136876  0  -0.103877  -0.178528  0  4.00251  0
C  C195  1  0.79027309  0.30673217  0.51056373  1  0.415816  0  0.088553  0.168305  0  4.056448  0
C  C196  1  0.81442092  0.24810354  0.52921617  1  0.065726  0  0.002797  -0.064683  0  3.985626  0
C  C197  1  0.82070373  0.19559129  0.49974218  1  0.42709  0  0.089428  0.172767  0  4.050018  0
C  C198  1  0.83556180  0.13310671  0.51740908  1  -0.062748  0  -0.104338  -0.18261  0  4.003766  0
C  C199  1  0.86148299  0.09722477  0.47835222  1  -0.103065  0  -0.107725  -0.19004  0  4.015664  0
C  C200  1  0.86672121  0.13818470  0.43690034  1  0.401516  0  0.091366  0.176435  0  4.04162  0
C  C201  1  0.91079686  0.12123530  0.39088140  1  -0.002001  0  0.001576  -0.068761  0  3.975224  0
C  C202  1  0.89761910  0.16063672  0.35145601  1  0.416064  0  0.093899  0.177157  0  4.036641  0
C  C203  1  0.94322488  0.14638175  0.30325724  1  -0.031893  0  -0.098779  -0.180865  0  4.005478  0
C  C204  1  0.89025961  0.18966247  0.27370267  1  -0.054046  0  -0.1033  -0.180183  0  4.003849  0
C  C205  1  0.81539894  0.23138275  0.30367622  1  0.381022  0  0.093339  0.183538  0  4.036541  0
C  C206  1  0.73868543  0.27951541  0.28561514  1  0.036707  0  0.003078  -0.065339  0  3.969222  0
C  C207  1  0.67762026  0.32197907  0.31589897  1  0.406259  0  0.091825  0.16899  0  4.062513  0
C  C208  1  0.59017830  0.37041495  0.29913261  1  -0.04619  0  -0.101309  -0.182181  0  4.003466  0
C  C209  1  0.56379675  0.40620388  0.33812683  1  -0.067486  0  -0.103624  -0.177814  0  3.995748  0
C  C210  1  0.63486044  0.37989378  0.37889524  1  0.430474  0  0.092  0.182941  0  4.027072  0
C  C211  1  0.64427106  0.40713222  0.42463777  1  0.009702  0  -0.002339  -0.074596  0  3.977336  0
C  C212  1  0.83337837  0.24131634  0.58199710  1  -0.06699  0  -0.000817  0.092657  0  3.997298  0
C  C213  1  0.96549043  0.27275988  0.60538983  1  -0.036279  0  -0.092577  -0.140135  0  3.987451  0
C  C214  1  0.98299820  0.26694504  0.65495642  1  -0.067703  0  -0.085606  -0.089617  0  3.978675  0
C  C215  1  0.86728318  0.23032324  0.68207838  1  -0.044389  0  -0.02293  -0.055006  0  3.988703  0
C  C216  1  0.73564595  0.19856839  0.65884942  1  -0.03289  0  -0.084935  -0.086771  0  3.986352  0
C  C217  1  0.71963260  0.20350692  0.60922632  1  0.019696  0  -0.092684  -0.137464  0  3.981594  0
C  C218  1  0.88052543  0.22650437  0.73578077  1  1.582963  0  0.224797  0.623398  0  4.192762  0
C  C219  1  0.96314119  0.05846452  0.38398334  1  -0.045502  0  0.00247  0.096664  0  3.974745  0
C  C220  1  0.89242593  0.01607029  0.34905790  1  -0.036679  0  -0.089225  -0.135181  0  3.96581  0
C  C221  1  0.93236192  0.95525528  0.34484453  1  -0.035349  0  -0.079454  -0.077646  0  3.963563  0
C  C222  1  0.03800036  0.93381788  0.37675841  1  -0.018765  0  -0.014312  -0.045082  0  3.959052  0
C  C223  1  0.11333409  0.97634638  0.41068931  1  -0.068149  0  -0.081689  -0.092196  0  3.988541  0
C  C224  1  0.07887234  0.03822040  0.41337723  1  -0.029577  0  -0.089255  -0.135434  0  3.975458  0
C  C225  1  0.06138116  0.86550207  0.37657227  1  1.573231  0  0.239316  0.660105  0  4.154865  0
C  C226  1  0.72222244  0.28591846  0.23258981  1  -0.042794  0  0.005003  0.10284  0  3.964847  0
C  C227  1  0.79537623  0.34003398  0.20843022  1  -0.021988  0  -0.090203  -0.132227  0  3.974528  0
C  C228  1  0.77920414  0.34675638  0.15895074  1  -0.062915  0  -0.084354  -0.085892  0  3.978935  0
C  C229  1  0.68555393  0.29989899  0.13256000  1  0.001257  0  -0.021077  -0.053386  0  4.007532  0
C  C230  1  0.61298939  0.24549423  0.15634561  1  -0.003572  0  -0.08327  -0.088946  0  3.988863  0
C  C231  1  0.63307515  0.23808521  0.20559689  1  -0.050903  0  -0.087751  -0.130288  0  3.956126  0
C  C232  1  0.66007245  0.30652187  0.07990434  1  1.499127  0  0.224736  0.571304  0  4.140901  0
C  C233  1  0.58726797  0.46911106  0.43221217  1  -0.046029  0  0.00505  0.097728  0  3.984393  0
C  C234  1  0.65180357  0.52245076  0.40544799  1  -0.073142  0  -0.086743  -0.129877  0  3.957027  0
C  C235  1  0.59676566  0.58042011  0.41036202  1  -0.016668  0  -0.076532  -0.071509  0  3.935727  0
C  C236  1  0.47558870  0.58680156  0.44262874  1  -0.042187  0  -0.020208  -0.049815  0  3.985396  0
C  C237  1  0.41276692  0.53418196  0.47041806  1  -0.03394  0  -0.079559  -0.082067  0  3.963442  0
C  C238  1  0.46817113  0.47606550  0.46532153  1  -0.086073  0  -0.087188  -0.139286  0  3.973986  0
C  C239  1  0.40416326  0.64651638  0.44239407  1  1.523344  0  0.20738  0.571034  0  4.217428  0
C  C240  1  0.47717347  0.68180766  0.26144704  1  1.383162  0  0.205649  0.374982  0  4.032285  0
C  C241  1  0.26375516  0.61324288  0.22383378  1  0.275327  0  -0.122754  -0.263908  0  3.899058  0
C  C242  1  0.47468464  0.56738958  0.26627779  1  0.20088  0  -0.128068  -0.266788  0  3.875062  0
C  C243  1  0.50483601  0.83605151  0.48225094  1  1.328914  0  0.188128  0.325947  0  4.052575  0
C  C244  1  0.75337245  0.88855150  0.45198385  1  0.224969  0  -0.133235  -0.274513  0  3.880733  0
C  C245  1  0.69356314  0.88591854  0.53973653  1  0.248476  0  -0.12646  -0.272515  0  3.929936  0
C  C246  1  0.65592530  0.87713629  0.76219420  1  0.369383  0  0.088248  0.168154  0  4.061341  0
C  C247  1  0.68934516  0.90999427  0.71723607  1  -0.095778  0  -0.105855  -0.188092  0  4.002303  0
C  C248  1  0.75156264  0.86928407  0.68738489  1  -0.034375  0  -0.106732  -0.184545  0  4.003333  0
C  C249  1  0.75608595  0.81140345  0.71389175  1  0.370478  0  0.087445  0.168007  0  4.052735  0
C  C250  1  0.78901194  0.75521100  0.69304858  1  0.019062  0  0.00276  -0.06582  0  3.975641  0
C  C251  1  0.78199462  0.69924950  0.71968537  1  0.440309  0  0.091187  0.177405  0  4.034705  0
C  C252  1  0.79810191  0.63805141  0.69971795  1  -0.046028  0  -0.103249  -0.179044  0  3.995535  0
C  C253  1  0.80843509  0.59800388  0.73760133  1  -0.056622  0  -0.108424  -0.193105  0  4.017872  0
C  C254  1  0.80460453  0.63524764  0.78074000  1  0.347454  0  0.09053  0.174877  0  4.049969  0
C  C255  1  0.84188657  0.61480191  0.82639684  1  0.096554  0  0.000291  -0.068789  0  3.978755  0
C  C256  1  0.83467800  0.65264774  0.86700508  1  0.391717  0  0.093608  0.177512  0  4.043537  0
C  C257  1  0.88566697  0.63628548  0.91411683  1  -0.029495  0  -0.098622  -0.180131  0  3.998458  0
C  C258  1  0.84510376  0.68073289  0.94515981  1  -0.073478  0  -0.099805  -0.178116  0  4.000967  0
C  C259  1  0.76863464  0.72423572  0.91718432  1  0.381027  0  0.094339  0.180857  0  4.027651  0
C  C260  1  0.69386548  0.77195956  0.93704660  1  0.066307  0  0.004528  -0.062094  0  3.958774  0
C  C261  1  0.62649464  0.81405581  0.90796787  1  0.373989  0  0.092473  0.170395  0  4.058314  0
C  C262  1  0.53380673  0.85996306  0.92597172  1  -0.022074  0  -0.100636  -0.18363  0  4.005964  0
C  C263  1  0.49914300  0.89534914  0.88763371  1  -0.08048  0  -0.099674  -0.171217  0  3.988796  0
C  C264  1  0.57241450  0.87202011  0.84603639  1  0.413991  0  0.093882  0.182452  0  4.015335  0
C  C265  1  0.58287432  0.90202038  0.80116175  1  0.014908  0  -3.4e-05  -0.070193  0  3.962169  0
C  C266  1  0.84378924  0.75649597  0.64233596  1  -0.003045  0  0.001689  0.09082  0  3.992412  0
C  C267  1  0.98638483  0.79369765  0.63138142  1  -0.028472  0  -0.092136  -0.142509  0  4.001302  0
C  C268  1  0.04736009  0.79411323  0.58525686  1  -0.011665  0  -0.086071  -0.09306  0  3.999114  0
C  C269  1  0.96664204  0.75795631  0.54854196  1  -0.076989  0  -0.020549  -0.040295  0  3.984074  0
C  C270  1  0.82227162  0.72232081  0.55868733  1  -0.071235  0  -0.075874  -0.069969  0  3.944315  0
C  C271  1  0.76200942  0.72144973  0.60529043  1  0.03401  0  -0.08718  -0.131209  0  3.966083  0
C  C272  1  0.04488495  0.75638807  0.50098589  1  1.549937  0  0.196014  0.579306  0  4.221888  0
C  C273  1  0.88834523  0.55073953  0.83208505  1  0.024788  0  0.002147  0.095111  0  3.986059  0
C  C274  1  0.01549606  0.53251251  0.80698397  1  -0.020249  0  -0.089678  -0.136493  0  3.973591  0
C  C275  1  0.05326075  0.47124200  0.81126443  1  -0.108294  0  -0.08375  -0.095704  0  4.000629  0
C  C276  1  0.96576689  0.42687011  0.84143930  1  -0.028243  0  -0.016737  -0.046855  0  3.96484  0
C  C277  1  0.84214902  0.44538605  0.86746706  1  0.011101  0  -0.080732  -0.078521  0  3.966699  0
C  C278  1  0.80327376  0.50631577  0.86287417  1  -0.087131  0  -0.08959  -0.141281  0  3.98207  0
C  C279  1  0.00382855  0.36069697  0.84611083  1  1.570889  0  0.236488  0.657886  0  4.152805  0
C  C280  1  0.68409112  0.77641448  0.99037679  1  -0.023369  0  0.004983  0.10034  0  3.961611  0
C  C281  1  0.75148137  0.83114539  0.01501856  1  -0.005162  0  -0.08898  -0.12813  0  3.966895  0
C  C282  1  0.74702730  0.83440831  0.06505811  1  -0.089259  0  -0.084275  -0.089443  0  3.976581  0
C  C283  1  0.67397011  0.78273377  0.09180681  1  -0.000921  0  -0.019689  -0.051942  0  4.002814  0
C  C284  1  0.60540219  0.72803253  0.06751494  1  -0.076978  0  -0.082224  -0.09087  0  3.986095  0
C  C285  1  0.61033446  0.72492633  0.01754557  1  -0.023207  0  -0.08793  -0.128727  0  3.960928  0
C  C286  1  0.66770894  0.78368898  0.14547428  1  1.521426  0  0.226833  0.574852  0  4.145879  0
C  C287  1  0.52694747  0.96446821  0.79579568  1  0.010426  0  0.004992  0.099601  0  3.975341  0
C  C288  1  0.57971390  0.01335534  0.82835929  1  -0.061395  0  -0.086259  -0.128404  0  3.959303  0
C  C289  1  0.52683586  0.07185409  0.82609560  1  -0.027331  0  -0.072604  -0.061907  0  3.918334  0
C  C290  1  0.42233663  0.08395684  0.78990354  1  -0.042945  0  -0.017178  -0.041302  0  3.977387  0
C  C291  1  0.37339940  0.03653511  0.75584811  1  -0.035318  0  -0.079206  -0.085193  0  3.961136  0
C  C292  1  0.42381862  0.97717259  0.75907522  1  -0.066448  0  -0.087719  -0.141138  0  3.977806  0
C  C293  1  0.35380803  0.14405749  0.79188076  1  1.526252  0  0.208618  0.575652  0  4.207598  0
C  C294  1  0.29094405  0.62169876  0.96329577  1  0.414541  0  0.086701  0.166143  0  4.070268  0
C  C295  1  0.26870146  0.59341617  0.01031464  1  -0.012907  0  -0.106733  -0.189575  0  4.00675  0
C  C296  1  0.21922245  0.63791206  0.03966730  1  -0.137167  0  -0.103827  -0.178416  0  4.002299  0
C  C297  1  0.20972866  0.69326590  0.01056522  1  0.415809  0  0.088594  0.168373  0  4.056256  0
C  C298  1  0.18558301  0.75189699  0.02921847  1  0.065869  0  0.002752  -0.064965  0  3.985925  0
C  C299  1  0.17930084  0.80441248  0.99974526  1  0.427274  0  0.089466  0.172825  0  4.050075  0
C  C300  1  0.16444503  0.86689948  0.01741264  1  -0.062865  0  -0.104275  -0.182563  0  4.003466  0
C  C301  1  0.13852496  0.90277608  0.97835256  1  -0.103065  0  -0.107721  -0.190007  0  4.01578  0
C  C302  1  0.13328213  0.86181407  0.93689987  1  0.401287  0  0.091342  0.176436  0  4.041502  0
C  C303  1  0.08921066  0.87876378  0.89087876  1  -0.001856  0  0.001652  -0.068815  0  3.97525  0
C  C304  1  0.10237339  0.83936694  0.85145007  1  0.415836  0  0.093772  0.177104  0  4.037154  0
C  C305  1  0.05676848  0.85362266  0.80325019  1  -0.03123  0  -0.098655  -0.180729  0  4.005197  0
C  C306  1  0.10973262  0.81033613  0.77369848  1  -0.054591  0  -0.103422  -0.180361  0  4.003873  0
C  C307  1  0.18459871  0.76862073  0.80367240  1  0.381146  0  0.093457  0.183668  0  4.036231  0
C  C308  1  0.26130874  0.72048514  0.78561599  1  0.036751  0  0.003042  -0.065308  0  3.969182  0
C  C309  1  0.32237547  0.67801827  0.81589658  1  0.406302  0  0.091797  0.168984  0  4.062541  0
C  C310  1  0.40982409  0.62958567  0.79912842  1  -0.046701  0  -0.101187  -0.182086  0  4.003309  0
C  C311  1  0.43620737  0.59379024  0.83811901  1  -0.067317  0  -0.103619  -0.178021  0  3.995358  0
C  C312  1  0.36514634  0.62010003  0.87888990  1  0.431156  0  0.091928  0.183022  0  4.027065  0
C  C313  1  0.35572652  0.59286697  0.92463417  1  0.009685  0  -0.002191  -0.074515  0  3.977207  0
C  C314  1  0.16662543  0.75868201  0.08199866  1  -0.066951  0  -0.000844  0.092746  0  3.997035  0
C  C315  1  0.03451020  0.72723856  0.10539011  1  -0.036298  0  -0.09255  -0.140112  0  3.987317  0
C  C316  1  0.01699940  0.73305643  0.15495598  1  -0.067659  0  -0.08564  -0.089697  0  3.9786  0
C  C317  1  0.13271493  0.76967881  0.18207921  1  -0.044494  0  -0.022904  -0.054883  0  3.988474  0
C  C318  1  0.26435464  0.80143500  0.15884973  1  -0.032717  0  -0.084976  -0.086823  0  3.986276  0
C  C319  1  0.28037019  0.79649438  0.10922771  1  0.019544  0  -0.092677  -0.137542  0  3.981535  0
C  C320  1  0.11947911  0.77349791  0.23578195  1  1.582884  0  0.224763  0.623241  0  4.19282  0
C  C321  1  0.03687411  0.94153740  0.88398039  1  -0.04583  0  0.002509  0.096819  0  3.974615  0
C  C322  1  0.10757856  0.98393147  0.84905368  1  -0.0366  0  -0.08921  -0.135159  0  3.965819  0
C  C323  1  0.06763760  0.04474551  0.84483816  1  -0.035102  0  -0.079495  -0.077644  0  3.963336  0
C  C324  1  0.96199726  0.06618303  0.87675163  1  -0.018927  0  -0.014363  -0.045447  0  3.959091  0
C  C325  1  0.88667003  0.02365562  0.91068345  1  -0.067865  0  -0.081674  -0.092067  0  3.988122  0
C  C326  1  0.92114003  0.96178210  0.91337314  1  -0.029446  0  -0.089289  -0.135458  0  3.975188  0
C  C327  1  0.93861021  0.13449740  0.87656558  1  1.572794  0  0.239434  0.660448  0  4.155045  0
C  C328  1  0.27777959  0.71408332  0.73259175  1  -0.042492  0  0.005026  0.102802  0  3.96494  0
C  C329  1  0.20462384  0.65996961  0.70842982  1  -0.02203  0  -0.090185  -0.132092  0  3.974358  0
C  C330  1  0.22079697  0.65324512  0.65894926  1  -0.062966  0  -0.084334  -0.085919  0  3.978776  0
C  C331  1  0.31444899  0.70010193  0.63255872  1  0.00127  0  -0.021027  -0.053401  0  4.007546  0
C  C332  1  0.38701351  0.75450583  0.65634523  1  -0.003631  0  -0.083253  -0.088899  0  3.988818  0
C  C333  1  0.36692805  0.76191410  0.70559685  1  -0.050998  0  -0.087794  -0.130415  0  3.956085  0
C  C334  1  0.33992556  0.69347647  0.57990559  1  1.499053  0  0.22479  0.57155  0  4.140558  0
C  C335  1  0.41272018  0.53088719  0.93220996  1  -0.04652  0  0.00502  0.097792  0  3.984503  0
C  C336  1  0.34818539  0.47754740  0.90544417  1  -0.072708  0  -0.086812  -0.129983  0  3.956936  0
C  C337  1  0.40322714  0.41957902  0.91035563  1  -0.0185  0  -0.076498  -0.071666  0  3.935937  0
C  C338  1  0.52440498  0.41319912  0.94262248  1  -0.042084  0  -0.020274  -0.049708  0  3.9855  0
C  C339  1  0.58723239  0.46581741  0.97041340  1  -0.033498  0  -0.079573  -0.082175  0  3.963723  0
C  C340  1  0.53182204  0.52393289  0.96531764  1  -0.085475  0  -0.087197  -0.139386  0  3.974405  0
C  C341  1  0.59582859  0.35348572  0.94239030  1  1.523444  0  0.207374  0.570988  0  4.217339  0
C  C342  1  0.52282269  0.31819280  0.76144312  1  1.383206  0  0.205712  0.37522  0  4.032287  0
C  C343  1  0.73624677  0.38675887  0.72383381  1  0.275301  0  -0.122717  -0.263864  0  3.89922  0
C  C344  1  0.52531997  0.43261186  0.76627876  1  0.201194  0  -0.128068  -0.266755  0  3.875066  0
C  C345  1  0.49515979  0.16395076  0.98224850  1  1.329098  0  0.188113  0.325913  0  4.052679  0
C  C346  1  0.24662068  0.11145064  0.95198320  1  0.224935  0  -0.133283  -0.274657  0  3.880615  0
C  C347  1  0.30643826  0.11408440  0.03973525  1  0.248417  0  -0.126517  -0.272654  0  3.930025  0
N  N348  1  0.29757347  0.18251338  0.26046850  1  -1.120719  0  -0.348395  -0.299429  0  3.477748  0
N  N349  1  0.22228386  0.30374681  0.26956013  1  -1.185673  0  -0.343415  -0.289538  0  3.452816  0
N  N350  1  0.22996155  0.29141529  0.36875665  1  -1.11559  0  -0.342742  -0.284107  0  3.445595  0
N  N351  1  0.35609090  0.18014872  0.35843943  1  -1.109496  0  -0.342911  -0.291858  0  3.445454  0
N  N352  1  0.75160471  0.31786879  0.46316510  1  -1.141639  0  -0.345776  -0.294548  0  3.465366  0
N  N353  1  0.83201766  0.19744001  0.44994559  1  -1.158693  0  -0.34269  -0.28916  0  3.457159  0
N  N354  1  0.82603338  0.21505484  0.35173822  1  -1.144463  0  -0.342386  -0.285312  0  3.442257  0
N  N355  1  0.69936262  0.32640596  0.36530828  1  -1.123877  0  -0.341884  -0.291686  0  3.439587  0
N  N356  1  0.40760595  0.62327879  0.25125035  1  -1.19703  0  -0.269645  0.037283  0  3.690119  0
N  N357  1  0.64478431  0.86911328  0.49081816  1  -1.227358  0  -0.277994  0.034337  0  3.708829  0
N  N358  1  0.70242400  0.81748755  0.76046390  1  -1.120662  0  -0.348325  -0.299298  0  3.477752  0
N  N359  1  0.77771197  0.69624893  0.76955683  1  -1.185491  0  -0.343322  -0.289485  0  3.452933  0
N  N360  1  0.77003104  0.70858462  0.86875912  1  -1.114982  0  -0.342689  -0.283859  0  3.445936  0
N  N361  1  0.64390867  0.81984832  0.85843909  1  -1.109505  0  -0.342899  -0.291856  0  3.445802  0
N  N362  1  0.24840320  0.68213247  0.96316407  1  -1.141542  0  -0.345741  -0.294527  0  3.465158  0
N  N363  1  0.16798222  0.80255833  0.94994722  1  -1.15832  0  -0.342643  -0.289096  0  3.456969  0
N  N364  1  0.17395221  0.78494880  0.85173082  1  -1.144751  0  -0.342477  -0.285537  0  3.442432  0
N  N365  1  0.30064875  0.67358827  0.86530297  1  -1.123834  0  -0.341854  -0.291728  0  3.439658  0
N  N366  1  0.59239255  0.37672210  0.75124842  1  -1.197022  0  -0.269726  0.037065  0  3.690353  0
N  N367  1  0.35521096  0.13088712  0.99081587  1  -1.227352  0  -0.278021  0.034374  0  3.70871  0
O  O368  1  0.81313520  0.21826609  0.99853600  1  -1.184495  0  -0.395446  -0.6411  0  2.306882  0
O  O369  1  0.02255581  0.27103626  0.96386726  1  -1.201048  0  -0.363062  -0.642088  0  2.208098  0
O  O370  1  0.88018155  0.65307351  0.32244576  1  -1.185798  0  -0.400406  -0.669096  0  2.28756  0
O  O371  1  0.08074253  0.67853331  0.37301294  1  -1.211361  0  -0.410924  -0.700706  0  2.350873  0
O  O372  1  0.27768567  0.15930078  0.66427570  1  -1.180283  0  -0.344731  -0.504383  0  2.262746  0
O  O373  1  0.38277940  0.26327277  0.66967435  1  -1.161555  0  -0.298282  -0.516504  0  2.112295  0
O  O374  1  0.62349824  0.82126002  0.32981534  1  -1.195305  0  -0.372098  -0.634685  0  2.317255  0
O  O375  1  0.73677065  0.83976967  0.25911415  1  -1.191878  0  -0.345542  -0.630401  0  2.263249  0
O  O376  1  0.75994700  0.20568789  0.75929570  1  -1.187433  0  -0.305379  -0.545734  0  2.181191  0
O  O377  1  0.01399873  0.24665037  0.75412540  1  -1.206583  0  -0.449953  -0.710172  0  2.335463  0
O  O378  1  0.99005619  0.82893405  0.34483580  1  -1.211516  0  -0.43253  -0.719677  0  2.37369  0
O  O379  1  0.14725471  0.84664426  0.40885240  1  -1.190527  0  -0.390918  -0.657317  0  2.297768  0
O  O380  1  0.56029441  0.27136992  0.05741148  1  -1.148429  0  -0.290497  -0.51025  0  2.169911  0
O  O381  1  0.75470272  0.35474554  0.05977940  1  -1.192165  0  -0.343715  -0.498248  0  2.258562  0
O  O382  1  0.45874910  0.69225908  0.41460511  1  -1.178696  0  -0.35213  -0.612334  0  2.2796  0
O  O383  1  0.27923638  0.65092395  0.46618655  1  -1.196763  0  -0.353019  -0.636592  0  2.270171  0
O  O384  1  0.60158015  0.69228447  0.28494414  1  -1.205255  0  -0.404739  -0.597458  0  2.406725  0
O  O385  1  0.45572641  0.81997120  0.44091776  1  -1.170857  0  -0.369938  -0.535633  0  2.361464  0
O  O386  1  0.75653523  0.73730772  0.39502993  1  -1.313893  0  -0.648892  -0.875927  0  2.039529  0
O  O387  1  0.32821471  0.77333465  0.34532024  1  -1.291393  0  -0.680582  -0.893391  0  2.109168  0
O  O388  1  0.18686280  0.78173529  0.49853871  1  -1.184503  0  -0.395464  -0.641059  0  2.306974  0
O  O389  1  0.97744060  0.72896498  0.46387146  1  -1.200826  0  -0.363066  -0.642086  0  2.208257  0
O  O390  1  0.11981670  0.34692767  0.82244145  1  -1.185889  0  -0.400274  -0.668996  0  2.287722  0
O  O391  1  0.91925361  0.32146330  0.87300442  1  -1.211192  0  -0.410919  -0.70078  0  2.351157  0
O  O392  1  0.72231042  0.84069931  0.16427695  1  -1.18029  0  -0.344755  -0.504353  0  2.262782  0
O  O393  1  0.61721958  0.73672544  0.16966917  1  -1.161441  0  -0.298294  -0.516514  0  2.112393  0
O  O394  1  0.37649831  0.17873928  0.82980884  1  -1.194879  0  -0.372002  -0.634658  0  2.317022  0
O  O395  1  0.26322763  0.16023031  0.75910857  1  -1.191747  0  -0.345727  -0.630622  0  2.263445  0
O  O396  1  0.24005982  0.79431353  0.25929633  1  -1.18741  0  -0.305395  -0.54571  0  2.181155  0
O  O397  1  0.98599980  0.75335054  0.25412353  1  -1.206544  0  -0.449859  -0.710091  0  2.335353  0
O  O398  1  0.00993678  0.17106435  0.84482960  1  -1.211359  0  -0.432665  -0.719915  0  2.373718  0
O  O399  1  0.85274180  0.15335915  0.90884421  1  -1.190244  0  -0.390861  -0.65735  0  2.29803  0
O  O400  1  0.43970574  0.72863214  0.55741003  1  -1.148387  0  -0.290568  -0.510453  0  2.169667  0
O  O401  1  0.24529913  0.64525462  0.55978082  1  -1.192222  0  -0.343707  -0.498352  0  2.258603  0
O  O402  1  0.54124356  0.30774291  0.91459975  1  -1.178983  0  -0.352123  -0.612389  0  2.279732  0
O  O403  1  0.72075331  0.34907777  0.96618434  1  -1.196538  0  -0.352954  -0.636521  0  2.27006  0
O  O404  1  0.39841568  0.30771418  0.78493934  1  -1.205166  0  -0.404769  -0.597511  0  2.406524  0
O  O405  1  0.54426674  0.18003137  0.94091612  1  -1.171069  0  -0.369893  -0.535623  0  2.36172  0
O  O406  1  0.24346130  0.26269278  0.89502595  1  -1.314049  0  -0.648959  -0.876103  0  2.039375  0
O  O407  1  0.67178005  0.22666566  0.84531595  1  -1.291564  0  -0.680641  -0.893274  0  2.109292  0
