# generated using pymatgen
data_CuH8C14N2O5
_symmetry_space_group_name_H-M   'P 1'
_cell_length_a   18.28810405
_cell_length_b   18.28812214
_cell_length_c   25.93761842
_cell_angle_alpha   69.35132282
_cell_angle_beta   69.35142981
_cell_angle_gamma   59.97309293
_symmetry_Int_Tables_number   1
_chemical_formula_structural   CuH8C14N2O5
_chemical_formula_sum   'Cu12 H96 C168 N24 O60'
_cell_volume   6860.04205807
_cell_formula_units_Z   12
loop_
 _symmetry_equiv_pos_site_id
 _symmetry_equiv_pos_as_xyz
  1  'x, y, z'
loop_
 _atom_site_type_symbol
 _atom_site_label
 _atom_site_symmetry_multiplicity
 _atom_site_fract_x
 _atom_site_fract_y
 _atom_site_fract_z
 _atom_site_occupancy
 _atom_site_pbe_bader_charge
 _atom_site_pbe_bader_spin_density
 _atom_site_pbe_cm5_charge
 _atom_site_pbe_ddec_charge
 _atom_site_pbe_ddec_spin_density
 _atom_site_pbe_ddec_sum_bond_order
 _atom_site_pbe_magmom
Cu  Cu0  1  0.78333695  0.73985790  0.29220622  1  1.08427  0.582475  0.690338  0.777307  0.737383  2.39384  0.583
Cu  Cu1  1  0.74006700  0.18447718  0.29214927  1  1.083191  0.582518  0.69097  0.777839  0.737711  2.394383  0.583
Cu  Cu2  1  0.18459123  0.78333702  0.29221140  1  1.083814  0.582472  0.691039  0.778192  0.737823  2.393497  0.583
Cu  Cu3  1  0.31552058  0.75993808  0.20785020  1  1.083063  0.582498  0.690894  0.777763  0.737696  2.394411  0.583
Cu  Cu4  1  0.76014184  0.71665955  0.20779632  1  1.082584  0.582432  0.690399  0.777347  0.737397  2.393975  0.583
Cu  Cu5  1  0.71666278  0.31540847  0.20778802  1  1.083574  0.582454  0.690939  0.777991  0.737812  2.393576  0.583
Cu  Cu6  1  0.21666118  0.26014420  0.70779157  1  1.084213  0.582467  0.69032  0.777374  0.737375  2.393721  0.583
Cu  Cu7  1  0.25993568  0.81552241  0.70785032  1  1.08337  0.582532  0.69098  0.777852  0.737723  2.394539  0.583
Cu  Cu8  1  0.81540627  0.21666187  0.70778968  1  1.083401  0.582453  0.690992  0.778108  0.737817  2.393533  0.583
Cu  Cu9  1  0.68447693  0.24006081  0.79215089  1  1.083599  0.582517  0.69093  0.777854  0.737706  2.394359  0.583
Cu  Cu10  1  0.23985758  0.28334199  0.79220128  1  1.082574  0.582439  0.69043  0.777386  0.737403  2.394013  0.583
Cu  Cu11  1  0.28333795  0.68459313  0.79221193  1  1.083353  0.582439  0.69094  0.777946  0.737802  2.393513  0.583
H  H12  1  0.02299974  0.73621922  0.23559020  1  0.134835  0.000568  0.11064  0.124558  0.000501  1.009397  0.0
H  H13  1  0.73602892  0.00525078  0.23562937  1  0.125108  0.00057  0.110843  0.125266  0.000502  1.009455  0.0
H  H14  1  0.00527844  0.02290920  0.23532374  1  0.134687  0.000569  0.110626  0.124647  0.000501  1.009812  0.0
H  H15  1  0.49474120  0.76396943  0.26437494  1  0.125229  0.00057  0.110893  0.125337  0.000502  1.009465  0.0
H  H16  1  0.76378183  0.47699508  0.26441624  1  0.134953  0.000569  0.110661  0.124577  0.000501  1.009449  0.0
H  H17  1  0.47709077  0.49472203  0.26467179  1  0.13459  0.000569  0.110618  0.124685  0.000502  1.00979  0.0
H  H18  1  0.97700035  0.26377797  0.76441027  1  0.134778  0.000569  0.110651  0.124594  0.000501  1.009326  0.0
H  H19  1  0.26396730  0.99475101  0.76437322  1  0.125172  0.00057  0.11085  0.125337  0.000503  1.009375  0.0
H  H20  1  0.99472165  0.97709209  0.76467646  1  0.134669  0.000568  0.11061  0.124631  0.000501  1.009821  0.0
H  H21  1  0.50525759  0.23602655  0.73562501  1  0.12528  0.00057  0.110906  0.125371  0.000502  1.009462  0.0
H  H22  1  0.23622150  0.52299956  0.73558367  1  0.135038  0.000569  0.110657  0.124569  0.000501  1.009395  0.0
H  H23  1  0.52290541  0.50527562  0.73532532  1  0.134541  0.000569  0.110674  0.124757  0.000502  1.009713  0.0
H  H24  1  0.25627716  0.65713589  0.10866651  1  0.097179  0.000403  0.110381  0.121898  0.000308  1.000978  0.0
H  H25  1  0.65701638  0.97807185  0.10867760  1  0.092506  0.000409  0.110547  0.121679  0.000308  1.001893  0.0
H  H26  1  0.97811404  0.25621183  0.10845103  1  0.092642  0.000405  0.11062  0.121644  0.000307  1.001246  0.0
H  H27  1  0.52192577  0.84298825  0.39132353  1  0.092566  0.000409  0.110506  0.121618  0.000308  1.00191  0.0
H  H28  1  0.84287362  0.24371615  0.39133377  1  0.097175  0.000403  0.110379  0.121892  0.000307  1.000916  0.0
H  H29  1  0.24379205  0.52188096  0.39154726  1  0.092703  0.000405  0.110586  0.121613  0.000307  1.001261  0.0
H  H30  1  0.74372360  0.34285928  0.89133546  1  0.097183  0.000403  0.110406  0.121948  0.000308  1.000934  0.0
H  H31  1  0.34298114  0.02192939  0.89132558  1  0.092594  0.000409  0.110555  0.121677  0.000308  1.001881  0.0
H  H32  1  0.02188669  0.74378800  0.89154746  1  0.09263  0.000405  0.110634  0.121679  0.000307  1.001244  0.0
H  H33  1  0.47807432  0.15701128  0.60867596  1  0.092647  0.000409  0.110519  0.121652  0.000308  1.001887  0.0
H  H34  1  0.15713684  0.75628367  0.60866726  1  0.097028  0.000403  0.110389  0.121929  0.000307  1.000852  0.0
H  H35  1  0.75621196  0.47811519  0.60845711  1  0.092565  0.000405  0.110609  0.121689  0.000307  1.001155  0.0
H  H36  1  0.03611727  0.62792577  0.10755260  1  0.136387  0.000334  0.111614  0.137781  0.000244  1.016921  0.0
H  H37  1  0.62767678  0.22862732  0.10760926  1  0.146503  0.00033  0.111404  0.137012  0.000245  1.016479  0.0
H  H38  1  0.22870694  0.03596535  0.10754276  1  0.160576  0.000333  0.110865  0.136519  0.000244  1.016978  0.0
H  H39  1  0.27136859  0.87232185  0.39239798  1  0.146368  0.00033  0.111457  0.137159  0.000245  1.016473  0.0
H  H40  1  0.87207197  0.46387976  0.39245228  1  0.136352  0.000335  0.111663  0.137861  0.000244  1.016847  0.0
H  H41  1  0.46404483  0.27129030  0.39245578  1  0.160896  0.000333  0.110852  0.136532  0.000243  1.016983  0.0
H  H42  1  0.96388217  0.37207228  0.89244743  1  0.136402  0.000334  0.111616  0.1378  0.000244  1.016937  0.0
H  H43  1  0.37232072  0.77137215  0.89239129  1  0.1465  0.00033  0.111426  0.13705  0.000245  1.016396  0.0
H  H44  1  0.77129379  0.96403449  0.89245649  1  0.160577  0.000333  0.110866  0.136523  0.000244  1.016967  0.0
H  H45  1  0.72862891  0.12768113  0.60760206  1  0.146408  0.00033  0.11146  0.137165  0.000245  1.016462  0.0
H  H46  1  0.12792485  0.53612933  0.60754485  1  0.136558  0.000335  0.111684  0.137905  0.000244  1.016828  0.0
H  H47  1  0.53596045  0.72870879  0.60754559  1  0.160793  0.000333  0.11086  0.13651  0.000244  1.017004  0.0
H  H48  1  0.34919899  0.44260228  0.01690465  1  0.093363  1.1e-05  0.112796  0.112465  -5e-06  0.977935  0.0
H  H49  1  0.44254008  0.19145554  0.01698648  1  0.066318  9e-06  0.113151  0.112861  -5e-06  0.97789  0.0
H  H50  1  0.19174866  0.34891960  0.01694204  1  0.065955  9e-06  0.113206  0.113196  -5e-06  0.977078  0.0
H  H51  1  0.30854717  0.05745474  0.48301808  1  0.066454  9e-06  0.113198  0.112889  -5e-06  0.978004  0.0
H  H52  1  0.05739844  0.15078627  0.48309719  1  0.093524  1.1e-05  0.112798  0.112491  -5e-06  0.977807  0.0
H  H53  1  0.15109357  0.30824036  0.48305371  1  0.066317  9e-06  0.113214  0.113251  -5e-06  0.977203  0.0
H  H54  1  0.65079784  0.55739979  0.98309310  1  0.093353  1.1e-05  0.112839  0.112506  -5e-06  0.977879  0.0
H  H55  1  0.55745225  0.80854203  0.98301432  1  0.066403  9e-06  0.11314  0.112847  -5e-06  0.977918  0.0
H  H56  1  0.80825856  0.65107808  0.98305843  1  0.06589  9e-06  0.113205  0.11317  -5e-06  0.977147  0.0
H  H57  1  0.69146006  0.94254528  0.51698371  1  0.066475  9e-06  0.113168  0.112907  -5e-06  0.977904  0.0
H  H58  1  0.94260096  0.84923167  0.51689896  1  0.093502  1.1e-05  0.112797  0.112545  -5e-06  0.977808  0.0
H  H59  1  0.84890783  0.69175804  0.51694767  1  0.066176  9e-06  0.113212  0.113226  -5e-06  0.977137  0.0
H  H60  1  0.46103427  0.40322043  0.92914983  1  0.092832  -1.3e-05  0.10648  0.110447  -6e-06  1.025755  0.0
H  H61  1  0.40315758  0.20663136  0.92927975  1  0.080719  -1.2e-05  0.106999  0.111202  -6e-06  1.02496  0.0
H  H62  1  0.20681624  0.46084477  0.92919045  1  0.081793  -1.2e-05  0.106427  0.110116  -6e-06  1.026335  0.0
H  H63  1  0.29337574  0.09683258  0.57072449  1  0.080572  -1.2e-05  0.10701  0.111182  -6e-06  1.025049  0.0
H  H64  1  0.09677611  0.03895216  0.57085369  1  0.093221  -1.3e-05  0.106454  0.110404  -6e-06  1.025698  0.0
H  H65  1  0.03916189  0.29317695  0.57080123  1  0.082143  -1.2e-05  0.106454  0.110138  -6e-06  1.026332  0.0
H  H66  1  0.53896062  0.59677836  0.07084770  1  0.092747  -1.3e-05  0.106455  0.110387  -6e-06  1.025756  0.0
H  H67  1  0.59683860  0.79336980  0.07071800  1  0.080851  -1.2e-05  0.106991  0.111144  -6e-06  1.025007  0.0
H  H68  1  0.79319357  0.53915239  0.07081026  1  0.081805  -1.2e-05  0.106415  0.110141  -6e-06  1.026367  0.0
H  H69  1  0.70663215  0.90316250  0.42927840  1  0.080858  -1.2e-05  0.106965  0.111114  -6e-06  1.025116  0.0
H  H70  1  0.90322263  0.96105725  0.42914016  1  0.093154  -1.3e-05  0.106459  0.11039  -6e-06  1.025778  0.0
H  H71  1  0.96083950  0.70682028  0.42919967  1  0.082197  -1.2e-05  0.106435  0.110131  -6e-06  1.026323  0.0
H  H72  1  0.42763217  0.49553721  0.83488625  1  0.121076  -4.4e-05  0.125176  0.100256  -4.1e-05  0.976237  0.0
H  H73  1  0.49536539  0.24199865  0.83498292  1  0.116276  -4.3e-05  0.124938  0.099516  -4e-05  0.976909  0.0
H  H74  1  0.24194615  0.42758195  0.83492144  1  0.112162  -4.3e-05  0.12514  0.099862  -4.1e-05  0.976308  0.0
H  H75  1  0.25800603  0.00462493  0.66501962  1  0.116728  -4.3e-05  0.124925  0.09953  -4e-05  0.976895  0.0
H  H76  1  0.00446389  0.07236082  0.66511667  1  0.120901  -4.4e-05  0.125155  0.100333  -4.1e-05  0.976044  0.0
H  H77  1  0.07241965  0.25805517  0.66507067  1  0.112448  -4.3e-05  0.125203  0.099859  -4.1e-05  0.976206  0.0
H  H78  1  0.57236207  0.50446361  0.16511132  1  0.121283  -4.4e-05  0.125173  0.10023  -4.1e-05  0.976285  0.0
H  H79  1  0.50463209  0.75800197  0.16501464  1  0.116484  -4.3e-05  0.124933  0.099519  -4e-05  0.976902  0.0
H  H80  1  0.75805848  0.57241742  0.16507964  1  0.11207  -4.3e-05  0.125153  0.099886  -4.1e-05  0.976242  0.0
H  H81  1  0.74199925  0.99536948  0.33498178  1  0.116616  -4.3e-05  0.124933  0.09952  -4e-05  0.976913  0.0
H  H82  1  0.99553357  0.92764036  0.33487883  1  0.121799  -4.4e-05  0.125195  0.100367  -4.1e-05  0.97587  0.0
H  H83  1  0.92758045  0.74194437  0.33493035  1  0.112456  -4.3e-05  0.125211  0.099857  -4.1e-05  0.976235  0.0
H  H84  1  0.18160145  0.65324079  0.90909341  1  0.143563  -7.6e-05  0.120484  0.098807  -5.5e-05  1.012792  0.0
H  H85  1  0.65302593  0.25625955  0.90906857  1  0.129112  -7.8e-05  0.12057  0.099111  -5.7e-05  1.011185  0.0
H  H86  1  0.25627424  0.18155499  0.90906833  1  0.131293  -7.7e-05  0.120449  0.098921  -5.6e-05  1.012702  0.0
H  H87  1  0.24373651  0.84697117  0.59093404  1  0.12979  -7.8e-05  0.120575  0.099093  -5.7e-05  1.011175  0.0
H  H88  1  0.84676602  0.31839049  0.59090596  1  0.143358  -7.6e-05  0.120501  0.098866  -5.6e-05  1.012735  0.0
H  H89  1  0.31845027  0.24372990  0.59092773  1  0.13085  -7.7e-05  0.120453  0.09895  -5.7e-05  1.012661  0.0
H  H90  1  0.81839474  0.34676391  0.09090538  1  0.143474  -7.6e-05  0.120489  0.098809  -5.6e-05  1.012698  0.0
H  H91  1  0.34696966  0.74373199  0.09093563  1  0.129734  -7.8e-05  0.120582  0.099078  -5.7e-05  1.011284  0.0
H  H92  1  0.74372195  0.81844853  0.09093037  1  0.13126  -7.7e-05  0.120457  0.098932  -5.7e-05  1.012632  0.0
H  H93  1  0.75626161  0.15303326  0.40906316  1  0.129933  -7.8e-05  0.120591  0.09914  -5.7e-05  1.011164  0.0
H  H94  1  0.15323085  0.68161396  0.40909695  1  0.143594  -7.6e-05  0.120517  0.098887  -5.6e-05  1.012683  0.0
H  H95  1  0.68155048  0.75626937  0.40907397  1  0.130887  -7.7e-05  0.120465  0.098991  -5.6e-05  1.012623  0.0
H  H96  1  0.26511152  0.59764906  0.04356963  1  0.445876  4.9e-05  0.327525  0.282314  1.9e-05  0.920461  0.0
H  H97  1  0.59743979  0.09389596  0.04363152  1  0.453401  4.8e-05  0.327607  0.282146  1.9e-05  0.921755  0.0
H  H98  1  0.09394269  0.26490376  0.04342297  1  0.447385  4.8e-05  0.327786  0.282813  1.9e-05  0.920248  0.0
H  H99  1  0.40609966  0.90256285  0.45637023  1  0.453478  4.8e-05  0.327592  0.282086  1.9e-05  0.921789  0.0
H  H100  1  0.90235630  0.23488186  0.45643019  1  0.445789  4.9e-05  0.32755  0.282218  1.9e-05  0.920538  0.0
H  H101  1  0.23510370  0.40605290  0.45657408  1  0.447562  4.8e-05  0.327811  0.282758  1.9e-05  0.920229  0.0
H  H102  1  0.73488922  0.40234726  0.95643051  1  0.445912  4.9e-05  0.327544  0.282351  1.9e-05  0.920426  0.0
H  H103  1  0.40255580  0.90609968  0.95637280  1  0.453322  4.8e-05  0.327593  0.282038  1.9e-05  0.921717  0.0
H  H104  1  0.90605803  0.73509548  0.95657566  1  0.447405  4.8e-05  0.327778  0.282804  1.9e-05  0.92024  0.0
H  H105  1  0.59390236  0.09743643  0.54362845  1  0.453475  4.8e-05  0.327578  0.282098  1.9e-05  0.921754  0.0
H  H106  1  0.09764898  0.76512603  0.54357164  1  0.445566  4.9e-05  0.327507  0.282236  1.9e-05  0.920346  0.0
H  H107  1  0.76489964  0.59394584  0.54342709  1  0.447561  4.8e-05  0.327779  0.282736  1.9e-05  0.920165  0.0
C  C108  1  0.92989952  0.69457734  0.20165807  1  1.552071  -0.001653  0.21838  0.586666  -0.002134  4.146818  -0.004
C  C109  1  0.69447766  0.17394618  0.20168029  1  1.551884  -0.001759  0.216699  0.582851  -0.002133  4.15242  -0.004
C  C110  1  0.17403181  0.92975664  0.20155946  1  1.569531  -0.001674  0.216622  0.582495  -0.002132  4.150896  -0.004
C  C111  1  0.32604859  0.80552085  0.29832466  1  1.551983  -0.001758  0.216845  0.583232  -0.002134  4.152364  -0.004
C  C112  1  0.80542009  0.57009885  0.29834820  1  1.552116  -0.00165  0.218518  0.586786  -0.002135  4.146657  -0.004
C  C113  1  0.57024777  0.32597281  0.29843859  1  1.569495  -0.001673  0.216736  0.582779  -0.002133  4.150838  -0.004
C  C114  1  0.07009992  0.30542071  0.79834158  1  1.552441  -0.001655  0.218349  0.586693  -0.002135  4.146525  -0.004
C  C115  1  0.30552307  0.82605307  0.79831911  1  1.551934  -0.001757  0.216816  0.583142  -0.002134  4.152203  -0.004
C  C116  1  0.82596764  0.07024376  0.79844113  1  1.569805  -0.001672  0.216643  0.582581  -0.002132  4.150882  -0.004
C  C117  1  0.67394892  0.19447863  0.70167704  1  1.551974  -0.001758  0.216759  0.583013  -0.002134  4.152373  -0.004
C  C118  1  0.19457741  0.42990237  0.70165229  1  1.551741  -0.001653  0.21853  0.586642  -0.002135  4.146861  -0.004
C  C119  1  0.42975489  0.67402677  0.70155869  1  1.569969  -0.001674  0.216733  0.58273  -0.002133  4.15093  -0.004
C  C120  1  0.02104172  0.68261151  0.17436148  1  -0.021508  0.017612  -0.012231  -0.007698  0.012304  3.977592  0.014
C  C121  1  0.68240590  0.12212537  0.17440467  1  -0.028987  0.01771  -0.01144  -0.004077  0.012305  3.979147  0.014
C  C122  1  0.12218006  0.02089959  0.17421595  1  -0.046764  0.017675  -0.012204  -0.00588  0.012306  3.979954  0.014
C  C123  1  0.37786866  0.81759324  0.32559880  1  -0.029131  0.017709  -0.011432  -0.004154  0.012305  3.979192  0.014
C  C124  1  0.81738629  0.47895655  0.32564456  1  -0.0176  0.017605  -0.012238  -0.007668  0.012303  3.977618  0.014
C  C125  1  0.47910500  0.37782350  0.32578002  1  -0.046586  0.017672  -0.012181  -0.00588  0.012305  3.979984  0.014
C  C126  1  0.97895837  0.31738393  0.82563905  1  -0.021448  0.017612  -0.012251  -0.00774  0.012303  3.977594  0.014
C  C127  1  0.31759224  0.87787440  0.82559525  1  -0.029254  0.017709  -0.011438  -0.004141  0.012305  3.979199  0.014
C  C128  1  0.87782068  0.97910201  0.82578439  1  -0.046813  0.017675  -0.012231  -0.005898  0.012306  3.98007  0.014
C  C129  1  0.62212885  0.18240623  0.67440214  1  -0.029083  0.01771  -0.011449  -0.004163  0.012305  3.979254  0.014
C  C130  1  0.18261572  0.52104448  0.67435368  1  -0.017431  0.017607  -0.012342  -0.007715  0.012304  3.977524  0.014
C  C131  1  0.52089831  0.62217346  0.67421738  1  -0.0466  0.017675  -0.012179  -0.005967  0.012306  3.98011  0.014
C  C132  1  0.05905068  0.70866303  0.19841291  1  0.003484  0.002466  -0.07668  -0.109904  0.001637  3.918833  0.002
C  C133  1  0.70846542  0.03399276  0.19846043  1  0.067931  0.002395  -0.076959  -0.111732  0.001625  3.921732  0.002
C  C134  1  0.03401848  0.05893715  0.19819492  1  0.011964  0.002489  -0.076649  -0.110072  0.001642  3.92334  0.002
C  C135  1  0.46600241  0.79153250  0.30154391  1  0.067371  0.002394  -0.076997  -0.111828  0.001624  3.921751  0.002
C  C136  1  0.79133636  0.44094786  0.30159267  1  -0.000536  0.002472  -0.076714  -0.109936  0.001637  3.919065  0.002
C  C137  1  0.44106439  0.46598230  0.30179974  1  0.011798  0.00249  -0.076616  -0.110075  0.001643  3.923455  0.002
C  C138  1  0.94094876  0.29133326  0.80158757  1  0.003405  0.002466  -0.076651  -0.109849  0.001637  3.918745  0.002
C  C139  1  0.29152822  0.96600838  0.80154298  1  0.068298  0.002393  -0.076958  -0.111784  0.001624  3.92176  0.002
C  C140  1  0.96598095  0.94106324  0.80180414  1  0.011949  0.002489  -0.07665  -0.110106  0.001642  3.923435  0.002
C  C141  1  0.53399639  0.20846465  0.69845613  1  0.067437  0.002394  -0.077067  -0.111922  0.001624  3.921958  0.002
C  C142  1  0.20866697  0.55904970  0.69840689  1  -0.000761  0.002472  -0.076686  -0.109924  0.001637  3.918889  0.002
C  C143  1  0.55893569  0.53401487  0.69819881  1  0.01185  0.002489  -0.076707  -0.110195  0.001642  3.923539  0.002
C  C144  1  0.14343258  0.70006972  0.17435754  1  -0.000759  0.016134  -0.016542  -0.01033  0.011289  4.005154  0.013
C  C145  1  0.69990313  0.98227249  0.17439090  1  -0.010714  0.016249  -0.01633  -0.01071  0.0113  4.003978  0.013
C  C146  1  0.98228641  0.14334132  0.17413882  1  -0.022367  0.01618  -0.016389  -0.011368  0.011294  4.008898  0.013
C  C147  1  0.51772349  0.80009770  0.32561203  1  -0.010246  0.01625  -0.016335  -0.010597  0.011301  4.003738  0.013
C  C148  1  0.79993719  0.35656469  0.32564112  1  -0.000517  0.016135  -0.016519  -0.010384  0.01129  4.005484  0.013
C  C149  1  0.35666241  0.51771296  0.32585771  1  -0.022145  0.016179  -0.016453  -0.011536  0.011294  4.009119  0.013
C  C150  1  0.85656687  0.29992658  0.82564409  1  -0.000506  0.016134  -0.01658  -0.010391  0.01129  4.005288  0.013
C  C151  1  0.30009503  0.01772613  0.82561201  1  0.031118  0.016211  -0.016354  -0.010713  0.011301  4.003999  0.013
C  C152  1  0.01771432  0.85665910  0.82586029  1  -0.022245  0.01618  -0.01639  -0.011345  0.011294  4.008895  0.013
C  C153  1  0.48227530  0.19990062  0.67438771  1  -0.010305  0.016249  -0.016231  -0.010504  0.0113  4.003923  0.013
C  C154  1  0.20007002  0.64343180  0.67435850  1  -0.000435  0.016134  -0.016539  -0.010295  0.01129  4.005393  0.013
C  C155  1  0.64333899  0.48228427  0.67414357  1  -0.022128  0.016179  -0.016384  -0.011339  0.011295  4.008902  0.013
C  C156  1  0.19003771  0.66410731  0.12688195  1  -0.062036  0.001291  -0.082683  -0.191421  0.000866  3.920284  0.001
C  C157  1  0.66392517  0.01913159  0.12692025  1  -0.024467  0.001248  -0.08267  -0.190723  0.000836  3.922537  0.001
C  C158  1  0.01915371  0.18995148  0.12670346  1  0.004358  0.001251  -0.082501  -0.190064  0.000869  3.923755  0.001
C  C159  1  0.48086340  0.83607870  0.37308145  1  -0.024312  0.001247  -0.082675  -0.190761  0.000836  3.922511  0.001
C  C160  1  0.83589654  0.30995793  0.37311680  1  -0.062186  0.00129  -0.082711  -0.191392  0.000865  3.920379  0.001
C  C161  1  0.31005206  0.48084295  0.37329317  1  0.004365  0.001252  -0.082424  -0.189923  0.000869  3.923711  0.001
C  C162  1  0.80996303  0.33588903  0.87311934  1  -0.062297  0.001291  -0.082673  -0.191486  0.000866  3.920446  0.001
C  C163  1  0.33607170  0.98086758  0.87308284  1  -0.066664  0.001286  -0.082707  -0.190854  0.000835  3.922519  0.001
C  C164  1  0.98084831  0.81004781  0.87329561  1  0.004298  0.001251  -0.082503  -0.190061  0.000869  3.923757  0.001
C  C165  1  0.51913668  0.16392199  0.62691775  1  -0.024356  0.001246  -0.082727  -0.190872  0.000835  3.922603  0.001
C  C166  1  0.16411002  0.69004118  0.62688308  1  -0.062382  0.00129  -0.08266  -0.191408  0.000865  3.920396  0.001
C  C167  1  0.68994868  0.51915514  0.62670768  1  0.004355  0.001251  -0.082513  -0.190179  0.000868  3.92358  0.001
C  C168  1  0.15209638  0.63726905  0.10291694  1  0.268839  0.001616  0.096037  0.242813  0.000936  4.03588  0.001
C  C169  1  0.63705212  0.10791663  0.10296782  1  0.265606  0.001627  0.096431  0.243166  0.000939  4.038912  0.001
C  C170  1  0.10796824  0.15195973  0.10281056  1  0.273924  0.001624  0.096199  0.24183  0.000937  4.037008  0.001
C  C171  1  0.39207959  0.86294785  0.39703563  1  0.265212  0.001627  0.096384  0.243039  0.000939  4.038954  0.001
C  C172  1  0.86273474  0.34789891  0.39708345  1  0.26866  0.001616  0.09609  0.242844  0.000936  4.0359  0.001
C  C173  1  0.34804551  0.39203045  0.39718714  1  0.273763  0.001624  0.096225  0.241866  0.000937  4.037098  0.001
C  C174  1  0.84790436  0.36272904  0.89708352  1  0.268845  0.001616  0.096087  0.242952  0.000936  4.035876  0.001
C  C175  1  0.36294216  0.89208306  0.89703426  1  0.265754  0.001627  0.09649  0.243341  0.000939  4.038765  0.001
C  C176  1  0.89203378  0.84803897  0.89718865  1  0.274125  0.001624  0.09622  0.241815  0.000937  4.037076  0.001
C  C177  1  0.60791985  0.13705314  0.60296481  1  0.265047  0.001627  0.09645  0.243232  0.000939  4.038856  0.001
C  C178  1  0.13726921  0.65210423  0.60291453  1  0.268877  0.001616  0.096047  0.24272  0.000936  4.036218  0.001
C  C179  1  0.65195653  0.60796944  0.60281485  1  0.273998  0.001624  0.096241  0.241953  0.000937  4.036994  0.001
C  C180  1  0.06652513  0.64729044  0.12628791  1  0.096776  0.000108  -0.079045  -0.175952  -0.000406  3.868399  0.0
C  C181  1  0.64705558  0.16008726  0.12634264  1  0.002383  0.000142  -0.078898  -0.176372  -0.000413  3.869473  0.0
C  C182  1  0.16014003  0.06637455  0.12619864  1  0.035537  0.000103  -0.078111  -0.174544  -0.000403  3.868165  0.0
C  C183  1  0.33990789  0.85294287  0.37366143  1  0.002348  0.000141  -0.07899  -0.176544  -0.000414  3.869604  0.0
C  C184  1  0.85270959  0.43347092  0.37371625  1  0.096852  0.000108  -0.079031  -0.175973  -0.000406  3.868536  0.0
C  C185  1  0.43363193  0.33985936  0.37379868  1  0.035273  0.000103  -0.078141  -0.174639  -0.000403  3.868264  0.0
C  C186  1  0.93347626  0.35270502  0.87371266  1  0.096831  0.000108  -0.079076  -0.176048  -0.000406  3.868438  0.0
C  C187  1  0.35294256  0.83991367  0.87365660  1  0.00249  0.000141  -0.078923  -0.176496  -0.000413  3.869461  0.0
C  C188  1  0.83986198  0.93362473  0.87379966  1  0.035689  0.000103  -0.078136  -0.174566  -0.000403  3.868222  0.0
C  C189  1  0.66009091  0.14705781  0.62633925  1  0.002304  0.000141  -0.078957  -0.176506  -0.000414  3.869642  0.0
C  C190  1  0.14729113  0.56653360  0.62628220  1  0.096643  0.000107  -0.079057  -0.17604  -0.000406  3.868659  0.0
C  C191  1  0.56637075  0.66014082  0.62620115  1  0.035276  0.000102  -0.078158  -0.174592  -0.000403  3.868238  0.0
C  C192  1  0.18282980  0.72886376  0.20051108  1  1.548502  -0.001274  0.215485  0.581385  -0.001666  4.160486  -0.004
C  C193  1  0.72885308  0.88785456  0.20049809  1  1.558667  -0.001314  0.216276  0.582305  -0.001673  4.155152  -0.004
C  C194  1  0.88789751  0.18273321  0.20030589  1  1.562565  -0.00125  0.216218  0.582827  -0.001667  4.158102  -0.004
C  C195  1  0.61214112  0.77114399  0.29950288  1  1.558644  -0.001316  0.216307  0.582297  -0.001674  4.155302  -0.004
C  C196  1  0.77114357  0.31716668  0.29948614  1  1.548317  -0.001275  0.215481  0.581102  -0.001666  4.16072  -0.004
C  C197  1  0.31726607  0.61210261  0.29969340  1  1.561802  -0.001246  0.216263  0.582793  -0.001668  4.158182  -0.004
C  C198  1  0.81716966  0.27113080  0.79949214  1  1.546655  -0.001279  0.215517  0.581387  -0.001667  4.160374  -0.004
C  C199  1  0.27114507  0.11214640  0.79950346  1  1.558659  -0.001314  0.216268  0.582323  -0.001674  4.155163  -0.004
C  C200  1  0.11210256  0.81726923  0.79969171  1  1.561767  -0.001246  0.216256  0.582755  -0.001667  4.158251  -0.004
C  C201  1  0.38785833  0.22885348  0.70049845  1  1.558423  -0.001315  0.216266  0.582299  -0.001674  4.155281  -0.004
C  C202  1  0.22886232  0.68283152  0.70051145  1  1.548613  -0.001273  0.215466  0.581142  -0.001666  4.160762  -0.004
C  C203  1  0.68273662  0.38789407  0.70030769  1  1.561445  -0.001246  0.216343  0.582897  -0.001668  4.158085  -0.004
C  C204  1  0.25584186  0.55107206  0.96971237  1  -0.042897  0.000332  -0.011159  -0.080192  0.000215  4.009139  0.0
C  C205  1  0.55092493  0.22356597  0.96973761  1  -0.062324  0.000329  -0.011958  -0.082746  0.000214  4.013898  0.0
C  C206  1  0.22372961  0.25567416  0.96970118  1  -0.06621  0.000331  -0.011893  -0.085109  0.000215  4.016486  0.0
C  C207  1  0.27643263  0.94907449  0.53026526  1  -0.061783  0.000329  -0.011908  -0.082695  0.000214  4.013805  0.0
C  C208  1  0.94893331  0.24414904  0.53028814  1  -0.042099  0.000332  -0.011101  -0.080106  0.000215  4.009131  0.0
C  C209  1  0.24433351  0.27626764  0.53029131  1  -0.066898  0.00033  -0.011908  -0.085062  0.000215  4.016311  0.0
C  C210  1  0.74415562  0.44893149  0.03028522  1  -0.042709  0.000332  -0.011067  -0.080029  0.000215  4.008857  0.0
C  C211  1  0.44907064  0.77642965  0.03026441  1  -0.062067  0.000329  -0.011862  -0.082545  0.000214  4.013943  0.0
C  C212  1  0.77627306  0.74432542  0.03029726  1  -0.066198  0.000331  -0.011882  -0.085032  0.000215  4.016534  0.0
C  C213  1  0.72356810  0.05093003  0.46973357  1  -0.062322  0.000329  -0.011881  -0.082608  0.000214  4.013893  0.0
C  C214  1  0.05106613  0.75586308  0.46971217  1  -0.042551  0.000332  -0.011132  -0.082122  0.000215  4.011956  0.0
C  C215  1  0.75566787  0.72373251  0.46970924  1  -0.067022  0.00033  -0.011893  -0.084951  0.000215  4.016414  0.0
C  C216  1  0.33592050  0.48042605  0.97530058  1  -0.085646  -0.000882  -0.067978  -0.0782  -0.000979  3.966129  -0.001
C  C217  1  0.48032699  0.20850827  0.97536999  1  -0.048614  -0.000873  -0.068182  -0.078682  -0.00097  3.968836  -0.001
C  C218  1  0.20870107  0.33571207  0.97531939  1  -0.022966  -0.000876  -0.067851  -0.077648  -0.000975  3.968718  -0.001
C  C219  1  0.29148965  0.01967252  0.52463350  1  -0.048149  -0.000873  -0.068227  -0.078728  -0.00097  3.969179  -0.001
C  C220  1  0.01957440  0.16406771  0.52470173  1  -0.085963  -0.000882  -0.067928  -0.078173  -0.000978  3.966107  -0.001
C  C221  1  0.16429691  0.29129152  0.52467426  1  -0.023078  -0.000876  -0.067877  -0.077775  -0.000975  3.968915  -0.001
C  C222  1  0.66407634  0.51957485  0.02469823  1  -0.085625  -0.000882  -0.068003  -0.078304  -0.000978  3.966003  -0.001
C  C223  1  0.51966922  0.79148648  0.02463055  1  -0.048138  -0.000873  -0.068233  -0.078794  -0.00097  3.969059  -0.001
C  C224  1  0.79130420  0.66428525  0.02468050  1  -0.022723  -0.000876  -0.067872  -0.077677  -0.000975  3.968859  -0.001
C  C225  1  0.70851303  0.98033001  0.47536650  1  -0.048056  -0.000873  -0.068257  -0.078804  -0.00097  3.969047  -0.001
C  C226  1  0.98042373  0.83594552  0.47529594  1  -0.085963  -0.000882  -0.067821  -0.07753  -0.000979  3.966812  -0.001
C  C227  1  0.83570513  0.70870602  0.47532678  1  -0.022732  -0.000876  -0.067855  -0.077719  -0.000975  3.968843  -0.001
C  C228  1  0.39835280  0.45836867  0.92652434  1  -0.040455  0.000319  -0.080878  -0.119344  0.000189  3.981728  0.0
C  C229  1  0.45827049  0.21684101  0.92661856  1  0.034308  0.000319  -0.080549  -0.118645  0.000189  3.981685  0.0
C  C230  1  0.21700436  0.39818519  0.92654665  1  0.041338  0.00032  -0.080968  -0.119047  0.00019  3.983104  0.0
C  C231  1  0.28316460  0.04172072  0.57338621  1  0.033856  0.000319  -0.080547  -0.118565  0.000189  3.981892  0.0
C  C232  1  0.04163022  0.10163605  0.57347980  1  -0.040798  0.000319  -0.080941  -0.119426  0.000189  3.981695  0.0
C  C233  1  0.10182096  0.28299274  0.57344461  1  0.041439  0.00032  -0.081048  -0.119159  0.00019  3.983197  0.0
C  C234  1  0.60164274  0.54163161  0.07347457  1  -0.040753  0.000319  -0.0808  -0.119139  0.000189  3.981699  0.0
C  C235  1  0.54172507  0.78315752  0.07338118  1  0.033556  0.000319  -0.080491  -0.118492  0.000189  3.981685  0.0
C  C236  1  0.78300155  0.60181303  0.07345324  1  0.041106  0.00032  -0.080991  -0.119132  0.00019  3.983182  0.0
C  C237  1  0.71684392  0.95827524  0.42661475  1  0.033719  0.000319  -0.080433  -0.11851  0.000189  3.981806  0.0
C  C238  1  0.95836854  0.89837220  0.42651627  1  -0.040635  0.000319  -0.081006  -0.119445  0.000189  3.981803  0.0
C  C239  1  0.89818043  0.71700507  0.42655576  1  0.041209  0.00032  -0.08102  -0.119169  0.00019  3.98316  0.0
C  C240  1  0.37991180  0.50899576  0.87407096  1  0.521642  -0.000779  0.057431  0.102376  -0.000881  3.922654  0.0
C  C241  1  0.50884145  0.23709307  0.87414233  1  0.452858  -0.000774  0.057985  0.103588  -0.000872  3.923991  0.0
C  C242  1  0.23712062  0.37984752  0.87408935  1  0.456002  -0.000777  0.057699  0.103234  -0.000876  3.921584  0.0
C  C243  1  0.26291032  0.99114910  0.62586154  1  0.452191  -0.000774  0.057939  0.103485  -0.000872  3.924061  0.0
C  C244  1  0.99100503  0.12007962  0.62593264  1  0.521888  -0.000779  0.057473  0.102416  -0.000881  3.92265  0.0
C  C245  1  0.12015722  0.26287700  0.62590178  1  0.455735  -0.000777  0.057635  0.103326  -0.000876  3.921564  0.0
C  C246  1  0.62008374  0.49100451  0.12592719  1  0.521527  -0.000779  0.057352  0.102333  -0.00088  3.922897  0.0
C  C247  1  0.49115410  0.76290780  0.12585720  1  0.452479  -0.000774  0.057936  0.103517  -0.000872  3.924065  0.0
C  C248  1  0.76288335  0.62015270  0.12591052  1  0.456188  -0.000777  0.057743  0.103288  -0.000876  3.92153  0.0
C  C249  1  0.73709366  0.00884878  0.37413893  1  0.452142  -0.000774  0.057869  0.103495  -0.000872  3.924267  0.0
C  C250  1  0.00899438  0.87992426  0.37406399  1  0.520523  -0.000779  0.057528  0.102588  -0.000881  3.9227  0.0
C  C251  1  0.87984417  0.73712140  0.37409844  1  0.455724  -0.000777  0.057618  0.103327  -0.000875  3.921485  0.0
C  C252  1  0.24263780  0.59721215  0.91536535  1  0.501248  -0.000652  0.055729  0.075567  -0.000757  3.913058  0.0
C  C253  1  0.59701921  0.24495250  0.91536136  1  0.534667  -0.000648  0.055157  0.074136  -0.000753  3.912594  0.0
C  C254  1  0.24499810  0.24257393  0.91533995  1  0.520395  -0.00065  0.05644  0.076421  -0.000756  3.915655  0.0
C  C255  1  0.25504686  0.90297693  0.58464139  1  0.533985  -0.000648  0.055164  0.074216  -0.000753  3.91243  0.0
C  C256  1  0.90279445  0.25735308  0.58463519  1  0.500943  -0.000652  0.055674  0.075474  -0.000757  3.912963  0.0
C  C257  1  0.25743120  0.25500490  0.58465367  1  0.521013  -0.00065  0.056508  0.076472  -0.000756  3.915217  0.0
C  C258  1  0.75735839  0.40279254  0.08463305  1  0.50133  -0.000652  0.055619  0.075472  -0.000757  3.912985  0.0
C  C259  1  0.40297572  0.75504163  0.08464081  1  0.534061  -0.000648  0.055111  0.074107  -0.000753  3.912679  0.0
C  C260  1  0.75500197  0.75742734  0.08465833  1  0.520498  -0.00065  0.056439  0.076374  -0.000756  3.915662  0.0
C  C261  1  0.74495581  0.09702500  0.41535722  1  0.533952  -0.000648  0.055146  0.07412  -0.000753  3.912461  0.0
C  C262  1  0.09720305  0.74265342  0.41536511  1  0.501145  -0.000652  0.055703  0.076141  -0.000757  3.913264  0.0
C  C263  1  0.74256954  0.74499495  0.41534712  1  0.521017  -0.00065  0.056487  0.076396  -0.000756  3.915305  0.0
C  C264  1  0.18232884  0.58110133  0.01839466  1  1.413325  3.5e-05  0.240379  0.481335  3.2e-05  4.146073  0.0
C  C265  1  0.58089491  0.21841332  0.01841610  1  1.403467  3.6e-05  0.240742  0.48252  3.3e-05  4.14315  0.0
C  C266  1  0.21860035  0.18219033  0.01840494  1  1.414192  3.6e-05  0.240808  0.484321  3.3e-05  4.141642  0.0
C  C267  1  0.28158461  0.91910443  0.48158695  1  1.403103  3.6e-05  0.240779  0.482409  3.3e-05  4.143293  0.0
C  C268  1  0.91890561  0.31766012  0.48160621  1  1.413706  3.5e-05  0.240373  0.481343  3.2e-05  4.146009  0.0
C  C269  1  0.31781775  0.28139483  0.48158953  1  1.413834  3.6e-05  0.240775  0.484222  3.3e-05  4.141634  0.0
C  C270  1  0.81766800  0.41890191  0.98160394  1  1.413632  3.5e-05  0.240349  0.481226  3.2e-05  4.146183  0.0
C  C271  1  0.41909678  0.78158513  0.98158656  1  1.403768  3.6e-05  0.240692  0.482157  3.3e-05  4.143176  0.0
C  C272  1  0.78140102  0.81780922  0.98159307  1  1.413867  3.6e-05  0.240901  0.484497  3.3e-05  4.141477  0.0
C  C273  1  0.71841416  0.08090209  0.51841149  1  1.40409  3.6e-05  0.240744  0.482336  3.3e-05  4.143133  0.0
C  C274  1  0.08109447  0.68235055  0.51839315  1  1.414429  3.5e-05  0.240166  0.48166  3.2e-05  4.146197  0.0
C  C275  1  0.68218559  0.71860391  0.51841165  1  1.41391  3.6e-05  0.240729  0.484013  3.3e-05  4.14183  0.0
N  N276  1  0.30347382  0.57780191  0.86855297  1  -1.215757  -0.000178  -0.325818  -0.234075  0.000112  3.481566  0.001
N  N277  1  0.57759239  0.25031203  0.86856742  1  -1.208055  -0.000185  -0.325613  -0.233405  0.000108  3.480695  0.001
N  N278  1  0.25025675  0.30346111  0.86854424  1  -1.218378  -0.000165  -0.325828  -0.233459  0.00012  3.481387  0.001
N  N279  1  0.24968743  0.92240082  0.63143642  1  -1.207783  -0.000182  -0.325605  -0.233417  0.00011  3.480876  0.001
N  N280  1  0.92220019  0.19651784  0.63144858  1  -1.216241  -0.000178  -0.325821  -0.234184  0.000112  3.48178  0.001
N  N281  1  0.19654279  0.24974253  0.63144945  1  -1.218346  -0.000166  -0.325852  -0.233568  0.00012  3.481305  0.001
N  N282  1  0.69652172  0.42219954  0.13144564  1  -1.21566  -0.000176  -0.325777  -0.234127  0.000113  3.48177  0.001
N  N283  1  0.42240576  0.74968423  0.13143301  1  -1.207915  -0.000185  -0.325542  -0.233354  0.000108  3.48078  0.001
N  N284  1  0.74974204  0.69654131  0.13145524  1  -1.218497  -0.000165  -0.325843  -0.233467  0.00012  3.481521  0.001
N  N285  1  0.75031330  0.07759844  0.36856375  1  -1.207907  -0.000182  -0.325558  -0.233363  0.00011  3.480958  0.001
N  N286  1  0.07779794  0.80348484  0.36854946  1  -1.215765  -0.000179  -0.325921  -0.234341  0.000111  3.481761  0.001
N  N287  1  0.80345795  0.75025615  0.36855087  1  -1.21831  -0.000167  -0.325855  -0.23356  0.000119  3.481207  0.001
N  N288  1  0.20446362  0.60093270  0.05541700  1  -1.225639  0.000447  -0.390979  -0.37316  0.000234  3.566848  0.0
N  N289  1  0.60071321  0.13942183  0.05546819  1  -1.243234  0.000448  -0.391674  -0.373514  0.000233  3.567386  0.0
N  N290  1  0.13950208  0.20429021  0.05533784  1  -1.227505  0.000448  -0.391218  -0.373612  0.000234  3.563488  0.0
N  N291  1  0.36057377  0.89928832  0.44453459  1  -1.243132  0.000448  -0.391591  -0.373231  0.000233  3.567329  0.0
N  N292  1  0.89907089  0.29552878  0.44458348  1  -1.225942  0.000447  -0.391068  -0.373136  0.000234  3.566857  0.0
N  N293  1  0.29571587  0.36049357  0.44465964  1  -1.22724  0.000448  -0.391287  -0.373527  0.000234  3.563433  0.0
N  N294  1  0.79553647  0.39906449  0.94458347  1  -1.225774  0.000447  -0.39101  -0.373209  0.000234  3.566817  0.0
N  N295  1  0.39928107  0.86057669  0.94453419  1  -1.243202  0.000448  -0.391708  -0.373219  0.000233  3.567045  0.0
N  N296  1  0.86049930  0.79570876  0.94466108  1  -1.227511  0.000449  -0.391214  -0.373634  0.000234  3.563538  0.0
N  N297  1  0.63942502  0.10071293  0.55546557  1  -1.243256  0.000448  -0.39172  -0.373476  0.000233  3.56711  0.0
N  N298  1  0.10093049  0.70448016  0.55541638  1  -1.225727  0.000447  -0.391004  -0.37303  0.000234  3.566411  0.0
N  N299  1  0.70428683  0.63950546  0.55534240  1  -1.227355  0.000448  -0.391188  -0.373425  0.000234  3.563387  0.0
O  O300  1  0.88472811  0.69795505  0.17247582  1  -1.107585  0.095801  -0.311125  -0.513612  0.06047  2.306568  0.087
O  O301  1  0.69776406  0.24497547  0.17250510  1  -1.10283  0.095825  -0.31033  -0.511695  0.060466  2.308461  0.087
O  O302  1  0.24506169  0.88450970  0.17241994  1  -1.11589  0.095845  -0.310207  -0.511679  0.060527  2.30745  0.087
O  O303  1  0.25501914  0.80224114  0.32749506  1  -1.10306  0.095819  -0.310327  -0.511845  0.060462  2.308734  0.087
O  O304  1  0.80204014  0.61526941  0.32753621  1  -1.107395  0.095803  -0.311272  -0.513735  0.060476  2.306237  0.087
O  O305  1  0.61549995  0.25494881  0.32757499  1  -1.115885  0.095827  -0.310406  -0.511913  0.060514  2.307502  0.087
O  O306  1  0.11527262  0.30204245  0.82752364  1  -1.107828  0.095803  -0.31109  -0.513606  0.060471  2.306508  0.087
O  O307  1  0.30224380  0.75501959  0.82749548  1  -1.102885  0.095824  -0.310334  -0.511787  0.060466  2.308396  0.087
O  O308  1  0.75493644  0.11548889  0.82757913  1  -1.116042  0.095843  -0.310231  -0.511747  0.060525  2.307468  0.087
O  O309  1  0.74497772  0.19775861  0.67250597  1  -1.102949  0.095817  -0.310274  -0.511725  0.060461  2.308695  0.087
O  O310  1  0.19795540  0.38473497  0.67246205  1  -1.106842  0.095811  -0.311231  -0.513626  0.06048  2.306368  0.087
O  O311  1  0.38450467  0.74505465  0.67242582  1  -1.116247  0.095831  -0.31045  -0.51194  0.060517  2.307696  0.087
O  O312  1  0.90496906  0.70173567  0.25307284  1  -1.105513  0.101574  -0.31652  -0.523018  0.063949  2.381095  0.092
O  O313  1  0.70188024  0.14015766  0.25304592  1  -1.099962  0.101632  -0.316222  -0.522401  0.063978  2.382001  0.092
O  O314  1  0.14026965  0.90490641  0.25295535  1  -1.110073  0.101677  -0.316008  -0.521851  0.063941  2.381812  0.092
O  O315  1  0.35984238  0.79811553  0.24695764  1  -1.099867  0.101633  -0.316396  -0.522626  0.06398  2.381796  0.092
O  O316  1  0.79825659  0.59503594  0.24693574  1  -1.105639  0.101572  -0.316521  -0.523  0.063947  2.381397  0.092
O  O317  1  0.59509149  0.35973817  0.24703968  1  -1.110304  0.101688  -0.315921  -0.521847  0.063949  2.381873  0.092
O  O318  1  0.09502907  0.29826350  0.74692531  1  -1.105558  0.101579  -0.316562  -0.52312  0.063953  2.380916  0.092
O  O319  1  0.29811208  0.85984343  0.74695553  1  -1.10004  0.101624  -0.316341  -0.522574  0.063975  2.382168  0.092
O  O320  1  0.85972915  0.09509192  0.74704554  1  -1.110246  0.101679  -0.315989  -0.521842  0.063943  2.381905  0.092
O  O321  1  0.64015448  0.20188539  0.75304386  1  -1.099976  0.101634  -0.316358  -0.522543  0.06398  2.381826  0.092
O  O322  1  0.20174026  0.40496439  0.75306437  1  -1.105755  0.101562  -0.316533  -0.522949  0.063941  2.381447  0.092
O  O323  1  0.40491052  0.64025700  0.75295773  1  -1.110241  0.101691  -0.315893  -0.521745  0.063951  2.38171  0.092
O  O324  1  0.13683370  0.75804659  0.24491646  1  -1.110189  0.090591  -0.312069  -0.518925  0.056888  2.339673  0.083
O  O325  1  0.75807560  0.86024966  0.24489053  1  -1.103487  0.090619  -0.312976  -0.520383  0.057088  2.338588  0.083
O  O326  1  0.86037966  0.13672623  0.24473353  1  -1.109604  0.090598  -0.312113  -0.519238  0.057014  2.341341  0.083
O  O327  1  0.63974572  0.74192789  0.25511239  1  -1.103477  0.090593  -0.313056  -0.520421  0.057071  2.338922  0.083
O  O328  1  0.74195355  0.36317053  0.25508248  1  -1.110015  0.090592  -0.312055  -0.518742  0.056889  2.339471  0.083
O  O329  1  0.36327313  0.63961867  0.25525889  1  -1.109051  0.090615  -0.31213  -0.51921  0.057026  2.341287  0.083
O  O330  1  0.86316576  0.24195089  0.75508602  1  -1.108284  0.090597  -0.31203  -0.518869  0.056889  2.339636  0.083
O  O331  1  0.24192384  0.13974898  0.75511012  1  -1.103446  0.090618  -0.312998  -0.520444  0.057087  2.338552  0.083
O  O332  1  0.13962039  0.86327033  0.75526210  1  -1.109064  0.09059  -0.312156  -0.519246  0.05701  2.341537  0.083
O  O333  1  0.36025177  0.25807449  0.74488703  1  -1.103495  0.09059  -0.313039  -0.520441  0.057069  2.338961  0.083
O  O334  1  0.25804526  0.63682605  0.74491924  1  -1.110193  0.090614  -0.312083  -0.518826  0.056903  2.339301  0.083
O  O335  1  0.63672957  0.36037802  0.74474297  1  -1.1092  0.090617  -0.312152  -0.519296  0.057028  2.341236  0.083
O  O336  1  0.25967896  0.72131934  0.17637516  1  -1.113401  0.093138  -0.314046  -0.521371  0.058888  2.384996  0.084
O  O337  1  0.72142908  0.84263556  0.17634366  1  -1.114403  0.093141  -0.313554  -0.520161  0.058983  2.383266  0.084
O  O338  1  0.84262033  0.25956030  0.17617065  1  -1.123358  0.093078  -0.31388  -0.521723  0.058813  2.38408  0.084
O  O339  1  0.65735874  0.77857351  0.32365937  1  -1.114185  0.093158  -0.313512  -0.520163  0.058993  2.383047  0.084
O  O340  1  0.77869565  0.24031699  0.32361569  1  -1.113401  0.093138  -0.314138  -0.521304  0.058889  2.385373  0.084
O  O341  1  0.24044490  0.65738105  0.32382905  1  -1.123301  0.093066  -0.31392  -0.521696  0.058805  2.384167  0.084
O  O342  1  0.74032115  0.27867377  0.82362788  1  -1.113549  0.093138  -0.314124  -0.52144  0.058888  2.384929  0.084
O  O343  1  0.27857164  0.15736720  0.82365485  1  -1.114419  0.09314  -0.313528  -0.520175  0.058984  2.383372  0.084
O  O344  1  0.15737977  0.74044217  0.82383118  1  -1.123256  0.093082  -0.313889  -0.521652  0.058814  2.384017  0.084
O  O345  1  0.34264069  0.22142629  0.67633945  1  -1.114009  0.093159  -0.313468  -0.520129  0.058994  2.382977  0.084
O  O346  1  0.22132061  0.75967504  0.67638199  1  -1.113383  0.093125  -0.314055  -0.521235  0.058881  2.385456  0.084
O  O347  1  0.75955584  0.34261763  0.67617165  1  -1.122961  0.09306  -0.313964  -0.52175  0.058801  2.384222  0.084
O  O348  1  0.10959672  0.58874862  0.02224782  1  -1.123566  0.000135  -0.302385  -0.479777  6.7e-05  2.046448  0.0
O  O349  1  0.58849775  0.27967063  0.02226014  1  -1.117432  0.000135  -0.302824  -0.479862  6.6e-05  2.04374  0.0
O  O350  1  0.27997666  0.10952570  0.02236048  1  -1.13659  0.000136  -0.30312  -0.480674  6.8e-05  2.043569  0.0
O  O351  1  0.22032747  0.91150127  0.47774445  1  -1.117441  0.000135  -0.302822  -0.479826  6.6e-05  2.043904  0.0
O  O352  1  0.91125800  0.39039271  0.47775527  1  -1.123412  0.000135  -0.302355  -0.479761  6.7e-05  2.046416  0.0
O  O353  1  0.39048197  0.22001567  0.47763414  1  -1.136855  0.000136  -0.303031  -0.480571  6.8e-05  2.043549  0.0
O  O354  1  0.89039881  0.41125869  0.97775008  1  -1.123739  0.000135  -0.302334  -0.479685  6.7e-05  2.04652  0.0
O  O355  1  0.41149134  0.72033068  0.97774246  1  -1.117962  0.000135  -0.302794  -0.479713  6.6e-05  2.043905  0.0
O  O356  1  0.72002472  0.89047328  0.97763959  1  -1.136518  0.000136  -0.303189  -0.480786  6.8e-05  2.043405  0.0
O  O357  1  0.77966936  0.08850842  0.52225368  1  -1.11779  0.000135  -0.302763  -0.479721  6.6e-05  2.043852  0.0
O  O358  1  0.08874078  0.60962026  0.52224346  1  -1.124209  0.000135  -0.302185  -0.479515  6.7e-05  2.046256  0.0
O  O359  1  0.60952009  0.77998189  0.52236882  1  -1.136843  0.000136  -0.303042  -0.480508  6.8e-05  2.043596  0.0
