# generated using pymatgen
data_CoH17C18(NO)4
_symmetry_space_group_name_H-M   'P 1'
_cell_length_a   12.61896563
_cell_length_b   14.29780505
_cell_length_c   24.87524197
_cell_angle_alpha   89.99989403
_cell_angle_beta   89.99975233
_cell_angle_gamma   107.85099017
_symmetry_Int_Tables_number   1
_chemical_formula_structural   CoH17C18(NO)4
_chemical_formula_sum   'Co8 H136 C144 N32 O32'
_cell_volume   4272.00875498
_cell_formula_units_Z   8
loop_
 _symmetry_equiv_pos_site_id
 _symmetry_equiv_pos_as_xyz
  1  'x, y, z'
loop_
 _atom_site_type_symbol
 _atom_site_label
 _atom_site_symmetry_multiplicity
 _atom_site_fract_x
 _atom_site_fract_y
 _atom_site_fract_z
 _atom_site_occupancy
 _atom_site_pbe_bader_charge
 _atom_site_pbe_bader_spin_density
 _atom_site_pbe_cm5_charge
 _atom_site_pbe_ddec_charge
 _atom_site_pbe_ddec_spin_density
 _atom_site_pbe_ddec_sum_bond_order
 _atom_site_pbe_magmom
Co  Co0  1  0.95084604  0.37915941  0.77677232  1  1.19184  2.551725  0.660023  0.783568  2.772895  2.574392  2.499
Co  Co1  1  0.54916011  0.12085094  0.27677293  1  1.191734  2.551742  0.660071  0.783639  2.772914  2.574249  2.499
Co  Co2  1  0.04916005  0.62084268  0.22322920  1  1.191838  2.551739  0.660068  0.783666  2.772903  2.574317  2.499
Co  Co3  1  0.45084154  0.87914746  0.72322939  1  1.191793  2.551734  0.660032  0.783492  2.772905  2.574365  2.499
Co  Co4  1  0.37744722  0.32533359  0.82331804  1  1.201827  2.567136  0.669778  0.812096  2.78082  2.526586  2.506
Co  Co5  1  0.12253230  0.17466140  0.32331723  1  1.201759  2.567155  0.669765  0.812062  2.780831  2.5267  2.506
Co  Co6  1  0.62253543  0.67466257  0.17668589  1  1.201786  2.567151  0.669764  0.812102  2.780821  2.526795  2.506
Co  Co7  1  0.87744737  0.82533989  0.67668590  1  1.201641  2.567155  0.669826  0.81215  2.780824  2.52666  2.506
H  H8  1  0.17767921  0.23271708  0.66809288  1  0.064484  0.001987  0.099894  0.123023  0.000756  0.976187  0.001
H  H9  1  0.32232492  0.26728332  0.16809798  1  0.064505  0.001987  0.09989  0.123035  0.000756  0.976239  0.001
H  H10  1  0.82231375  0.76727911  0.33190301  1  0.064347  0.001987  0.099899  0.123059  0.000756  0.9761  0.001
H  H11  1  0.67766969  0.73270847  0.83190476  1  0.064345  0.001987  0.099896  0.123011  0.000756  0.976329  0.001
H  H12  1  0.04196443  0.15091343  0.65984391  1  0.030524  0.000176  0.097236  0.107796  -6e-05  1.001266  0.0
H  H13  1  0.45802980  0.34908332  0.15984581  1  0.030371  0.000176  0.097265  0.107823  -5.9e-05  1.001137  0.0
H  H14  1  0.95801743  0.84908274  0.34015963  1  0.029939  0.000176  0.097246  0.107825  -6e-05  1.001115  0.0
H  H15  1  0.54196452  0.65090993  0.84015692  1  0.03023  0.000176  0.097211  0.107716  -5.9e-05  1.001302  0.0
H  H16  1  0.03552610  0.09957098  0.75593627  1  0.067421  0.001869  0.102031  0.095622  0.000663  0.980947  0.001
H  H17  1  0.46447380  0.40043548  0.25593328  1  0.067461  0.00187  0.102013  0.095599  0.000663  0.980845  0.001
H  H18  1  0.96447960  0.90043918  0.24406766  1  0.067356  0.00187  0.102039  0.095614  0.000663  0.98093  0.001
H  H19  1  0.53552414  0.59954530  0.74407186  1  0.067028  0.001869  0.102032  0.095672  0.000663  0.980934  0.001
H  H20  1  0.23616720  0.09562305  0.68854938  1  0.064003  0.002037  0.098089  0.088908  0.000852  0.992149  0.001
H  H21  1  0.26382196  0.40437352  0.18855204  1  0.063504  0.002039  0.098082  0.089024  0.000852  0.991996  0.001
H  H22  1  0.76382309  0.90437460  0.31144933  1  0.063461  0.002039  0.098104  0.08898  0.000853  0.992047  0.001
H  H23  1  0.73618496  0.59562636  0.81145069  1  0.06334  0.002039  0.098081  0.088906  0.000853  0.992154  0.001
H  H24  1  0.15063158  0.94733534  0.77805246  1  0.059187  0.000902  0.100142  0.12337  0.00023  0.971411  0.0
H  H25  1  0.34936300  0.55265886  0.27805733  1  0.059376  0.000902  0.10004  0.123234  0.00023  0.971559  0.0
H  H26  1  0.84936743  0.05266232  0.22194745  1  0.059217  0.000902  0.100118  0.123344  0.00023  0.971442  0.0
H  H27  1  0.65063301  0.44732778  0.72195063  1  0.058998  0.000903  0.100129  0.123367  0.00023  0.971481  0.0
H  H28  1  0.24883434  0.06041571  0.79299500  1  0.092693  0.000107  0.101954  0.124117  -0.000175  1.029825  0.0
H  H29  1  0.25115682  0.43958242  0.29299564  1  0.092625  0.000107  0.101963  0.124166  -0.000175  1.02987  0.0
H  H30  1  0.75116064  0.93958635  0.20700451  1  0.092696  0.000107  0.101952  0.124103  -0.000175  1.029822  0.0
H  H31  1  0.74883674  0.56040862  0.70700589  1  0.092898  0.000107  0.101964  0.124209  -0.000175  1.02984  0.0
H  H32  1  0.31335433  0.12729564  0.89087334  1  0.167452  0.000806  0.139245  0.110422  0.000188  0.992693  0.001
H  H33  1  0.18665377  0.37268284  0.39087700  1  0.16715  0.000806  0.139209  0.110394  0.000188  0.992714  0.001
H  H34  1  0.68665275  0.87267487  0.10912054  1  0.167002  0.000806  0.139207  0.110468  0.000189  0.992702  0.001
H  H35  1  0.81334985  0.62730749  0.60912452  1  0.167267  0.000806  0.139227  0.110411  0.000188  0.992749  0.001
H  H36  1  0.57808469  0.05500380  0.81476730  1  0.15623  0.001163  0.130769  0.137065  0.000525  1.007769  0.001
H  H37  1  0.92193246  0.44502103  0.31479651  1  0.156862  0.001163  0.130696  0.136928  0.000525  1.007993  0.001
H  H38  1  0.42193356  0.94503356  0.18520126  1  0.156621  0.001163  0.130704  0.136874  0.000525  1.007868  0.001
H  H39  1  0.07806979  0.55499060  0.68522913  1  0.15669  0.001163  0.130769  0.137037  0.000525  1.007746  0.001
H  H40  1  0.57823167  0.24276970  0.78256169  1  0.092763  0.000961  0.124073  0.121009  0.000225  0.98551  0.001
H  H41  1  0.92174751  0.25725451  0.28257783  1  0.093715  0.00096  0.124114  0.121033  0.000224  0.985642  0.001
H  H42  1  0.42173726  0.75726021  0.21742416  1  0.09341  0.00096  0.124115  0.121056  0.000224  0.985508  0.001
H  H43  1  0.07822590  0.74275852  0.71743937  1  0.092707  0.000961  0.124101  0.121128  0.000225  0.985467  0.001
H  H44  1  0.44506689  0.92267252  0.86748044  1  0.118591  0.000227  0.121447  0.128655  6.1e-05  1.006829  0.0
H  H45  1  0.05496910  0.57733371  0.36750560  1  0.119144  0.000227  0.121571  0.128743  6.1e-05  1.006891  0.0
H  H46  1  0.55497926  0.07733773  0.13248812  1  0.119168  0.000227  0.121571  0.128743  6.1e-05  1.006954  0.0
H  H47  1  0.94505411  0.42267208  0.63251401  1  0.118922  0.000227  0.121514  0.128718  6.1e-05  1.006762  0.0
H  H48  1  0.31928078  0.94044853  0.89074425  1  0.055334  0.000171  0.114573  0.104122  5.2e-05  0.965388  0.0
H  H49  1  0.18075024  0.55953699  0.39076636  1  0.054976  0.000171  0.114599  0.104216  5.2e-05  0.965773  0.0
H  H50  1  0.68075764  0.05953013  0.10923074  1  0.054867  0.000171  0.114665  0.10427  5.2e-05  0.965858  0.0
H  H51  1  0.81926790  0.44045411  0.60925085  1  0.05515  0.000171  0.114568  0.104147  5.2e-05  0.965624  0.0
H  H52  1  0.46330722  0.48995709  0.91451416  1  0.1452  0.000859  0.117784  0.120056  0.000247  1.027886  0.001
H  H53  1  0.03667308  0.01004249  0.41451210  1  0.145568  0.000859  0.117836  0.120045  0.000247  1.027754  0.001
H  H54  1  0.53668336  0.51003909  0.08549138  1  0.14555  0.000859  0.117774  0.120034  0.000247  1.027827  0.001
H  H55  1  0.96331200  0.98996763  0.58549384  1  0.145611  0.000859  0.117707  0.120057  0.000247  1.0278  0.001
H  H56  1  0.32309898  0.50261318  0.99970222  1  0.131916  0.000849  0.1266  0.133785  0.00033  1.000061  0.0
H  H57  1  0.17688236  0.99738038  0.49969572  1  0.132096  0.000849  0.126609  0.133863  0.00033  0.999911  0.0
H  H58  1  0.67689236  0.49738520  0.00030413  1  0.132005  0.00085  0.126611  0.133776  0.00033  0.999754  0.0
H  H59  1  0.82310521  0.00262313  0.50030661  1  0.13206  0.00085  0.12656  0.133718  0.00033  0.999917  0.0
H  H60  1  0.15748483  0.26669376  0.89601549  1  0.185145  0.000593  0.135913  0.118193  4.7e-05  1.029377  0.0
H  H61  1  0.34249260  0.23329932  0.39600771  1  0.185244  0.000593  0.135978  0.11829  4.7e-05  1.029248  0.0
H  H62  1  0.84249001  0.73331193  0.10398884  1  0.185108  0.000593  0.13598  0.118266  4.7e-05  1.029367  0.0
H  H63  1  0.65749988  0.76669319  0.60398416  1  0.185183  0.000593  0.135952  0.118247  4.7e-05  1.029304  0.0
H  H64  1  0.14322281  0.33874956  0.03474144  1  0.064574  0.000256  0.11934  0.105547  0.000107  0.952886  0.0
H  H65  1  0.35676351  0.16124867  0.53473202  1  0.064396  0.000256  0.119303  0.105357  0.000107  0.952871  0.0
H  H66  1  0.85676757  0.66125984  0.96526692  1  0.064557  0.000256  0.119297  0.105405  0.000107  0.952896  0.0
H  H67  1  0.64324388  0.83875489  0.46525986  1  0.064791  0.000256  0.119311  0.105497  0.000107  0.95281  0.0
H  H68  1  0.05849811  0.28306234  0.97919750  1  0.064966  7.7e-05  0.120158  0.103617  2e-06  0.960958  0.0
H  H69  1  0.44148362  0.21693612  0.47918671  1  0.065027  7.7e-05  0.120191  0.103547  2e-06  0.960959  0.0
H  H70  1  0.94148784  0.71694338  0.02081046  1  0.064917  7.7e-05  0.120187  0.10363  2e-06  0.960951  0.0
H  H71  1  0.55851117  0.78306080  0.52080477  1  0.065102  7.7e-05  0.120179  0.103662  2e-06  0.960979  0.0
H  H72  1  0.21457717  0.41466332  0.75988803  1  0.137405  0.001259  0.1207  0.124661  0.000357  1.036951  0.001
H  H73  1  0.28543856  0.08532479  0.25988255  1  0.137524  0.001257  0.120747  0.1247  0.000357  1.036862  0.001
H  H74  1  0.78543916  0.58532483  0.24011510  1  0.137314  0.001258  0.120722  0.124695  0.000357  1.036903  0.001
H  H75  1  0.71457305  0.91467951  0.74012059  1  0.137547  0.001258  0.120749  0.124705  0.000357  1.036895  0.001
H  H76  1  0.36547451  0.59481486  0.78714218  1  0.139716  0.000927  0.125122  0.131345  0.000237  1.030344  0.0
H  H77  1  0.13453818  0.90518153  0.28714592  1  0.139935  0.000927  0.125131  0.131457  0.000237  1.030145  0.0
H  H78  1  0.63453193  0.40518135  0.21285693  1  0.139858  0.000927  0.125114  0.131439  0.000237  1.0301  0.0
H  H79  1  0.86546485  0.09483010  0.71286163  1  0.139848  0.000926  0.125137  0.131465  0.000237  1.030264  0.0
H  H80  1  0.03830357  0.59622827  0.82478800  1  0.181006  0.000539  0.136099  0.112738  1.7e-05  1.018574  0.0
H  H81  1  0.46171226  0.90377817  0.32479666  1  0.181014  0.000539  0.136071  0.112694  1.7e-05  1.018603  0.0
H  H82  1  0.96170071  0.40377087  0.17520107  1  0.180994  0.000539  0.136072  0.112712  1.7e-05  1.018564  0.0
H  H83  1  0.53828710  0.09621362  0.67520124  1  0.180926  0.000539  0.136078  0.112732  1.7e-05  1.018584  0.0
H  H84  1  0.19977960  0.76201388  0.82777504  1  0.075054  0.000338  0.115077  0.10247  8.6e-05  0.967864  0.0
H  H85  1  0.30022538  0.73799106  0.32778865  1  0.075077  0.000338  0.115096  0.102494  8.6e-05  0.967875  0.0
H  H86  1  0.80020653  0.23797862  0.17221684  1  0.074654  0.000338  0.115116  0.102514  8.6e-05  0.967918  0.0
H  H87  1  0.69976149  0.26200585  0.67221367  1  0.075096  0.000338  0.115038  0.10247  8.6e-05  0.967779  0.0
H  H88  1  0.33583886  0.76023184  0.81399774  1  0.129029  0.000282  0.119765  0.114978  3.2e-05  1.017148  0.0
H  H89  1  0.16418140  0.73976880  0.31400562  1  0.129539  0.000282  0.119698  0.114836  3.2e-05  1.017155  0.0
H  H90  1  0.66416215  0.23977390  0.18599534  1  0.129276  0.000282  0.119793  0.114955  3.2e-05  1.017265  0.0
H  H91  1  0.83581539  0.26023620  0.68599872  1  0.129471  0.000282  0.119689  0.114777  3.2e-05  1.017261  0.0
H  H92  1  0.08463199  0.82394674  0.16024635  1  0.144104  0.000794  0.124929  0.129838  0.000107  0.997376  0.001
H  H93  1  0.41536181  0.67604450  0.66024644  1  0.144159  0.000794  0.12491  0.129809  0.000107  0.997326  0.001
H  H94  1  0.91537391  0.17605021  0.83975678  1  0.144132  0.000794  0.124882  0.129797  0.000107  0.997371  0.001
H  H95  1  0.58462578  0.32395681  0.33975629  1  0.144117  0.000795  0.124917  0.129841  0.000107  0.997062  0.001
H  H96  1  0.25493592  0.88559185  0.08360688  1  0.088599  0.000845  0.120934  0.122341  0.000308  1.019917  0.0
H  H97  1  0.24504246  0.61440791  0.58361302  1  0.088591  0.000845  0.120964  0.12226  0.000308  1.019858  0.0
H  H98  1  0.74505672  0.11440801  0.91639143  1  0.088587  0.000845  0.120938  0.122279  0.000308  1.019928  0.0
H  H99  1  0.75494631  0.38558533  0.41639212  1  0.088638  0.000845  0.120942  0.122374  0.000308  1.019872  0.0
H  H100  1  0.23428851  0.59977122  0.13709920  1  0.20223  0.000455  0.136135  0.117378  -4.7e-05  1.03715  0.0
H  H101  1  0.26570671  0.90023045  0.63710580  1  0.202048  0.000455  0.136195  0.117493  -4.7e-05  1.03723  0.0
H  H102  1  0.76571361  0.40023086  0.86289750  1  0.202149  0.000455  0.136155  0.117428  -4.7e-05  1.037093  0.0
H  H103  1  0.73428698  0.09977015  0.36289653  1  0.202247  0.000454  0.136141  0.117442  -4.7e-05  1.037149  0.0
H  H104  1  0.38938471  0.67813364  0.07949111  1  0.12462  0.000114  0.122806  0.125752  2e-05  0.978561  0.0
H  H105  1  0.11060894  0.82187351  0.57949772  1  0.124573  0.000114  0.122796  0.125557  2e-05  0.97871  0.0
H  H106  1  0.61061215  0.32186696  0.92050318  1  0.124428  0.000114  0.122787  0.125609  2e-05  0.978775  0.0
H  H107  1  0.88938243  0.17812267  0.42050541  1  0.12436  0.000114  0.122766  0.125611  2e-05  0.978729  0.0
H  H108  1  0.42834182  0.80692461  0.07047038  1  0.08603  0.000274  0.110111  0.092381  4.6e-05  1.018553  0.0
H  H109  1  0.07164273  0.69307891  0.57047641  1  0.084734  0.000274  0.1101  0.092286  4.6e-05  1.018534  0.0
H  H110  1  0.57165240  0.19307525  0.92952471  1  0.085921  0.000274  0.110142  0.092373  4.6e-05  1.018473  0.0
H  H111  1  0.92835305  0.30692315  0.42952391  1  0.084778  0.000274  0.110095  0.092332  4.6e-05  1.018486  0.0
H  H112  1  0.15751697  0.72462297  0.01650541  1  0.060604  8e-06  0.093348  0.087412  -9e-06  1.061513  0.0
H  H113  1  0.34247822  0.77539852  0.51651479  1  0.060397  8e-06  0.093396  0.087553  -9e-06  1.061522  0.0
H  H114  1  0.84248229  0.27539379  0.98348888  1  0.060392  8e-06  0.093378  0.087497  -9e-06  1.061521  0.0
H  H115  1  0.65750624  0.22460058  0.48348512  1  0.060204  8e-06  0.093366  0.087472  -9e-06  1.06153  0.0
H  H116  1  0.49238986  0.72566420  0.98280721  1  0.043624  3e-06  0.103128  0.105785  -1.5e-05  0.985545  0.0
H  H117  1  0.00760967  0.77432657  0.48281136  1  0.043468  3e-06  0.10311  0.105747  -1.5e-05  0.985717  0.0
H  H118  1  0.50760455  0.27432245  0.01718587  1  0.043475  3e-06  0.103125  0.10577  -1.5e-05  0.985711  0.0
H  H119  1  0.99239841  0.22568360  0.51718936  1  0.043534  3e-06  0.103152  0.105826  -1.5e-05  0.985564  0.0
H  H120  1  0.60148918  0.94420470  0.92698279  1  0.084117  2.6e-05  0.107769  0.118549  -2e-05  0.993804  0.0
H  H121  1  0.89854727  0.55579195  0.42700765  1  0.084591  2.6e-05  0.107728  0.11855  -2e-05  0.993811  0.0
H  H122  1  0.39855910  0.05578646  0.07298738  1  0.084524  2.6e-05  0.1078  0.11875  -2e-05  0.993773  0.0
H  H123  1  0.10146954  0.44419987  0.57300996  1  0.084123  2.6e-05  0.107752  0.118473  -2e-05  0.99377  0.0
H  H124  1  0.31813241  0.02604832  0.98065905  1  0.055617  1.4e-05  0.099687  0.097825  -1e-05  1.000189  0.0
H  H125  1  0.18189604  0.47393627  0.48067990  1  0.055491  1.4e-05  0.099662  0.097811  -1e-05  1.000431  0.0
H  H126  1  0.68191251  0.97393769  0.01931313  1  0.055422  1.4e-05  0.099669  0.097736  -1e-05  1.000412  0.0
H  H127  1  0.81811995  0.52605776  0.51933730  1  0.055807  1.4e-05  0.099704  0.097737  -1e-05  1.000392  0.0
H  H128  1  0.45266739  0.72236769  0.88571433  1  0.08043  3.7e-05  0.100218  0.100633  -5.4e-05  1.057963  0.0
H  H129  1  0.04733507  0.77762220  0.38572161  1  0.080619  3.7e-05  0.100205  0.100627  -5.4e-05  1.058027  0.0
H  H130  1  0.54732544  0.27761895  0.11427755  1  0.080647  3.7e-05  0.100183  0.100636  -5.4e-05  1.057955  0.0
H  H131  1  0.95266883  0.22238502  0.61428273  1  0.080604  3.7e-05  0.100219  0.100684  -5.4e-05  1.058022  0.0
H  H132  1  0.11748812  0.71956203  0.91909165  1  0.069446  1.5e-05  0.09617  0.093359  1e-06  1.011084  0.0
H  H133  1  0.38251378  0.78045923  0.41910343  1  0.069075  1.5e-05  0.096176  0.093374  1e-06  1.011225  0.0
H  H134  1  0.88250404  0.28045251  0.08090183  1  0.069078  1.5e-05  0.096186  0.093351  1e-06  1.011261  0.0
H  H135  1  0.61747597  0.21953915  0.58090010  1  0.069007  1.5e-05  0.096162  0.09328  1e-06  1.011224  0.0
H  H136  1  0.01788817  0.42341815  0.91203872  1  0.084785  -2.7e-05  0.103105  0.103656  -0.000193  1.021337  0.0
H  H137  1  0.48210225  0.07657853  0.41203282  1  0.084606  -2.6e-05  0.10308  0.103585  -0.000193  1.021407  0.0
H  H138  1  0.98210040  0.57658831  0.08796562  1  0.084669  -2.7e-05  0.103096  0.103644  -0.000193  1.021298  0.0
H  H139  1  0.51789496  0.92341619  0.58796107  1  0.084645  -2.6e-05  0.103123  0.103719  -0.000193  1.02124  0.0
H  H140  1  0.08464676  0.45492677  0.08241333  1  0.072432  7.3e-05  0.10568  0.109354  1.3e-05  1.006781  0.0
H  H141  1  0.41534741  0.04507706  0.58240673  1  0.072662  7.3e-05  0.105711  0.10939  1.3e-05  1.006721  0.0
H  H142  1  0.91534521  0.54508263  0.91759221  1  0.072542  7.3e-05  0.105689  0.109351  1.3e-05  1.006601  0.0
H  H143  1  0.58465370  0.95492208  0.41758716  1  0.072439  7.3e-05  0.10567  0.109288  1.3e-05  1.006715  0.0
C  C144  1  0.05024853  0.28147596  0.70364843  1  1.561863  0.003227  0.19716  0.612176  0.002823  4.179792  0.001
C  C145  1  0.44975676  0.21852642  0.20365249  1  1.547306  0.003295  0.19727  0.612268  0.002823  4.179893  0.001
C  C146  1  0.94975438  0.71852612  0.29635310  1  1.561805  0.003228  0.197116  0.612167  0.002824  4.179814  0.001
C  C147  1  0.55024340  0.78146538  0.79634662  1  1.547179  0.003294  0.197197  0.61219  0.002822  4.179793  0.001
C  C148  1  0.09857823  0.19949431  0.68917459  1  -0.042166  0.005697  -0.166395  -0.319013  0.003104  3.942381  0.004
C  C149  1  0.40142088  0.30050815  0.18917948  1  -0.042734  0.005697  -0.166401  -0.318933  0.003103  3.9423  0.004
C  C150  1  0.90141787  0.80050409  0.31082372  1  -0.041349  0.005696  -0.166411  -0.319006  0.003103  3.942311  0.004
C  C151  1  0.59857059  0.69948142  0.81082285  1  -0.042467  0.005697  -0.166373  -0.318753  0.003103  3.942515  0.004
C  C152  1  0.11538464  0.13769799  0.73670259  1  0.009184  0.005942  -0.090961  -0.10858  0.003188  3.853411  0.004
C  C153  1  0.38461040  0.36231224  0.23670221  1  0.009652  0.005944  -0.090974  -0.108686  0.00319  3.853453  0.004
C  C154  1  0.88461695  0.86230482  0.26329894  1  0.009688  0.005943  -0.090992  -0.10866  0.003189  3.853507  0.004
C  C155  1  0.61538500  0.63767954  0.76330052  1  0.010352  0.005942  -0.090988  -0.108815  0.003189  3.853792  0.004
C  C156  1  0.18852739  0.20036898  0.78043270  1  1.540709  0.00134  0.201991  0.592311  0.001035  4.137349  0.0
C  C157  1  0.31147688  0.29964615  0.28043738  1  1.540475  0.001341  0.202049  0.592571  0.001037  4.137516  0.0
C  C158  1  0.81147986  0.79964339  0.21956400  1  1.542267  0.001343  0.202012  0.592396  0.001038  4.137093  0.0
C  C159  1  0.68851767  0.70035004  0.71956535  1  1.542  0.001345  0.202148  0.592568  0.001037  4.137696  0.0
C  C160  1  0.16729972  0.05945220  0.71579061  1  0.007133  0.007848  -0.087322  -0.098432  0.004133  3.816411  0.006
C  C161  1  0.33268927  0.44055374  0.21579107  1  0.008105  0.007847  -0.087351  -0.098718  0.004134  3.816665  0.006
C  C162  1  0.83269559  0.94054619  0.28421051  1  0.007608  0.007846  -0.08731  -0.098502  0.004133  3.816387  0.006
C  C163  1  0.66731584  0.55944320  0.78421407  1  0.0084  0.007849  -0.087317  -0.098473  0.004135  3.816741  0.006
C  C164  1  0.21527502  0.00905137  0.75982916  1  -0.055913  0.002326  -0.166044  -0.309647  0.001293  3.890877  0.001
C  C165  1  0.28471543  0.49094843  0.25983328  1  -0.05639  0.002326  -0.165854  -0.309493  0.001293  3.890995  0.001
C  C166  1  0.78472473  0.99095070  0.24017076  1  -0.056276  0.002327  -0.166018  -0.309588  0.001294  3.890833  0.001
C  C167  1  0.71528102  0.50904409  0.74017105  1  -0.056167  0.002327  -0.166042  -0.309876  0.001294  3.891075  0.001
C  C168  1  0.08227608  0.97947437  0.68314892  1  1.551796  0.001955  0.202274  0.589128  0.001791  4.145916  0.0
C  C169  1  0.41771273  0.52053288  0.18315126  1  1.551325  0.001956  0.202172  0.589094  0.001792  4.145994  0.0
C  C170  1  0.91771208  0.02052401  0.31685421  1  1.55146  0.001957  0.202175  0.588951  0.001792  4.146264  0.0
C  C171  1  0.58230002  0.47946555  0.81686072  1  1.550653  0.001959  0.202205  0.589139  0.001791  4.145906  0.0
C  C172  1  0.30996990  0.97433960  0.73993325  1  1.524828  0.000195  0.197148  0.611918  -0.000837  4.15252  -0.002
C  C173  1  0.19002370  0.52565997  0.23993929  1  1.525067  0.000194  0.197145  0.612008  -0.000839  4.152575  -0.002
C  C174  1  0.69003061  0.02566468  0.26006305  1  1.52506  0.000192  0.1971  0.611823  -0.00084  4.152636  -0.002
C  C175  1  0.80997827  0.47433476  0.76006425  1  1.525026  0.000195  0.197229  0.61226  -0.000839  4.152241  -0.002
C  C176  1  0.38733009  0.13537548  0.86693379  1  0.93664  0.000956  0.137814  0.072358  0.000373  3.947259  0.001
C  C177  1  0.11267728  0.36461636  0.36694124  1  0.937176  0.000957  0.137875  0.072235  0.000374  3.947161  0.001
C  C178  1  0.61267594  0.86461265  0.13305849  1  0.93734  0.000958  0.137826  0.072077  0.000375  3.9469  0.001
C  C179  1  0.88732386  0.63538057  0.63306591  1  0.936657  0.000957  0.137709  0.072069  0.000373  3.947053  0.001
C  C180  1  0.52596819  0.09967689  0.82597527  1  0.34906  0.00369  0.009925  -0.091693  0.001858  3.886538  0.003
C  C181  1  0.97404466  0.40034492  0.32599838  1  0.348569  0.003692  0.010185  -0.09144  0.001859  3.886393  0.003
C  C182  1  0.47404525  0.90034651  0.17399852  1  0.348911  0.003691  0.010191  -0.091255  0.001858  3.886601  0.003
C  C183  1  0.02595619  0.59967184  0.67401922  1  0.34872  0.003691  0.009895  -0.091756  0.001858  3.886667  0.003
C  C184  1  0.52394418  0.19135390  0.81023387  1  0.39288  0.002277  0.003019  -0.021946  0.00123  3.9752  0.002
C  C185  1  0.97604651  0.30865841  0.31024622  1  0.392389  0.002278  0.002898  -0.02227  0.001231  3.975447  0.002
C  C186  1  0.47604020  0.80866796  0.18975359  1  0.392651  0.002278  0.00301  -0.022171  0.001231  3.975424  0.002
C  C187  1  0.02393341  0.69134362  0.68976897  1  0.393337  0.002276  0.002968  -0.022152  0.00123  3.975538  0.002
C  C188  1  0.41033132  0.97152625  0.89077952  1  0.324227  0.00118  -0.047546  -0.123  0.000678  3.868502  0.001
C  C189  1  0.08969922  0.52847395  0.39080346  1  0.324326  0.00118  -0.047566  -0.123393  0.000678  3.869325  0.001
C  C190  1  0.58971157  0.02847224  0.10919186  1  0.324348  0.00118  -0.047597  -0.123421  0.000678  3.869533  0.001
C  C191  1  0.91031293  0.47152962  0.60921696  1  0.323818  0.00118  -0.047602  -0.123224  0.000678  3.868993  0.001
C  C192  1  0.37837186  0.44668807  0.92360565  1  0.382825  0.002547  -0.003322  -0.03339  0.00145  4.0045  0.002
C  C193  1  0.12160679  0.05330925  0.42360296  1  0.382899  0.002537  -0.003354  -0.033272  0.001448  4.00388  0.002
C  C194  1  0.62161732  0.55331325  0.07639910  1  0.382057  0.002546  -0.003291  -0.033234  0.001448  4.004409  0.002
C  C195  1  0.87837738  0.94669132  0.57640259  1  0.382576  0.002546  -0.003314  -0.033383  0.001449  4.00433  0.002
C  C196  1  0.31081136  0.45266989  0.96589837  1  0.312224  0.003383  -0.00122  -0.108595  0.001645  3.916389  0.002
C  C197  1  0.18917407  0.04732058  0.46589514  1  0.312764  0.003385  -0.001266  -0.108782  0.001646  3.915807  0.002
C  C198  1  0.68917887  0.54733217  0.03411079  1  0.312174  0.003383  -0.001141  -0.108568  0.001645  3.915998  0.002
C  C199  1  0.81082177  0.95267708  0.53411000  1  0.311639  0.003384  -0.00117  -0.108574  0.001646  3.916042  0.002
C  C200  1  0.22147936  0.32919883  0.91264840  1  0.941741  0.00244  0.138053  0.080022  0.001181  3.907411  0.002
C  C201  1  0.27850239  0.17079342  0.41264283  1  0.941746  0.002438  0.137999  0.080017  0.001182  3.90711  0.002
C  C202  1  0.77850027  0.67080467  0.08735634  1  0.941463  0.002438  0.137903  0.079865  0.00118  3.907371  0.002
C  C203  1  0.72148927  0.82920129  0.58735186  1  0.942041  0.002439  0.137991  0.080004  0.001182  3.907136  0.002
C  C204  1  0.11581083  0.35254201  0.99434459  1  0.304118  0.000945  -0.038044  -0.107075  0.000585  3.911186  0.001
C  C205  1  0.38417181  0.14745489  0.49433319  1  0.304468  0.000944  -0.037993  -0.106671  0.000585  3.911068  0.001
C  C206  1  0.88417298  0.64746443  0.00566498  1  0.304394  0.000944  -0.037961  -0.106888  0.000584  3.911061  0.001
C  C207  1  0.61582194  0.85254130  0.50565748  1  0.303923  0.000945  -0.038031  -0.107078  0.000585  3.910859  0.001
C  C208  1  0.20024599  0.47867825  0.77800442  1  0.405487  0.004852  -0.001527  -0.029521  0.003012  3.981287  0.004
C  C209  1  0.29977182  0.02131636  0.27800219  1  0.406564  0.004849  -0.00159  -0.029543  0.003011  3.980931  0.004
C  C210  1  0.79976790  0.52131431  0.22199590  1  0.406863  0.00485  -0.001658  -0.029713  0.003012  3.981184  0.004
C  C211  1  0.70023534  0.97868425  0.72199893  1  0.40672  0.004849  -0.00158  -0.029576  0.003011  3.981323  0.004
C  C212  1  0.27603643  0.56690434  0.79175692  1  0.312739  0.003145  0.003034  -0.09822  0.001592  3.892023  0.002
C  C213  1  0.22397095  0.93309054  0.29176044  1  0.311793  0.003145  0.003003  -0.098377  0.001592  3.891655  0.002
C  C214  1  0.72397026  0.43309261  0.20824058  1  0.311734  0.003144  0.003123  -0.09822  0.001591  3.891806  0.002
C  C215  1  0.77603425  0.06691815  0.70824551  1  0.311852  0.003147  0.003022  -0.098302  0.001592  3.891699  0.002
C  C216  1  0.10630494  0.57018698  0.81194826  1  0.943414  0.005067  0.137477  0.078552  0.002757  3.929428  0.004
C  C217  1  0.39370980  0.92981367  0.31195423  1  0.943743  0.005066  0.137581  0.07872  0.002756  3.929325  0.004
C  C218  1  0.89370045  0.42980850  0.18804482  1  0.943424  0.005065  0.137511  0.078579  0.002756  3.929629  0.004
C  C219  1  0.60628801  0.07017592  0.68804609  1  0.944023  0.005065  0.137496  0.078559  0.002756  3.929332  0.004
C  C220  1  0.25978766  0.72217710  0.83597834  1  0.269123  0.001112  -0.047561  -0.118501  0.000675  3.893448  0.001
C  C221  1  0.24022615  0.77783294  0.33598922  1  0.268583  0.001112  -0.047488  -0.118353  0.000675  3.893815  0.001
C  C222  1  0.74021151  0.27782791  0.16401434  1  0.269317  0.001112  -0.047558  -0.118501  0.000675  3.893914  0.001
C  C223  1  0.75977172  0.22217060  0.66401431  1  0.268581  0.001111  -0.047378  -0.118176  0.000675  3.893558  0.001
C  C224  1  0.28223179  0.72035191  0.89544386  1  -0.013878  0.000217  -0.016556  0.080351  8.7e-05  3.987585  0.0
C  C225  1  0.21777588  0.77965335  0.39545399  1  -0.013733  0.000218  -0.016572  0.080422  8.7e-05  3.987829  0.0
C  C226  1  0.71776871  0.27965237  0.10454962  1  -0.013368  0.000217  -0.016507  0.080419  8.7e-05  3.98777  0.0
C  C227  1  0.78222148  0.22034872  0.60454753  1  -0.014036  0.000217  -0.016529  0.080463  8.7e-05  3.987568  0.0
C  C228  1  0.13985207  0.78647357  0.14346175  1  0.319215  0.003322  -0.00225  -0.035217  0.001988  3.993089  0.003
C  C229  1  0.36014051  0.71352292  0.64346232  1  0.318919  0.003322  -0.002291  -0.035329  0.001989  3.992937  0.003
C  C230  1  0.86015640  0.21352853  0.85654098  1  0.318981  0.003322  -0.002211  -0.035184  0.001989  3.992959  0.003
C  C231  1  0.63986037  0.28647328  0.35654122  1  0.319268  0.00332  -0.002229  -0.035191  0.001989  3.993238  0.003
C  C232  1  0.22322965  0.81767841  0.10591949  1  0.373477  0.002488  -0.004537  -0.121886  0.001319  3.957742  0.002
C  C233  1  0.27675271  0.68232196  0.60592630  1  0.374155  0.002488  -0.004515  -0.12158  0.001319  3.957744  0.002
C  C234  1  0.77676274  0.18232072  0.89407600  1  0.374007  0.002488  -0.004554  -0.121745  0.001319  3.957627  0.002
C  C235  1  0.72323149  0.31767641  0.39407683  1  0.373462  0.002488  -0.004586  -0.121983  0.001319  3.95779  0.002
C  C236  1  0.21352907  0.66774201  0.13316877  1  0.961456  0.003542  0.145192  0.096606  0.001924  3.889152  0.003
C  C237  1  0.28646200  0.83225674  0.63317138  1  0.961264  0.003545  0.145045  0.096408  0.001927  3.889178  0.003
C  C238  1  0.78646493  0.33225492  0.86682994  1  0.961591  0.003544  0.145063  0.09645  0.001925  3.889315  0.003
C  C239  1  0.71353486  0.16774386  0.36682934  1  0.960753  0.003547  0.145125  0.096407  0.001927  3.889218  0.003
C  C240  1  0.35957215  0.73845936  0.06511376  1  0.28701  0.000874  -0.044906  -0.118346  0.000521  3.891079  0.001
C  C241  1  0.14041455  0.76154566  0.56511917  1  0.288391  0.000874  -0.044781  -0.117662  0.000521  3.890609  0.001
C  C242  1  0.64042017  0.26154416  0.93488174  1  0.287301  0.000874  -0.044808  -0.117895  0.000521  3.890869  0.001
C  C243  1  0.85958234  0.23845274  0.43488276  1  0.28849  0.000874  -0.044835  -0.117994  0.000521  3.890746  0.001
C  C244  1  0.32799929  0.72680406  0.00642331  1  -0.091834  0.000446  -0.011465  0.091891  0.000241  3.979794  0.0
C  C245  1  0.17199382  0.77320428  0.50643146  1  -0.092527  0.000446  -0.011518  0.091773  0.000241  3.980058  0.0
C  C246  1  0.67199198  0.27319873  0.99357138  1  -0.092398  0.000446  -0.011494  0.091731  0.000241  3.979928  0.0
C  C247  1  0.82800326  0.22679926  0.49357168  1  -0.09245  0.000446  -0.011426  0.091931  0.000241  3.97962  0.0
C  C248  1  0.22244152  0.72364490  0.98790373  1  -0.03921  3.8e-05  -0.102445  -0.146121  1.6e-05  4.022644  0.0
C  C249  1  0.27755076  0.77636858  0.48791574  1  -0.038836  3.8e-05  -0.102533  -0.146447  1.7e-05  4.023154  0.0
C  C250  1  0.77755153  0.27636303  0.01208694  1  -0.038824  3.8e-05  -0.102532  -0.14628  1.7e-05  4.022752  0.0
C  C251  1  0.72243817  0.22363200  0.51208578  1  -0.038791  3.8e-05  -0.102625  -0.14649  1.7e-05  4.022791  0.0
C  C252  1  0.40948113  0.72341055  0.96898914  1  -0.000476  4e-06  -0.092754  -0.133337  -3.1e-05  4.000838  0.0
C  C253  1  0.09051558  0.77658544  0.46899392  1  -0.000393  4e-06  -0.092819  -0.133353  -3.1e-05  4.001169  0.0
C  C254  1  0.59051421  0.27658564  0.03100595  1  -0.000525  4e-06  -0.09282  -0.133349  -3.1e-05  4.001101  0.0
C  C255  1  0.90948471  0.22341590  0.53100922  1  -0.000394  4e-06  -0.092825  -0.133491  -3.1e-05  4.00089  0.0
C  C256  1  0.55777783  0.96967290  0.95900744  1  -0.047814  0.000166  -0.088011  -0.129284  8.8e-05  3.976502  0.0
C  C257  1  0.94225470  0.53031547  0.45902901  1  -0.045772  0.000166  -0.088128  -0.129457  8.8e-05  3.976407  0.0
C  C258  1  0.44226665  0.03030723  0.04096836  1  -0.045588  0.000166  -0.088154  -0.129633  8.8e-05  3.976659  0.0
C  C259  1  0.05776233  0.46967930  0.54098698  1  -0.046579  0.000166  -0.088084  -0.129087  8.8e-05  3.976597  0.0
C  C260  1  0.45554912  0.98470327  0.94749931  1  0.00261  0.00011  -0.011651  0.090122  3.3e-05  3.976947  0.0
C  C261  1  0.04448138  0.51529365  0.44752175  1  0.002231  0.00011  -0.011523  0.090308  3.3e-05  3.976567  0.0
C  C262  1  0.54449982  0.01529670  0.05247126  1  0.002523  0.00011  -0.011697  0.090088  3.3e-05  3.976831  0.0
C  C263  1  0.95553537  0.48470259  0.55249545  1  0.002529  0.00011  -0.011766  0.089755  3.3e-05  3.977176  0.0
C  C264  1  0.39830499  0.01470366  0.98904643  1  -0.080235  4.4e-05  -0.093454  -0.141426  -7e-06  4.007346  0.0
C  C265  1  0.10172577  0.48527868  0.48906904  1  -0.080547  4.4e-05  -0.093651  -0.141834  -7e-06  4.007384  0.0
C  C266  1  0.60174414  0.98528310  0.01092575  1  -0.080411  4.4e-05  -0.093736  -0.141647  -7e-06  4.007416  0.0
C  C267  1  0.89828898  0.51470947  0.51095138  1  -0.080834  4.4e-05  -0.093407  -0.141131  -7e-06  4.007268  0.0
C  C268  1  0.38674623  0.72024210  0.91422789  1  -0.021255  0.000247  -0.088509  -0.11878  9.4e-05  3.981892  0.0
C  C269  1  0.11325897  0.77975644  0.41423342  1  -0.021036  0.000247  -0.088471  -0.118723  9.4e-05  3.981794  0.0
C  C270  1  0.61324864  0.27975042  0.08576720  1  -0.021612  0.000247  -0.088511  -0.118802  9.4e-05  3.981829  0.0
C  C271  1  0.88674677  0.22025152  0.58577092  1  -0.021146  0.000247  -0.088476  -0.11878  9.4e-05  3.981828  0.0
C  C272  1  0.19994812  0.72060910  0.93293706  1  -0.07395  0.00018  -0.096268  -0.134059  8.1e-05  4.019455  0.0
C  C273  1  0.30005005  0.77940399  0.43294701  1  -0.07356  0.00018  -0.09627  -0.134064  8.1e-05  4.019982  0.0
C  C274  1  0.80004626  0.27939810  0.06705562  1  -0.073453  0.00018  -0.096266  -0.134017  8.1e-05  4.019848  0.0
C  C275  1  0.69993888  0.22059659  0.56705452  1  -0.073124  0.00018  -0.096229  -0.133891  8.1e-05  4.019662  0.0
C  C276  1  0.05793363  0.43056806  0.99695604  1  -0.028987  0.000249  -0.014318  0.079625  0.000139  3.986248  0.0
C  C277  1  0.44204321  0.06942587  0.49694742  1  -0.030092  0.00025  -0.014047  0.079883  0.000139  3.986557  0.0
C  C278  1  0.94204838  0.56943545  0.00304870  1  -0.02982  0.00025  -0.014297  0.079713  0.000139  3.986687  0.0
C  C279  1  0.55794372  0.93056663  0.50304285  1  -0.029033  0.000249  -0.01434  0.079737  0.000139  3.986241  0.0
C  C280  1  0.01067811  0.45700154  0.95072617  1  -0.028391  0.000178  -0.087633  -0.117896  5.7e-05  3.971815  0.0
C  C281  1  0.48931990  0.04300667  0.45072029  1  -0.02694  0.000178  -0.087731  -0.117952  5.7e-05  3.971649  0.0
C  C282  1  0.98931775  0.54301227  0.04927817  1  -0.027386  0.000177  -0.087647  -0.117882  5.7e-05  3.97167  0.0
C  C283  1  0.51068792  0.95700277  0.54927399  1  -0.028287  0.000178  -0.087611  -0.117911  5.7e-05  3.971696  0.0
C  C284  1  0.04721439  0.47435596  0.04616085  1  -0.052852  0.000218  -0.087881  -0.135599  0.000112  3.989948  0.0
C  C285  1  0.45277646  0.02564882  0.54615298  1  -0.052612  0.000218  -0.088109  -0.135882  0.000112  3.990527  0.0
C  C286  1  0.95277203  0.52565343  0.95384791  1  -0.052298  0.000218  -0.087952  -0.135681  0.000112  3.990265  0.0
C  C287  1  0.54722436  0.97435179  0.45384050  1  -0.052716  0.000218  -0.087796  -0.135456  0.000112  3.989878  0.0
N  N288  1  0.43892525  0.06544609  0.86174347  1  -1.257626  0.00403  -0.239983  0.049579  0.001714  3.768807  0.003
N  N289  1  0.06109391  0.43455683  0.36176301  1  -1.258528  0.004029  -0.240314  0.049853  0.001714  3.76879  0.003
N  N290  1  0.56109619  0.93455456  0.13823554  1  -1.258495  0.004029  -0.240356  0.049754  0.001713  3.768984  0.003
N  N291  1  0.93891481  0.56544599  0.63825218  1  -1.257718  0.004028  -0.239969  0.049999  0.001713  3.768464  0.003
N  N292  1  0.21222899  0.37763386  0.95845859  1  -1.23284  0.004404  -0.241256  0.048601  0.001927  3.78522  0.003
N  N293  1  0.28775595  0.12235959  0.45845105  1  -1.23274  0.004404  -0.241279  0.048556  0.001926  3.785325  0.003
N  N294  1  0.78775435  0.62236891  0.04154656  1  -1.232533  0.004403  -0.241238  0.04863  0.001926  3.785323  0.003
N  N295  1  0.71223882  0.87763954  0.54154405  1  -1.232799  0.004403  -0.241244  0.048497  0.001926  3.785182  0.003
N  N296  1  0.21513171  0.62377797  0.81289565  1  -1.230795  0.006417  -0.240518  0.055714  0.002927  3.774571  0.005
N  N297  1  0.28488536  0.87622487  0.31290191  1  -1.231613  0.006417  -0.240566  0.055541  0.002926  3.774823  0.005
N  N298  1  0.78487311  0.37622044  0.18709904  1  -1.231311  0.006417  -0.240558  0.055686  0.002927  3.774852  0.005
N  N299  1  0.71511308  0.12377573  0.68709962  1  -1.23158  0.006416  -0.24061  0.055389  0.002926  3.774614  0.005
N  N300  1  0.26874010  0.74168637  0.10015713  1  -1.250878  0.005978  -0.247306  0.045137  0.002789  3.816869  0.005
N  N301  1  0.23124606  0.75831110  0.60016396  1  -1.250951  0.005979  -0.247274  0.044754  0.00279  3.817228  0.005
N  N302  1  0.73125599  0.25831202  0.89983957  1  -1.251157  0.005978  -0.247268  0.044978  0.002789  3.817279  0.005
N  N303  1  0.76874848  0.24168509  0.39984159  1  -1.250165  0.005978  -0.247247  0.045143  0.00279  3.816677  0.005
N  N304  1  0.43699021  0.21280306  0.83603872  1  -1.212464  0.065036  -0.364698  -0.315682  0.033905  3.689147  0.043
N  N305  1  0.06299761  0.28719334  0.33604555  1  -1.212425  0.065031  -0.364663  -0.315535  0.0339  3.689306  0.043
N  N306  1  0.56299009  0.78719089  0.16395557  1  -1.212496  0.065032  -0.364672  -0.315578  0.033901  3.688836  0.043
N  N307  1  0.93699103  0.71280871  0.66396120  1  -1.212678  0.065032  -0.36459  -0.315504  0.033902  3.688987  0.043
N  N308  1  0.32172331  0.36926277  0.89070557  1  -1.2166  0.063899  -0.364988  -0.314103  0.0333  3.690316  0.039
N  N309  1  0.17825627  0.13073181  0.39070227  1  -1.218118  0.063911  -0.36511  -0.314339  0.033309  3.690198  0.039
N  N310  1  0.67825797  0.63073633  0.10929877  1  -1.216492  0.0639  -0.365145  -0.314331  0.033308  3.690565  0.039
N  N311  1  0.82172822  0.86926509  0.60929885  1  -1.216891  0.063903  -0.364975  -0.314092  0.033304  3.690326  0.039
N  N312  1  0.09440833  0.48172239  0.79072964  1  -1.233875  0.063711  -0.371873  -0.321413  0.033462  3.705208  0.038
N  N313  1  0.40560769  0.01827655  0.29072959  1  -1.233788  0.063709  -0.371846  -0.321379  0.033466  3.70483  0.038
N  N314  1  0.90560369  0.51827163  0.20926747  1  -1.233798  0.063707  -0.371848  -0.32135  0.033462  3.705086  0.038
N  N315  1  0.59439986  0.98171599  0.70927073  1  -1.234203  0.063707  -0.371818  -0.321187  0.033462  3.705248  0.038
N  N316  1  0.13479867  0.69274543  0.16020737  1  -1.222905  0.064633  -0.36783  -0.308644  0.033697  3.654911  0.044
N  N317  1  0.36519322  0.80724948  0.66020984  1  -1.222953  0.064642  -0.367757  -0.308357  0.033695  3.654459  0.044
N  N318  1  0.86520189  0.30725444  0.83979255  1  -1.222911  0.064633  -0.367769  -0.308545  0.033696  3.654682  0.044
N  N319  1  0.63479783  0.19275037  0.33979370  1  -1.222849  0.064634  -0.367745  -0.308417  0.033692  3.654727  0.044
O  O320  1  0.99478692  0.26862639  0.74857442  1  -1.168637  0.09358  -0.334721  -0.560485  0.047735  2.349842  0.072
O  O321  1  0.50520618  0.23137529  0.24858144  1  -1.153533  0.093522  -0.334802  -0.56054  0.047745  2.350028  0.072
O  O322  1  0.00520765  0.73136760  0.25142389  1  -1.168624  0.093589  -0.334659  -0.560412  0.04774  2.349853  0.072
O  O323  1  0.49478709  0.76861722  0.75141968  1  -1.153583  0.093527  -0.334725  -0.560502  0.047744  2.349923  0.072
O  O324  1  0.06252178  0.35355989  0.67303480  1  -1.204203  0.017354  -0.337159  -0.583599  0.008405  2.113759  0.013
O  O325  1  0.43749153  0.14644196  0.17304018  1  -1.204572  0.017362  -0.337242  -0.583686  0.008408  2.113702  0.013
O  O326  1  0.93749186  0.64645029  0.32697235  1  -1.204209  0.017353  -0.337131  -0.58363  0.008404  2.11364  0.013
O  O327  1  0.56251834  0.85355499  0.82695732  1  -1.204271  0.017363  -0.33718  -0.583618  0.00841  2.113737  0.013
O  O328  1  0.17189176  0.17587238  0.82895608  1  -1.188939  0.027778  -0.335923  -0.587734  0.013513  2.132025  0.022
O  O329  1  0.32812448  0.32413734  0.32895949  1  -1.18837  0.027743  -0.335988  -0.587882  0.013495  2.132299  0.022
O  O330  1  0.82812732  0.82414441  0.17104303  1  -1.190225  0.027739  -0.335942  -0.58774  0.013493  2.132206  0.022
O  O331  1  0.67186959  0.67585518  0.67104485  1  -1.190185  0.027746  -0.336016  -0.587806  0.013497  2.132519  0.022
O  O332  1  0.27027712  0.27546445  0.76461082  1  -1.140489  0.105451  -0.328838  -0.540002  0.053036  2.280443  0.082
O  O333  1  0.22972840  0.22454931  0.26461615  1  -1.141154  0.105453  -0.328896  -0.540163  0.053039  2.280286  0.082
O  O334  1  0.72972192  0.72454937  0.23538307  1  -1.141167  0.105456  -0.328892  -0.540121  0.053043  2.280071  0.082
O  O335  1  0.77026557  0.77544981  0.73538577  1  -1.140899  0.105451  -0.328956  -0.540204  0.053044  2.280282  0.082
O  O336  1  0.98950331  0.93718553  0.70829024  1  -1.150553  0.102957  -0.337799  -0.556646  0.051797  2.317837  0.079
O  O337  1  0.51048387  0.56281896  0.20829260  1  -1.150383  0.102962  -0.3377  -0.556473  0.051798  2.317875  0.079
O  O338  1  0.01048108  0.06281798  0.29171249  1  -1.15021  0.102956  -0.33773  -0.556459  0.051799  2.317967  0.079
O  O339  1  0.48953168  0.43716919  0.79171978  1  -1.149881  0.102952  -0.337683  -0.556648  0.051796  2.317734  0.079
O  O340  1  0.10510781  0.95680874  0.63682694  1  -1.203021  0.015204  -0.339001  -0.585633  0.007336  2.11017  0.011
O  O341  1  0.39488196  0.54318631  0.13682770  1  -1.202788  0.015207  -0.338973  -0.585597  0.007337  2.11016  0.011
O  O342  1  0.89488039  0.04318743  0.36317699  1  -1.202948  0.015208  -0.338968  -0.585557  0.007338  2.110241  0.011
O  O343  1  0.60513056  0.45682754  0.86318789  1  -1.202884  0.015189  -0.339071  -0.585589  0.007329  2.110286  0.011
O  O344  1  0.36470470  0.00903075  0.69828226  1  -1.184202  0.050661  -0.314129  -0.560928  0.025067  2.184384  0.043
O  O345  1  0.13529450  0.49097679  0.19828510  1  -1.183988  0.050678  -0.314112  -0.560953  0.025076  2.184354  0.043
O  O346  1  0.63529472  0.99097500  0.30171685  1  -1.184011  0.050674  -0.31414  -0.560949  0.025074  2.184217  0.043
O  O347  1  0.86471800  0.50902090  0.80171562  1  -1.184237  0.050693  -0.314129  -0.56106  0.025083  2.184157  0.043
O  O348  1  0.33384968  0.90727083  0.76813439  1  -1.153242  0.098558  -0.334026  -0.570831  0.050499  2.330389  0.076
O  O349  1  0.16615361  0.59273226  0.26814041  1  -1.153484  0.098563  -0.334085  -0.570902  0.0505  2.33054  0.076
O  O350  1  0.66616158  0.09273934  0.23186432  1  -1.153412  0.098546  -0.33399  -0.570796  0.050491  2.330582  0.076
O  O351  1  0.83385356  0.40726836  0.73186272  1  -1.153363  0.09856  -0.334054  -0.570921  0.0505  2.330676  0.076
