# generated using pymatgen
data_Cu3H10C9SN12O11
_symmetry_space_group_name_H-M   'P 1'
_cell_length_a   17.71033376
_cell_length_b   17.71041746
_cell_length_c   17.71040012
_cell_angle_alpha   89.99999540
_cell_angle_beta   90.00013301
_cell_angle_gamma   89.99989250
_symmetry_Int_Tables_number   1
_chemical_formula_structural   Cu3H10C9SN12O11
_chemical_formula_sum   'Cu24 H80 C72 S8 N96 O88'
_cell_volume   5554.99812789
_cell_formula_units_Z   8
loop_
 _symmetry_equiv_pos_site_id
 _symmetry_equiv_pos_as_xyz
  1  'x, y, z'
loop_
 _atom_site_type_symbol
 _atom_site_label
 _atom_site_symmetry_multiplicity
 _atom_site_fract_x
 _atom_site_fract_y
 _atom_site_fract_z
 _atom_site_occupancy
 _atom_site_pbe_bader_charge
 _atom_site_pbe_bader_spin_density
 _atom_site_pbe_cm5_charge
 _atom_site_pbe_ddec_charge
 _atom_site_pbe_ddec_spin_density
 _atom_site_pbe_ddec_sum_bond_order
 _atom_site_pbe_magmom
Cu  Cu0  1  0.28024705  0.23287228  0.12867499  1  1.087305  0.576056  0.742279  0.868014  0.729213  2.147756  0.577
Cu  Cu1  1  0.12867291  0.28024510  0.23287348  1  1.087156  0.576059  0.742288  0.868031  0.729217  2.14767  0.577
Cu  Cu2  1  0.23287046  0.12867150  0.28024633  1  1.08719  0.576064  0.74224  0.86798  0.729229  2.147773  0.577
Cu  Cu3  1  0.21975024  0.76713188  0.62867377  1  1.087161  0.576059  0.742299  0.868067  0.729225  2.147686  0.577
Cu  Cu4  1  0.71975241  0.73287023  0.37132330  1  1.087048  0.576043  0.74232  0.868199  0.729197  2.1476  0.577
Cu  Cu5  1  0.78024918  0.26712958  0.87132282  1  1.08726  0.576055  0.742301  0.868132  0.729213  2.147582  0.577
Cu  Cu6  1  0.62867320  0.21974971  0.76712850  1  1.087111  0.576057  0.74226  0.868067  0.729216  2.147676  0.577
Cu  Cu7  1  0.37132463  0.71974833  0.73286809  1  1.087283  0.576051  0.742274  0.868119  0.729211  2.14765  0.577
Cu  Cu8  1  0.87132872  0.78024504  0.26712707  1  1.087154  0.576047  0.742237  0.867995  0.729204  2.14774  0.577
Cu  Cu9  1  0.76712976  0.62867107  0.21975141  1  1.087207  0.576041  0.742274  0.868089  0.729197  2.147678  0.577
Cu  Cu10  1  0.73287092  0.37132537  0.71975250  1  1.087325  0.576053  0.742255  0.868089  0.729211  2.147733  0.577
Cu  Cu11  1  0.26713001  0.87132531  0.78024860  1  1.087301  0.576053  0.742332  0.868182  0.729212  2.14769  0.577
Cu  Cu12  1  0.71975296  0.76712802  0.87132725  1  1.087225  0.576048  0.742243  0.867965  0.729204  2.147787  0.577
Cu  Cu13  1  0.87132767  0.71975463  0.76712651  1  1.087329  0.576053  0.742249  0.868001  0.729208  2.147736  0.577
Cu  Cu14  1  0.76712559  0.87132767  0.71975478  1  1.087224  0.576057  0.742261  0.868051  0.729212  2.147657  0.577
Cu  Cu15  1  0.78024525  0.23287349  0.37132848  1  1.087141  0.576054  0.742265  0.868069  0.729211  2.147682  0.577
Cu  Cu16  1  0.28024816  0.26713063  0.62867386  1  1.087239  0.576052  0.742323  0.868089  0.729214  2.147737  0.577
Cu  Cu17  1  0.21975478  0.73287354  0.12867377  1  1.087211  0.576068  0.742262  0.868036  0.729227  2.147696  0.577
Cu  Cu18  1  0.37132964  0.78024551  0.23287374  1  1.087204  0.576068  0.742262  0.868029  0.729226  2.147676  0.577
Cu  Cu19  1  0.62867312  0.28025253  0.26713133  1  1.087073  0.576044  0.74228  0.868065  0.729203  2.147684  0.577
Cu  Cu20  1  0.12867524  0.21975018  0.73286952  1  1.087351  0.576059  0.742309  0.868075  0.72922  2.147725  0.577
Cu  Cu21  1  0.23287025  0.37132640  0.78025027  1  1.087235  0.576052  0.742309  0.8681  0.729211  2.147712  0.577
Cu  Cu22  1  0.26712739  0.62867380  0.28024635  1  1.087323  0.576066  0.742298  0.868087  0.729226  2.147645  0.577
Cu  Cu23  1  0.73287113  0.12867498  0.21975477  1  1.087089  0.576055  0.742261  0.868083  0.729212  2.147701  0.577
H  H24  1  0.16541589  0.16540983  0.16541203  1  0.604631  -0.001799  0.311238  0.403641  -0.000998  0.886401  0.0
H  H25  1  0.33458883  0.83458417  0.66541220  1  0.604647  -0.001799  0.311083  0.403501  -0.000998  0.886786  0.0
H  H26  1  0.83458934  0.66541153  0.33458683  1  0.604768  -0.001799  0.311196  0.403587  -0.000999  0.886523  0.0
H  H27  1  0.66541273  0.33458434  0.83458721  1  0.604666  -0.001799  0.311021  0.403403  -0.000999  0.887019  0.0
H  H28  1  0.83458807  0.83458821  0.83458739  1  0.604779  -0.001799  0.311197  0.40362  -0.000999  0.886528  0.0
H  H29  1  0.66541118  0.16541557  0.33458891  1  0.604628  -0.001799  0.311175  0.403558  -0.000998  0.88658  0.0
H  H30  1  0.16541010  0.33458764  0.66541428  1  0.604801  -0.001799  0.311308  0.403707  -0.000998  0.886198  0.0
H  H31  1  0.33459066  0.66541539  0.16541390  1  0.604643  -0.001799  0.311135  0.403552  -0.000998  0.886632  0.0
H  H32  1  0.12299985  0.10564727  0.97909998  1  0.141425  7e-05  0.12691  0.129631  -1e-06  0.972973  0.0
H  H33  1  0.97910126  0.12299787  0.10564979  1  0.141418  7e-05  0.126912  0.1296  -1e-06  0.972934  0.0
H  H34  1  0.10564545  0.97909991  0.12299618  1  0.141362  7e-05  0.126882  0.129581  -1e-06  0.973012  0.0
H  H35  1  0.37700503  0.89434952  0.47909743  1  0.141361  7e-05  0.126876  0.129578  -1e-06  0.972967  0.0
H  H36  1  0.87699875  0.60564835  0.52089888  1  0.141472  7e-05  0.12694  0.129675  -1e-06  0.972921  0.0
H  H37  1  0.62299921  0.39435037  0.02089860  1  0.141437  7e-05  0.126918  0.129617  -1e-06  0.972882  0.0
H  H38  1  0.47910233  0.37699966  0.89435188  1  0.141434  7e-05  0.126922  0.129653  -1e-06  0.972944  0.0
H  H39  1  0.52089633  0.87700140  0.60564358  1  0.141385  7e-05  0.12689  0.129567  -1e-06  0.972997  0.0
H  H40  1  0.02090179  0.62299770  0.39435134  1  0.141415  7e-05  0.126875  0.129586  -1e-06  0.973017  0.0
H  H41  1  0.89435524  0.47910135  0.37700266  1  0.141347  7e-05  0.126898  0.129634  -1e-06  0.973006  0.0
H  H42  1  0.60564919  0.52090129  0.87700402  1  0.141365  7e-05  0.126879  0.129601  -1e-06  0.972962  0.0
H  H43  1  0.39435070  0.02089465  0.62300163  1  0.141449  7e-05  0.126935  0.129667  -1e-06  0.972877  0.0
H  H44  1  0.87700073  0.89435303  0.02089944  1  0.141455  7e-05  0.126924  0.129623  -1e-06  0.972941  0.0
H  H45  1  0.02090101  0.87700129  0.89435076  1  0.141436  7e-05  0.126915  0.12966  -1e-06  0.972923  0.0
H  H46  1  0.89435004  0.02090547  0.87700437  1  0.141517  7e-05  0.126901  0.129636  -1e-06  0.972972  0.0
H  H47  1  0.62299385  0.10564851  0.52090086  1  0.141279  7e-05  0.126857  0.129551  -1e-06  0.973041  0.0
H  H48  1  0.12300069  0.39435421  0.47910223  1  0.141451  7e-05  0.126922  0.129613  -1e-06  0.972988  0.0
H  H49  1  0.37700476  0.60565049  0.97910026  1  0.14134  7e-05  0.126912  0.12961  -1e-06  0.972948  0.0
H  H50  1  0.52090446  0.62299047  0.10564698  1  0.141411  7e-05  0.126848  0.129607  -0.0  0.972961  0.0
H  H51  1  0.47910481  0.12300115  0.39435528  1  0.141438  7e-05  0.126911  0.129608  -1e-06  0.972984  0.0
H  H52  1  0.97909991  0.37700203  0.60565090  1  0.141401  7e-05  0.126901  0.129586  -1e-06  0.972925  0.0
H  H53  1  0.10564590  0.52089725  0.62299958  1  0.141414  7e-05  0.126905  0.129598  -1e-06  0.972979  0.0
H  H54  1  0.39434743  0.47909900  0.12299653  1  0.141422  7e-05  0.126878  0.129578  -1e-06  0.972958  0.0
H  H55  1  0.60564931  0.97910000  0.37700231  1  0.141412  7e-05  0.126901  0.129607  -1e-06  0.972959  0.0
H  H56  1  0.18514876  0.14478915  0.91138560  1  0.145157  -0.000215  0.129091  0.146137  -0.000239  0.986554  0.0
H  H57  1  0.91138033  0.18514667  0.14478999  1  0.145436  -0.000215  0.129075  0.146063  -0.000239  0.986543  0.0
H  H58  1  0.14478601  0.91138154  0.18514276  1  0.145153  -0.000215  0.129104  0.146077  -0.00024  0.986571  0.0
H  H59  1  0.31485540  0.85520821  0.41138008  1  0.14541  -0.000215  0.12906  0.14604  -0.00024  0.9865  0.0
H  H60  1  0.81485259  0.64478977  0.58861834  1  0.145437  -0.000215  0.129065  0.146057  -0.000239  0.986635  0.0
H  H61  1  0.68514722  0.35520894  0.08861707  1  0.145446  -0.000215  0.129075  0.146032  -0.00024  0.986588  0.0
H  H62  1  0.41138199  0.31485608  0.85520926  1  0.145085  -0.000215  0.129063  0.146063  -0.000239  0.986575  0.0
H  H63  1  0.58861622  0.81485656  0.64478620  1  0.145206  -0.000215  0.129121  0.146098  -0.000239  0.986604  0.0
H  H64  1  0.08862260  0.68514298  0.35520831  1  0.145334  -0.000215  0.129025  0.146033  -0.000239  0.986602  0.0
H  H65  1  0.85521255  0.41138079  0.31486004  1  0.145087  -0.000215  0.129047  0.146018  -0.000239  0.986676  0.0
H  H66  1  0.64479344  0.58861508  0.81485470  1  0.145451  -0.000215  0.129056  0.146102  -0.000239  0.986542  0.0
H  H67  1  0.35521197  0.08861697  0.68514586  1  0.145127  -0.000215  0.129082  0.146067  -0.00024  0.986619  0.0
H  H68  1  0.81485238  0.85521284  0.08861946  1  0.145452  -0.000215  0.129063  0.146062  -0.00024  0.986595  0.0
H  H69  1  0.08861855  0.81485363  0.85520943  1  0.145424  -0.000215  0.129084  0.146072  -0.000239  0.986536  0.0
H  H70  1  0.85520722  0.08862102  0.81485553  1  0.14536  -0.000215  0.129037  0.146065  -0.00024  0.986475  0.0
H  H71  1  0.68514179  0.14478869  0.58861877  1  0.145099  -0.000215  0.129079  0.146075  -0.00024  0.986546  0.0
H  H72  1  0.18514459  0.35521391  0.41138278  1  0.145137  -0.000215  0.12909  0.146043  -0.000239  0.986643  0.0
H  H73  1  0.31485731  0.64479249  0.91138065  1  0.145427  -0.000215  0.129045  0.146052  -0.00024  0.986518  0.0
H  H74  1  0.58862367  0.68513575  0.14479129  1  0.145405  -0.000215  0.129032  0.146054  -0.000239  0.986521  0.0
H  H75  1  0.41138210  0.18514318  0.35521209  1  0.145129  -0.000215  0.129068  0.146045  -0.000239  0.986633  0.0
H  H76  1  0.91138192  0.31485336  0.64479224  1  0.145421  -0.000215  0.129082  0.146051  -0.00024  0.986508  0.0
H  H77  1  0.14478916  0.58861611  0.68514390  1  0.145115  -0.000215  0.12908  0.146044  -0.00024  0.986621  0.0
H  H78  1  0.35520714  0.41137901  0.18514528  1  0.145343  -0.000215  0.129051  0.146061  -0.000239  0.986525  0.0
H  H79  1  0.64479086  0.91138106  0.31485582  1  0.145405  -0.000215  0.129046  0.146051  -0.000239  0.98657  0.0
H  H80  1  0.26002312  0.05012333  0.82767895  1  0.243733  1.9e-05  0.156066  0.145878  -4.5e-05  0.996842  0.0
H  H81  1  0.82767592  0.26001907  0.05012009  1  0.243744  1.9e-05  0.156103  0.145965  -4.5e-05  0.996795  0.0
H  H82  1  0.05012167  0.82767834  0.26002182  1  0.243771  1.9e-05  0.156073  0.145906  -4.5e-05  0.996824  0.0
H  H83  1  0.23997690  0.94987517  0.32767663  1  0.243661  1.9e-05  0.156102  0.145924  -4.5e-05  0.996787  0.0
H  H84  1  0.73997107  0.55012239  0.67232049  1  0.243599  1.9e-05  0.156054  0.145884  -4.5e-05  0.996846  0.0
H  H85  1  0.76002498  0.44987631  0.17232221  1  0.243616  1.9e-05  0.15609  0.14593  -4.5e-05  0.996819  0.0
H  H86  1  0.32767567  0.23997762  0.94987671  1  0.243651  1.9e-05  0.156059  0.145933  -4.5e-05  0.996821  0.0
H  H87  1  0.67232042  0.73997626  0.55011989  1  0.24369  1.9e-05  0.156058  0.145917  -4.5e-05  0.996841  0.0
H  H88  1  0.17232180  0.76002990  0.44987764  1  0.243706  1.9e-05  0.156068  0.145949  -4.5e-05  0.996809  0.0
H  H89  1  0.94987648  0.32767517  0.23998268  1  0.243737  1.9e-05  0.156083  0.145962  -4.5e-05  0.99678  0.0
H  H90  1  0.55012538  0.67231901  0.73997260  1  0.243611  1.9e-05  0.156074  0.145896  -4.5e-05  0.996794  0.0
H  H91  1  0.44987988  0.17231847  0.76002513  1  0.243714  1.9e-05  0.156073  0.145919  -4.5e-05  0.996811  0.0
H  H92  1  0.73997633  0.94987866  0.17232443  1  0.243679  1.9e-05  0.156069  0.145916  -4.5e-05  0.996855  0.0
H  H93  1  0.17232522  0.73997841  0.94987651  1  0.243637  1.9e-05  0.156075  0.145887  -4.5e-05  0.996836  0.0
H  H94  1  0.94987664  0.17232421  0.73997534  1  0.243572  1.9e-05  0.156063  0.145899  -4.5e-05  0.996801  0.0
H  H95  1  0.76002029  0.05012513  0.67232053  1  0.243747  1.9e-05  0.15607  0.145881  -4.5e-05  0.996836  0.0
H  H96  1  0.26002385  0.44987790  0.32767837  1  0.243665  1.9e-05  0.156078  0.145902  -4.5e-05  0.996845  0.0
H  H97  1  0.23997898  0.55012398  0.82767664  1  0.243701  1.9e-05  0.156079  0.145905  -4.5e-05  0.996828  0.0
H  H98  1  0.67232377  0.76002267  0.05012271  1  0.243652  1.8e-05  0.156056  0.145938  -4.5e-05  0.996827  0.0
H  H99  1  0.32767959  0.26002742  0.44987840  1  0.243635  1.9e-05  0.156088  0.145954  -4.5e-05  0.996874  0.0
H  H100  1  0.82767595  0.23997886  0.55012347  1  0.243688  1.9e-05  0.156083  0.14594  -4.5e-05  0.996806  0.0
H  H101  1  0.05012297  0.67232230  0.76002239  1  0.243672  1.9e-05  0.156087  0.145935  -4.5e-05  0.996852  0.0
H  H102  1  0.44987576  0.32768072  0.26002851  1  0.243614  1.9e-05  0.156025  0.145826  -4.5e-05  0.996844  0.0
H  H103  1  0.55012465  0.82768013  0.23997486  1  0.243625  1.9e-05  0.156086  0.145923  -4.5e-05  0.996803  0.0
C  C104  1  0.23553697  0.12936714  0.02266661  1  1.596745  -0.001265  0.194091  0.57929  -0.002084  4.213808  -0.004
C  C105  1  0.02265958  0.23553762  0.12936864  1  1.596017  -0.001261  0.19403  0.579169  -0.002083  4.214063  -0.004
C  C106  1  0.12936710  0.02265546  0.23553294  1  1.595971  -0.001263  0.194118  0.579512  -0.002083  4.213615  -0.004
C  C107  1  0.26446685  0.87063025  0.52265984  1  1.596405  -0.001265  0.194107  0.579338  -0.002083  4.214008  -0.004
C  C108  1  0.76445365  0.62936896  0.47733677  1  1.596831  -0.001262  0.194148  0.579356  -0.002082  4.214527  -0.004
C  C109  1  0.73553859  0.37063255  0.97733901  1  1.596549  -0.001265  0.193947  0.579149  -0.002082  4.214065  -0.004
C  C110  1  0.52266228  0.26446134  0.87062519  1  1.596619  -0.001264  0.19429  0.579417  -0.002084  4.213858  -0.004
C  C111  1  0.47733771  0.76445977  0.62936349  1  1.596323  -0.001262  0.194074  0.579332  -0.002082  4.214067  -0.004
C  C112  1  0.97733875  0.73553961  0.37062458  1  1.596614  -0.001263  0.194325  0.579639  -0.002083  4.214041  -0.004
C  C113  1  0.87062994  0.52266218  0.26445972  1  1.596722  -0.001262  0.194286  0.579576  -0.002082  4.214293  -0.004
C  C114  1  0.62937254  0.47733257  0.76446735  1  1.596609  -0.001262  0.194295  0.579562  -0.002084  4.213878  -0.004
C  C115  1  0.37063609  0.97734135  0.73554673  1  1.596339  -0.001259  0.19406  0.579337  -0.002082  4.214327  -0.004
C  C116  1  0.76445740  0.87063767  0.97734071  1  1.596322  -0.001261  0.194044  0.579289  -0.002082  4.214134  -0.004
C  C117  1  0.97733704  0.76446098  0.87063022  1  1.596562  -0.001263  0.194226  0.579367  -0.002083  4.214361  -0.004
C  C118  1  0.87062670  0.97734032  0.76446704  1  1.596464  -0.001265  0.194077  0.579155  -0.002083  4.214364  -0.004
C  C119  1  0.73553146  0.12937738  0.47733733  1  1.596699  -0.001264  0.194257  0.57944  -0.002084  4.214146  -0.004
C  C120  1  0.23554127  0.37063247  0.52266095  1  1.596149  -0.001261  0.194103  0.579182  -0.002083  4.214197  -0.004
C  C121  1  0.26447158  0.62937961  0.02265815  1  1.596415  -0.001267  0.194177  0.579258  -0.002084  4.214105  -0.004
C  C122  1  0.47734732  0.73552258  0.12938100  1  1.596235  -0.001269  0.194283  0.579456  -0.002085  4.213902  -0.004
C  C123  1  0.52266173  0.23554674  0.37063762  1  1.596504  -0.00126  0.194064  0.579322  -0.002082  4.214452  -0.004
C  C124  1  0.02266183  0.26446295  0.62936637  1  1.59661  -0.001264  0.194061  0.579277  -0.002082  4.214141  -0.004
C  C125  1  0.12936612  0.47733812  0.73554026  1  1.596407  -0.001263  0.19397  0.579035  -0.002082  4.214204  -0.004
C  C126  1  0.37062239  0.52265587  0.23553264  1  1.596397  -0.001266  0.194148  0.579346  -0.002084  4.213988  -0.004
C  C127  1  0.62937408  0.02266233  0.26446059  1  1.596598  -0.001263  0.19435  0.57967  -0.002084  4.213901  -0.004
C  C128  1  0.18160403  0.10528415  0.95891530  1  0.258948  0.013386  -0.04272  -0.234406  0.009657  3.836578  0.01
C  C129  1  0.95891299  0.18160521  0.10528388  1  0.259066  0.013383  -0.042688  -0.234208  0.009657  3.836352  0.01
C  C130  1  0.10528304  0.95891461  0.18160298  1  0.258976  0.013381  -0.04267  -0.234222  0.009655  3.836624  0.01
C  C131  1  0.31839685  0.89471321  0.45891487  1  0.258606  0.013386  -0.042656  -0.234241  0.009656  3.836327  0.01
C  C132  1  0.81839401  0.60528590  0.54108582  1  0.258509  0.013386  -0.042747  -0.234405  0.009658  3.836579  0.01
C  C133  1  0.68160569  0.39471281  0.04108511  1  0.258594  0.013385  -0.042692  -0.234184  0.009656  3.836377  0.01
C  C134  1  0.45891417  0.31839463  0.89471435  1  0.258985  0.01339  -0.042737  -0.23441  0.00966  3.836564  0.01
C  C135  1  0.54108347  0.81839520  0.60528167  1  0.25904  0.013383  -0.042701  -0.234162  0.009657  3.836495  0.01
C  C136  1  0.04108995  0.68160387  0.39471329  1  0.258608  0.013394  -0.042626  -0.234332  0.009662  3.836388  0.01
C  C137  1  0.89471317  0.45891493  0.31839868  1  0.258987  0.013386  -0.042663  -0.23429  0.009658  3.836446  0.01
C  C138  1  0.60528774  0.54108546  0.81839721  1  0.25858  0.013382  -0.042721  -0.234476  0.009655  3.836528  0.01
C  C139  1  0.39471551  0.04108616  0.68160674  1  0.259406  0.013384  -0.042749  -0.234337  0.009659  3.836636  0.01
C  C140  1  0.81839372  0.89471614  0.04108751  1  0.258682  0.013385  -0.04267  -0.23424  0.009658  3.836386  0.01
C  C141  1  0.04108589  0.81839452  0.89471328  1  0.258589  0.013386  -0.042706  -0.234372  0.009657  3.8364  0.01
C  C142  1  0.89471302  0.04108850  0.81839870  1  0.258472  0.013388  -0.042662  -0.23428  0.009657  3.836341  0.01
C  C143  1  0.68159864  0.10528652  0.54108399  1  0.25894  0.01339  -0.042699  -0.234289  0.009659  3.836438  0.01
C  C144  1  0.18160487  0.39471496  0.45891416  1  0.259284  0.01338  -0.042703  -0.234165  0.009655  3.836553  0.01
C  C145  1  0.31839771  0.60528918  0.95891375  1  0.258555  0.013384  -0.042698  -0.234256  0.009654  3.83649  0.01
C  C146  1  0.54108923  0.68159720  0.10528732  1  0.258363  0.013383  -0.042594  -0.234239  0.009653  3.83664  0.01
C  C147  1  0.45891428  0.18160566  0.39471662  1  0.259369  0.013387  -0.042717  -0.234261  0.009661  3.836507  0.01
C  C148  1  0.95891401  0.31839586  0.60528669  1  0.258626  0.013388  -0.042685  -0.234206  0.009658  3.83628  0.01
C  C149  1  0.10528571  0.54108593  0.68160413  1  0.258959  0.013387  -0.042675  -0.234163  0.009658  3.836563  0.01
C  C150  1  0.39471001  0.45891314  0.18160560  1  0.258606  0.013382  -0.042656  -0.234278  0.009653  3.836533  0.01
C  C151  1  0.60528846  0.95891414  0.31839550  1  0.25863  0.013384  -0.042683  -0.234362  0.009656  3.836416  0.01
C  C152  1  0.23567245  0.01098650  0.86772488  1  1.018117  0.001052  0.200995  0.111024  0.000585  3.843294  0.002
C  C153  1  0.86772426  0.23567065  0.01098607  1  1.018193  0.001052  0.200973  0.110949  0.000585  3.843345  0.002
C  C154  1  0.01098457  0.86772487  0.23567111  1  1.018246  0.001052  0.200976  0.111045  0.000584  3.84335  0.002
C  C155  1  0.26432710  0.98901087  0.36772375  1  1.018129  0.001053  0.200921  0.110929  0.000585  3.843299  0.002
C  C156  1  0.76432351  0.51098778  0.63227399  1  1.018185  0.001053  0.200935  0.110974  0.000585  3.843254  0.002
C  C157  1  0.73567358  0.48901206  0.13227453  1  1.018228  0.001052  0.20095  0.110949  0.000585  3.84324  0.002
C  C158  1  0.36772350  0.26432484  0.98901026  1  1.018066  0.001054  0.200904  0.110871  0.000586  3.84316  0.002
C  C159  1  0.63227480  0.76432694  0.51098408  1  1.018298  0.001052  0.200949  0.110965  0.000584  3.843301  0.002
C  C160  1  0.13227576  0.73567930  0.48900940  1  1.017933  0.001054  0.20083  0.110846  0.000587  3.843128  0.002
C  C161  1  0.98901351  0.36772388  0.26433000  1  1.018153  0.001052  0.200927  0.110861  0.000585  3.843252  0.002
C  C162  1  0.51099010  0.63227199  0.76432435  1  1.018219  0.001053  0.200944  0.111005  0.000585  3.84327  0.002
C  C163  1  0.48901579  0.13227251  0.73567338  1  1.018348  0.001053  0.201007  0.111049  0.000585  3.843207  0.002
C  C164  1  0.76432587  0.98901436  0.13227736  1  1.018262  0.001053  0.200923  0.110899  0.000586  3.843409  0.002
C  C165  1  0.13227801  0.76432456  0.98901053  1  1.018061  0.001053  0.200883  0.110949  0.000586  3.843192  0.002
C  C166  1  0.98901205  0.13227543  0.76432549  1  1.018263  0.001053  0.200976  0.111018  0.000586  3.843189  0.002
C  C167  1  0.73567178  0.01098773  0.63227341  1  1.018155  0.001053  0.200958  0.110976  0.000586  3.843323  0.002
C  C168  1  0.23567254  0.48901421  0.36772487  1  1.018231  0.001052  0.200974  0.110986  0.000585  3.843339  0.002
C  C169  1  0.26432869  0.51098880  0.86772489  1  1.018147  0.001052  0.200942  0.110932  0.000584  3.843212  0.002
C  C170  1  0.63227764  0.73567320  0.01099086  1  1.018096  0.001053  0.200928  0.110939  0.000584  3.843142  0.002
C  C171  1  0.36772408  0.23567787  0.48901252  1  1.018239  0.001053  0.200876  0.110942  0.000586  3.843167  0.002
C  C172  1  0.86772312  0.26432777  0.51098776  1  1.018136  0.001053  0.200964  0.110995  0.000586  3.84331  0.002
C  C173  1  0.01098876  0.63227698  0.73567507  1  1.018108  0.001054  0.200899  0.110987  0.000586  3.843191  0.002
C  C174  1  0.48901104  0.36772774  0.23567620  1  1.018261  0.001052  0.200973  0.111046  0.000584  3.843183  0.002
C  C175  1  0.51098930  0.86772722  0.26432604  1  1.018211  0.001053  0.200898  0.110847  0.000585  3.843373  0.002
S  S176  1  0.29228422  0.29228419  0.29228734  1  3.788253  0.003233  0.560373  1.400377  0.005034  6.342226  0.002
S  S177  1  0.20771063  0.70771432  0.79228158  1  3.787882  0.003237  0.560601  1.400443  0.005035  6.341149  0.002
S  S178  1  0.70771513  0.79228161  0.20771038  1  3.787836  0.003236  0.560591  1.400517  0.005033  6.34158  0.002
S  S179  1  0.79228666  0.20771314  0.70771445  1  3.788342  0.003234  0.560636  1.40068  0.005033  6.340907  0.002
S  S180  1  0.70771635  0.70771329  0.70771490  1  3.788349  0.003234  0.560393  1.400484  0.005035  6.342473  0.002
S  S181  1  0.79228487  0.29228824  0.20771728  1  3.788091  0.003237  0.560509  1.400455  0.005035  6.341891  0.002
S  S182  1  0.29228601  0.20771529  0.79228621  1  3.788136  0.003238  0.560576  1.400389  0.005036  6.341284  0.002
S  S183  1  0.20771674  0.79228547  0.29228666  1  3.788113  0.003236  0.560436  1.400331  0.005034  6.341578  0.002
N  N184  1  0.23469982  0.93607762  0.86414220  1  -0.71782  0.078148  -0.249506  -0.227372  0.052646  3.574445  0.068
N  N185  1  0.86414381  0.23470000  0.93607697  1  -0.718012  0.078143  -0.249556  -0.227438  0.052643  3.574318  0.068
N  N186  1  0.93607499  0.86414362  0.23470213  1  -0.718003  0.078143  -0.249537  -0.227481  0.052643  3.57455  0.068
N  N187  1  0.26529745  0.06392087  0.36414284  1  -0.717834  0.078139  -0.249468  -0.227326  0.05264  3.574442  0.068
N  N188  1  0.76529759  0.43607763  0.63585720  1  -0.717909  0.078136  -0.249539  -0.227489  0.052638  3.574394  0.068
N  N189  1  0.73470289  0.56392108  0.13585490  1  -0.717473  0.078142  -0.249494  -0.227374  0.052642  3.574485  0.068
N  N190  1  0.36414316  0.26529832  0.06392274  1  -0.717856  0.078142  -0.249439  -0.227243  0.052642  3.574378  0.068
N  N191  1  0.63585568  0.76529868  0.43607386  1  -0.718021  0.078142  -0.249494  -0.227423  0.052643  3.574419  0.068
N  N192  1  0.13585511  0.73470416  0.56392189  1  -0.717749  0.078147  -0.249407  -0.227284  0.052646  3.574261  0.068
N  N193  1  0.06392310  0.36414098  0.26530180  1  -0.717892  0.078145  -0.249512  -0.227342  0.052644  3.574437  0.068
N  N194  1  0.43607959  0.63585301  0.76529544  1  -0.717376  0.07814  -0.249509  -0.22745  0.052641  3.574541  0.068
N  N195  1  0.56392516  0.13585225  0.73470285  1  -0.717814  0.078143  -0.249596  -0.227554  0.052643  3.57441  0.068
N  N196  1  0.76529680  0.06392493  0.13585835  1  -0.718041  0.078141  -0.249522  -0.227435  0.052641  3.574593  0.068
N  N197  1  0.13585789  0.76529804  0.06392189  1  -0.717884  0.078144  -0.249464  -0.227296  0.052643  3.574333  0.068
N  N198  1  0.06392220  0.13585554  0.76529560  1  -0.717961  0.078142  -0.2495  -0.227434  0.052643  3.574337  0.068
N  N199  1  0.73470030  0.93607829  0.63585714  1  -0.717834  0.078138  -0.249524  -0.227415  0.052639  3.574436  0.068
N  N200  1  0.23469959  0.56392380  0.36414109  1  -0.717953  0.078142  -0.249524  -0.227388  0.052642  3.574405  0.068
N  N201  1  0.26530051  0.43607978  0.86414508  1  -0.717726  0.078143  -0.249515  -0.227429  0.052643  3.574352  0.068
N  N202  1  0.63585516  0.73470142  0.93607781  1  -0.717727  0.078144  -0.249429  -0.227289  0.052644  3.574386  0.068
N  N203  1  0.36414264  0.23470557  0.56392387  1  -0.717981  0.078143  -0.24941  -0.227334  0.052644  3.574359  0.068
N  N204  1  0.86414264  0.26529783  0.43607866  1  -0.717866  0.078136  -0.249519  -0.227434  0.052638  3.574565  0.068
N  N205  1  0.93607691  0.63585649  0.73470439  1  -0.717622  0.078144  -0.249515  -0.22745  0.052644  3.574496  0.068
N  N206  1  0.56392098  0.36414672  0.23470454  1  -0.717596  0.078143  -0.249488  -0.227416  0.052643  3.574392  0.068
N  N207  1  0.43607936  0.86414409  0.26529883  1  -0.717717  0.078135  -0.249455  -0.227272  0.052637  3.574344  0.068
N  N208  1  0.19691802  0.91051078  0.92624239  1  -0.051776  0.004127  -0.059449  -0.016131  0.002479  3.223473  0.003
N  N209  1  0.92624542  0.19691823  0.91050958  1  -0.051763  0.004126  -0.059446  -0.016168  0.002478  3.223578  0.003
N  N210  1  0.91050676  0.92624382  0.19692034  1  -0.051768  0.004127  -0.059378  -0.015999  0.002479  3.223243  0.003
N  N211  1  0.30308109  0.08948827  0.42624142  1  -0.051558  0.004126  -0.059365  -0.016011  0.002479  3.223282  0.003
N  N212  1  0.80308001  0.41051185  0.57375532  1  -0.051731  0.004126  -0.059431  -0.016083  0.002478  3.223464  0.003
N  N213  1  0.69692203  0.58948855  0.07375462  1  -0.052117  0.004126  -0.059386  -0.01606  0.002479  3.223466  0.003
N  N214  1  0.42624419  0.30307941  0.08948745  1  -0.051718  0.004127  -0.05947  -0.016206  0.002479  3.223717  0.003
N  N215  1  0.57375458  0.80308046  0.41050745  1  -0.051764  0.004127  -0.059425  -0.016055  0.002479  3.223405  0.003
N  N216  1  0.07375640  0.69691967  0.58948589  1  -0.051655  0.004127  -0.059395  -0.016078  0.002479  3.223663  0.003
N  N217  1  0.08949064  0.42624339  0.30308076  1  -0.051639  0.004127  -0.059447  -0.016155  0.002479  3.22341  0.003
N  N218  1  0.41051270  0.57375342  0.80307717  1  -0.052042  0.004125  -0.059383  -0.016046  0.002477  3.223633  0.003
N  N219  1  0.58949217  0.07375149  0.69692000  1  -0.051875  0.004128  -0.05943  -0.016056  0.002479  3.223577  0.003
N  N220  1  0.80307803  0.08949121  0.07375872  1  -0.051641  0.004127  -0.059368  -0.016013  0.002479  3.22338  0.003
N  N221  1  0.07375629  0.80307981  0.08948815  1  -0.051729  0.004126  -0.059479  -0.016219  0.002479  3.223495  0.003
N  N222  1  0.08948760  0.07375478  0.80307851  1  -0.051699  0.004126  -0.059385  -0.016032  0.002478  3.223443  0.003
N  N223  1  0.69691948  0.91051089  0.57375517  1  -0.051623  0.004127  -0.059462  -0.016151  0.002478  3.223553  0.003
N  N224  1  0.19691774  0.58949070  0.42624297  1  -0.051811  0.004126  -0.059441  -0.016077  0.002478  3.223389  0.003
N  N225  1  0.30308250  0.41051400  0.92624592  1  -0.051669  0.004126  -0.059372  -0.016011  0.002478  3.223493  0.003
N  N226  1  0.57375639  0.69691919  0.91051253  1  -0.051718  0.004127  -0.059458  -0.016158  0.002479  3.223702  0.003
N  N227  1  0.42624317  0.19692040  0.58949027  1  -0.051692  0.004127  -0.059487  -0.016183  0.002479  3.223427  0.003
N  N228  1  0.92624304  0.30308006  0.41051183  1  -0.051668  0.004127  -0.059448  -0.016127  0.002479  3.223585  0.003
N  N229  1  0.91050993  0.57375635  0.69692374  1  -0.051929  0.004127  -0.059383  -0.016021  0.002479  3.223534  0.003
N  N230  1  0.58948674  0.42624574  0.19691999  1  -0.05166  0.004126  -0.059382  -0.015982  0.002478  3.223532  0.003
N  N231  1  0.41051179  0.92624542  0.30307998  1  -0.051737  0.004126  -0.059425  -0.016112  0.002478  3.223499  0.003
N  N232  1  0.17512961  0.96734233  0.96650797  1  -0.062855  0.009252  -0.060082  -0.105904  0.005848  3.088754  0.007
N  N233  1  0.96650787  0.17512875  0.96734290  1  -0.062823  0.009252  -0.06004  -0.105848  0.005849  3.088927  0.007
N  N234  1  0.96733905  0.96650708  0.17512813  1  -0.062892  0.009253  -0.060077  -0.105952  0.005849  3.08854  0.007
N  N235  1  0.32487242  0.03265503  0.46650423  1  -0.062844  0.009253  -0.060209  -0.106086  0.005849  3.088838  0.007
N  N236  1  0.82486775  0.46734449  0.53349143  1  -0.062756  0.009252  -0.060026  -0.105862  0.005848  3.088763  0.007
N  N237  1  0.67513137  0.53265536  0.03349182  1  -0.062766  0.009253  -0.060135  -0.105976  0.005849  3.088791  0.007
N  N238  1  0.46650816  0.32486712  0.03265535  1  -0.062721  0.009253  -0.06011  -0.105912  0.005849  3.088846  0.007
N  N239  1  0.53349056  0.82487049  0.46733955  1  -0.063006  0.009252  -0.060061  -0.105933  0.005848  3.088793  0.007
N  N240  1  0.03349455  0.67512915  0.53265370  1  -0.062704  0.009254  -0.060174  -0.106008  0.00585  3.088987  0.007
N  N241  1  0.03265827  0.46650900  0.32486789  1  -0.062899  0.009252  -0.060051  -0.105882  0.005849  3.088723  0.007
N  N242  1  0.46734625  0.53349062  0.82486783  1  -0.062785  0.009253  -0.060079  -0.105885  0.005849  3.088792  0.007
N  N243  1  0.53265870  0.03348993  0.67512935  1  -0.062884  0.009253  -0.060014  -0.105881  0.005849  3.088915  0.007
N  N244  1  0.82486984  0.03265966  0.03349483  1  -0.062881  0.009252  -0.060131  -0.106036  0.005849  3.088549  0.007
N  N245  1  0.03349214  0.82486759  0.03265596  1  -0.06271  0.009253  -0.059993  -0.105755  0.005849  3.088804  0.007
N  N246  1  0.03265418  0.03349322  0.82487016  1  -0.062745  0.009252  -0.060168  -0.105999  0.005848  3.088934  0.007
N  N247  1  0.67512984  0.96734300  0.53349010  1  -0.062921  0.009252  -0.06001  -0.105828  0.005848  3.088861  0.007
N  N248  1  0.17513056  0.53265863  0.46650856  1  -0.062822  0.009252  -0.060027  -0.105913  0.005849  3.088754  0.007
N  N249  1  0.32487203  0.46734663  0.96650873  1  -0.062897  0.009252  -0.060103  -0.105933  0.005848  3.088961  0.007
N  N250  1  0.53349411  0.67512753  0.96734520  1  -0.062752  0.009254  -0.060092  -0.105871  0.005849  3.088943  0.007
N  N251  1  0.46650606  0.17512924  0.53265931  1  -0.06287  0.009252  -0.060056  -0.105865  0.005848  3.088794  0.007
N  N252  1  0.96650602  0.32487171  0.46734459  1  -0.062808  0.009252  -0.060082  -0.105902  0.005848  3.088925  0.007
N  N253  1  0.96734117  0.53349186  0.67513209  1  -0.062934  0.009253  -0.060051  -0.105932  0.005849  3.088743  0.007
N  N254  1  0.53265376  0.46650798  0.17512877  1  -0.062821  0.009252  -0.060103  -0.105981  0.005848  3.088891  0.007
N  N255  1  0.46734413  0.96651036  0.32486781  1  -0.062794  0.009253  -0.060067  -0.105906  0.005849  3.088712  0.007
N  N256  1  0.19878838  0.03065236  0.93053200  1  -0.814032  0.00471  -0.10815  0.188719  0.002681  3.73978  0.003
N  N257  1  0.93052890  0.19878608  0.03065255  1  -0.814078  0.00471  -0.108176  0.188704  0.00268  3.739805  0.003
N  N258  1  0.03064982  0.93052913  0.19878376  1  -0.81361  0.00471  -0.108177  0.188688  0.002681  3.739708  0.003
N  N259  1  0.30121526  0.96934500  0.43052813  1  -0.814062  0.00471  -0.108105  0.18879  0.00268  3.739771  0.003
N  N260  1  0.80120867  0.53065470  0.56946800  1  -0.814019  0.00471  -0.108128  0.188779  0.002681  3.739558  0.003
N  N261  1  0.69878715  0.46934514  0.06946958  1  -0.814088  0.00471  -0.108155  0.188716  0.002681  3.739587  0.003
N  N262  1  0.43053141  0.30121041  0.96934392  1  -0.81411  0.00471  -0.10804  0.188849  0.00268  3.739623  0.003
N  N263  1  0.56946796  0.80121433  0.53064985  1  -0.813604  0.00471  -0.108191  0.188611  0.002681  3.739832  0.003
N  N264  1  0.06947063  0.69878920  0.46934349  1  -0.814062  0.00471  -0.108036  0.188848  0.00268  3.739682  0.003
N  N265  1  0.96934701  0.43053269  0.30121282  1  -0.813991  0.004711  -0.108155  0.188725  0.002681  3.73957  0.003
N  N266  1  0.53065725  0.56946770  0.80121005  1  -0.814187  0.004709  -0.108116  0.188775  0.00268  3.739516  0.003
N  N267  1  0.46934820  0.06946938  0.69878600  1  -0.814062  0.004711  -0.108157  0.188724  0.002681  3.739756  0.003
N  N268  1  0.80121332  0.96934794  0.06947194  1  -0.813732  0.004711  -0.108119  0.188827  0.002681  3.739693  0.003
N  N269  1  0.06946829  0.80121082  0.96934461  1  -0.814013  0.004711  -0.108144  0.188677  0.002681  3.739557  0.003
N  N270  1  0.96934454  0.06947117  0.80121340  1  -0.814101  0.00471  -0.108107  0.188782  0.00268  3.739678  0.003
N  N271  1  0.69878701  0.03065416  0.56946620  1  -0.814028  0.00471  -0.108136  0.188767  0.00268  3.739594  0.003
N  N272  1  0.19878852  0.46934785  0.43053199  1  -0.813947  0.00471  -0.108195  0.188642  0.002681  3.739791  0.003
N  N273  1  0.30121456  0.53065629  0.93053097  1  -0.814104  0.004709  -0.108116  0.188791  0.00268  3.739469  0.003
N  N274  1  0.56947143  0.69878424  0.03065663  1  -0.81405  0.004708  -0.108123  0.188697  0.00268  3.739717  0.003
N  N275  1  0.43053092  0.19878710  0.46934788  1  -0.814091  0.004712  -0.108153  0.188681  0.002681  3.739587  0.003
N  N276  1  0.93052825  0.30121561  0.53065424  1  -0.814047  0.00471  -0.108131  0.188717  0.002681  3.739703  0.003
N  N277  1  0.03065357  0.56946930  0.69878829  1  -0.813995  0.00471  -0.108153  0.188709  0.002681  3.739692  0.003
N  N278  1  0.46934332  0.43053034  0.19878655  1  -0.814163  0.004709  -0.108122  0.188797  0.00268  3.739541  0.003
N  N279  1  0.53065633  0.93053261  0.30120947  1  -0.814138  0.00471  -0.108109  0.18883  0.00268  3.739526  0.003
O  O280  1  0.28593529  0.08820827  0.04681237  1  -1.134724  0.005305  -0.314298  -0.511636  0.002459  2.068053  0.005
O  O281  1  0.04680189  0.28593618  0.08820810  1  -1.134586  0.005306  -0.31419  -0.511617  0.00246  2.068204  0.005
O  O282  1  0.08820416  0.04679835  0.28594169  1  -1.134504  0.005315  -0.3143  -0.511868  0.002466  2.067514  0.005
O  O283  1  0.21406689  0.91179195  0.54680265  1  -1.134523  0.005309  -0.314279  -0.511728  0.002462  2.068114  0.005
O  O284  1  0.71406387  0.58821978  0.45319779  1  -1.134762  0.005291  -0.314219  -0.511561  0.00245  2.069081  0.005
O  O285  1  0.78593848  0.41179076  0.95319901  1  -1.134594  0.005305  -0.314139  -0.511576  0.002459  2.068314  0.005
O  O286  1  0.54681099  0.21406668  0.91178748  1  -1.13457  0.005308  -0.314385  -0.511717  0.002461  2.068162  0.005
O  O287  1  0.45319644  0.71406347  0.58820686  1  -1.134755  0.005303  -0.314168  -0.511621  0.002458  2.068366  0.005
O  O288  1  0.95319521  0.78592749  0.41178059  1  -1.134347  0.0053  -0.314349  -0.511744  0.002456  2.06874  0.005
O  O289  1  0.91177758  0.54680612  0.21407412  1  -1.1346  0.005291  -0.314326  -0.511685  0.00245  2.069065  0.005
O  O290  1  0.58821857  0.45318467  0.71407431  1  -1.134526  0.005299  -0.314369  -0.511693  0.002455  2.068555  0.005
O  O291  1  0.41179406  0.95320410  0.78594203  1  -1.134826  0.0053  -0.314119  -0.511582  0.002456  2.068539  0.005
O  O292  1  0.71406415  0.91179598  0.95320060  1  -1.13474  0.005302  -0.314145  -0.511577  0.002457  2.068409  0.005
O  O293  1  0.95319248  0.71406863  0.91178341  1  -1.134551  0.005299  -0.314346  -0.511658  0.002455  2.06883  0.005
O  O294  1  0.91178625  0.95319856  0.71406507  1  -1.134331  0.005309  -0.314247  -0.511632  0.002461  2.068405  0.005
O  O295  1  0.78593255  0.08822190  0.45319394  1  -1.134365  0.005307  -0.314397  -0.511754  0.002461  2.068369  0.005
O  O296  1  0.28593670  0.41178673  0.54680671  1  -1.134724  0.005299  -0.314251  -0.5116  0.002455  2.068547  0.005
O  O297  1  0.21406153  0.58821631  0.04680493  1  -1.13416  0.005317  -0.314407  -0.511869  0.002467  2.067794  0.005
O  O298  1  0.45320031  0.78593813  0.08821702  1  -1.133887  0.005321  -0.31451  -0.512024  0.002469  2.06751  0.005
O  O299  1  0.54679962  0.28593457  0.41179256  1  -1.134809  0.005296  -0.314107  -0.511532  0.002453  2.068912  0.005
O  O300  1  0.04680423  0.21406660  0.58820358  1  -1.13463  0.005307  -0.314222  -0.511653  0.002461  2.068251  0.005
O  O301  1  0.08820605  0.45319643  0.78593433  1  -1.134652  0.005301  -0.314164  -0.511502  0.002457  2.068363  0.005
O  O302  1  0.41178427  0.54679981  0.28594148  1  -1.134272  0.005314  -0.314359  -0.511838  0.002465  2.067802  0.005
O  O303  1  0.58822571  0.04680071  0.21406417  1  -1.134545  0.005296  -0.314423  -0.511804  0.002453  2.068714  0.005
O  O304  1  0.21889919  0.19772466  0.04544812  1  -1.087558  0.154826  -0.339327  -0.538079  0.096991  2.267272  0.137
O  O305  1  0.04544298  0.21890275  0.19772624  1  -1.087334  0.154836  -0.339377  -0.538009  0.096999  2.267315  0.137
O  O306  1  0.19771811  0.04544481  0.21890099  1  -1.087344  0.154812  -0.339392  -0.538111  0.096982  2.267498  0.137
O  O307  1  0.28109791  0.80227555  0.54544365  1  -1.087357  0.154816  -0.339394  -0.538052  0.096987  2.267371  0.137
O  O308  1  0.78109921  0.69773153  0.45455583  1  -1.087508  0.154876  -0.339429  -0.538205  0.097023  2.267079  0.137
O  O309  1  0.71890258  0.30227618  0.95455181  1  -1.08754  0.15484  -0.339359  -0.538043  0.097  2.267187  0.137
O  O310  1  0.54543816  0.28109390  0.80226821  1  -1.087588  0.15482  -0.33946  -0.53809  0.096992  2.267346  0.137
O  O311  1  0.45455390  0.78109519  0.69772048  1  -1.087585  0.154837  -0.339452  -0.538184  0.096998  2.267272  0.137
O  O312  1  0.95456497  0.71890197  0.30226528  1  -1.087687  0.154839  -0.339492  -0.538233  0.097004  2.267165  0.137
O  O313  1  0.80226646  0.54543810  0.28110128  1  -1.087533  0.154875  -0.339429  -0.53823  0.097025  2.267039  0.137
O  O314  1  0.69773437  0.45455382  0.78110567  1  -1.087597  0.15485  -0.339399  -0.538186  0.097009  2.267051  0.137
O  O315  1  0.30227770  0.95455709  0.71890954  1  -1.087548  0.154844  -0.33946  -0.538188  0.097005  2.267344  0.137
O  O316  1  0.78109348  0.80227902  0.95455808  1  -1.087409  0.154846  -0.33943  -0.538114  0.097004  2.267267  0.137
O  O317  1  0.95455759  0.78110093  0.80227036  1  -1.087487  0.154855  -0.339408  -0.538077  0.097011  2.267168  0.137
O  O318  1  0.80227230  0.95455436  0.78110408  1  -1.08761  0.154821  -0.339373  -0.537999  0.096989  2.267387  0.137
O  O319  1  0.71889193  0.19773152  0.45455634  1  -1.087749  0.154825  -0.339369  -0.538106  0.096992  2.26739  0.137
O  O320  1  0.21890193  0.30227159  0.54544190  1  -1.087313  0.154861  -0.339401  -0.538059  0.097015  2.267161  0.137
O  O321  1  0.28110477  0.69773145  0.04544365  1  -1.087751  0.1548  -0.339335  -0.537914  0.096977  2.267602  0.137
O  O322  1  0.45455846  0.71889058  0.19773234  1  -1.087707  0.154806  -0.339365  -0.537986  0.09698  2.267575  0.137
O  O323  1  0.54544102  0.21890962  0.30227725  1  -1.087586  0.154854  -0.339451  -0.538191  0.097011  2.26723  0.137
O  O324  1  0.04544520  0.28109494  0.69772171  1  -1.087546  0.154817  -0.339388  -0.538082  0.096987  2.267385  0.137
O  O325  1  0.19772508  0.45455598  0.71890548  1  -1.087257  0.154836  -0.339361  -0.538021  0.096999  2.267293  0.137
O  O326  1  0.30226960  0.54544478  0.21889713  1  -1.087646  0.154818  -0.339374  -0.538032  0.096987  2.267502  0.137
O  O327  1  0.69773304  0.04544660  0.28110739  1  -1.087603  0.154861  -0.339435  -0.538254  0.097014  2.266912  0.137
O  O328  1  0.19731027  0.19730910  0.19731140  1  -1.092815  0.232891  -0.574012  -0.842173  0.152563  2.501118  0.211
O  O329  1  0.30268944  0.80268884  0.69730980  1  -1.092774  0.232892  -0.573856  -0.842203  0.152564  2.501331  0.211
O  O330  1  0.80269208  0.69730860  0.30268802  1  -1.092796  0.232877  -0.57399  -0.842253  0.152556  2.501111  0.211
O  O331  1  0.69730879  0.30268727  0.80268791  1  -1.092745  0.232891  -0.573765  -0.842092  0.152564  2.501571  0.211
O  O332  1  0.80269030  0.80268950  0.80269084  1  -1.093052  0.232894  -0.573978  -0.842207  0.152566  2.500987  0.211
O  O333  1  0.69730831  0.19731258  0.30269074  1  -1.092613  0.232893  -0.57397  -0.842187  0.152566  2.501236  0.211
O  O334  1  0.19731019  0.30269056  0.69731027  1  -1.092944  0.232898  -0.57411  -0.842319  0.152566  2.500968  0.211
O  O335  1  0.30269178  0.69731190  0.19731151  1  -1.092773  0.232885  -0.573896  -0.84215  0.15256  2.501153  0.211
O  O336  1  0.32760025  0.28477615  0.21516547  1  -1.285857  0.059112  -0.366189  -0.666877  0.036598  2.418808  0.053
O  O337  1  0.21516536  0.32760020  0.28477415  1  -1.285906  0.059105  -0.366224  -0.666886  0.036593  2.418786  0.053
O  O338  1  0.28477403  0.21516461  0.32759879  1  -1.28594  0.05911  -0.366192  -0.666888  0.036596  2.418989  0.053
O  O339  1  0.17239047  0.71523761  0.71516470  1  -1.285681  0.059108  -0.366287  -0.666949  0.036596  2.418683  0.053
O  O340  1  0.67239347  0.78476290  0.28482661  1  -1.285788  0.059098  -0.366243  -0.666937  0.036589  2.418648  0.053
O  O341  1  0.82760905  0.21523805  0.78482851  1  -1.285984  0.059103  -0.366299  -0.666962  0.036592  2.418621  0.053
O  O342  1  0.71517127  0.17239106  0.71523763  1  -1.285913  0.059112  -0.366309  -0.667018  0.036597  2.418656  0.053
O  O343  1  0.28482890  0.67239097  0.78476010  1  -1.285863  0.059107  -0.366294  -0.666973  0.036594  2.418639  0.053
O  O344  1  0.78483110  0.82760200  0.21523148  1  -1.285832  0.059107  -0.366227  -0.666942  0.036594  2.41868  0.053
O  O345  1  0.71523563  0.71516598  0.17239160  1  -1.285695  0.059094  -0.366363  -0.667039  0.036587  2.418832  0.053
O  O346  1  0.78476099  0.28482934  0.67239113  1  -1.285918  0.059107  -0.366321  -0.667031  0.036594  2.418609  0.053
O  O347  1  0.21523558  0.78483163  0.82760377  1  -1.285855  0.059102  -0.366288  -0.666963  0.036591  2.418615  0.053
O  O348  1  0.67240485  0.71522133  0.78483621  1  -1.285935  0.059098  -0.366271  -0.666972  0.036589  2.418946  0.053
O  O349  1  0.78483803  0.67240066  0.71522075  1  -1.286023  0.059101  -0.366161  -0.666907  0.03659  2.419098  0.053
O  O350  1  0.71522485  0.78483512  0.67240119  1  -1.285847  0.059111  -0.36622  -0.666953  0.036596  2.41882  0.053
O  O351  1  0.82760220  0.28477003  0.28483415  1  -1.286001  0.059107  -0.366215  -0.666926  0.036594  2.41882  0.053
O  O352  1  0.32760428  0.21523457  0.71516716  1  -1.285926  0.059101  -0.366322  -0.666969  0.03659  2.418727  0.053
O  O353  1  0.17239717  0.78476902  0.21516696  1  -1.285866  0.059121  -0.366239  -0.666904  0.036602  2.418601  0.053
O  O354  1  0.28483439  0.82760359  0.28476913  1  -1.285761  0.059115  -0.366233  -0.666867  0.036601  2.418824  0.053
O  O355  1  0.71516659  0.32760651  0.21523311  1  -1.285811  0.059097  -0.366322  -0.666979  0.03659  2.41878  0.053
O  O356  1  0.21516609  0.17239548  0.78476794  1  -1.285938  0.059111  -0.366284  -0.666914  0.036596  2.418692  0.053
O  O357  1  0.28476608  0.28483375  0.82760613  1  -1.285761  0.059098  -0.36634  -0.666973  0.03659  2.418739  0.053
O  O358  1  0.21523337  0.71516757  0.32760434  1  -1.285955  0.059112  -0.366251  -0.666879  0.036597  2.418698  0.053
O  O359  1  0.78476725  0.21516979  0.17239791  1  -1.285769  0.059104  -0.366224  -0.666917  0.036592  2.418734  0.053
O  O360  1  0.33969667  0.33969635  0.33969965  1  -1.310034  0.051934  -0.326638  -0.566718  0.033036  2.069886  0.045
O  O361  1  0.16029773  0.66030272  0.83969491  1  -1.310044  0.051929  -0.326707  -0.566711  0.033033  2.069777  0.045
O  O362  1  0.66030259  0.83969330  0.16029751  1  -1.310059  0.051929  -0.326709  -0.566735  0.033032  2.069837  0.045
O  O363  1  0.83969908  0.16030089  0.66030113  1  -1.310142  0.051934  -0.326668  -0.566813  0.033036  2.069564  0.045
O  O364  1  0.66030334  0.66030225  0.66030316  1  -1.31008  0.051926  -0.326621  -0.5667  0.033031  2.07002  0.045
O  O365  1  0.83969720  0.33969927  0.16030507  1  -1.31003  0.051927  -0.326673  -0.566733  0.033031  2.069959  0.045
O  O366  1  0.33969911  0.16030191  0.83969796  1  -1.310062  0.051926  -0.326627  -0.566713  0.033031  2.06974  0.045
O  O367  1  0.16030263  0.83969772  0.33969886  1  -1.310022  0.051945  -0.32659  -0.566682  0.033043  2.069743  0.045
