# generated using pymatgen
data_ZnH11C17NO4
_symmetry_space_group_name_H-M   'P 1'
_cell_length_a   18.29562666
_cell_length_b   18.48532390
_cell_length_c   18.48528448
_cell_angle_alpha   109.67796812
_cell_angle_beta   109.26326200
_cell_angle_gamma   109.26351971
_symmetry_Int_Tables_number   1
_chemical_formula_structural   ZnH11C17NO4
_chemical_formula_sum   'Zn12 H132 C204 N12 O48'
_cell_volume   4824.89200124
_cell_formula_units_Z   12
loop_
 _symmetry_equiv_pos_site_id
 _symmetry_equiv_pos_as_xyz
  1  'x, y, z'
loop_
 _atom_site_type_symbol
 _atom_site_label
 _atom_site_symmetry_multiplicity
 _atom_site_fract_x
 _atom_site_fract_y
 _atom_site_fract_z
 _atom_site_occupancy
 _atom_site_pbe_bader_charge
 _atom_site_pbe_bader_spin_density
 _atom_site_pbe_cm5_charge
 _atom_site_pbe_ddec_charge
 _atom_site_pbe_ddec_spin_density
 _atom_site_pbe_ddec_sum_bond_order
 _atom_site_pbe_magmom
Zn  Zn0  1  0.51242809  0.57873731  0.07325179  1  1.303832  0  0.675973  0.850046  0  2.353133  0
Zn  Zn1  1  0.93370469  0.49453381  0.42125601  1  1.305082  0  0.676007  0.850107  0  2.353032  0
Zn  Zn2  1  0.43918029  0.92674335  0.50548926  1  1.30598  0  0.676019  0.850065  0  2.353141  0
Zn  Zn3  1  0.06082114  0.49451118  0.07325767  1  1.306105  0  0.676035  0.850048  0  2.353129  0
Zn  Zn4  1  0.98757306  0.92674890  0.42126316  1  1.303889  0  0.675939  0.850021  0  2.353298  0
Zn  Zn5  1  0.56629709  0.57874373  0.50546579  1  1.304999  0  0.676084  0.850174  0  2.352966  0
Zn  Zn6  1  0.48757268  0.42126332  0.92674840  1  1.304042  0  0.676002  0.850025  0  2.353075  0
Zn  Zn7  1  0.06629600  0.50546550  0.57874317  1  1.305221  0  0.676101  0.850167  0  2.352758  0
Zn  Zn8  1  0.56082049  0.07325728  0.49451202  1  1.306131  0  0.676056  0.850069  0  2.35305  0
Zn  Zn9  1  0.93918071  0.50548812  0.92674242  1  1.30603  0  0.676064  0.850068  0  2.353064  0
Zn  Zn10  1  0.01242796  0.07325106  0.57873689  1  1.30403  0  0.676037  0.850047  0  2.352906  0
Zn  Zn11  1  0.43370509  0.42125623  0.49453464  1  1.305085  0  0.676071  0.850158  0  2.352847  0
H  H12  1  0.78015054  0.65560003  0.28691129  1  0.075757  0  0.100927  0.100807  0  1.030868  0
H  H13  1  0.36391677  0.22391322  0.99559005  1  0.088286  0  0.106314  0.107728  0  1.007118  0
H  H14  1  0.73045477  0.02004819  0.30772943  1  0.070375  0  0.095552  0.092645  0  1.03045  0
H  H15  1  0.43465174  0.85347054  0.25057408  1  0.098995  0  0.107957  0.107967  0  1.030403  0
H  H16  1  0.32809085  0.69049094  0.17565534  1  0.083743  0  0.107875  0.117289  0  1.0172  0
H  H17  1  0.37424796  0.58379894  0.10776412  1  0.127922  0  0.119987  0.089539  0  1.007753  0
H  H18  1  0.77098415  0.90653789  0.24833304  1  0.088986  0  0.09908  0.094304  0  1.044194  0
H  H19  1  0.58184462  0.97369468  0.29890209  1  0.079606  0  0.10558  0.114782  0  0.998339  0
H  H20  1  0.66289964  0.74640231  0.17452591  1  0.103013  0  0.109359  0.126096  0  1.033913  0
H  H21  1  0.12456088  0.63131481  0.34439146  1  0.069572  0  0.100906  0.100796  0  1.030933  0
H  H22  1  0.14000773  0.77168022  0.77609306  1  0.074884  0  0.106345  0.107748  0  1.006971  0
H  H23  1  0.71042118  0.28768101  0.97996365  1  0.062384  0  0.095562  0.092698  0  1.030375  0
H  H24  1  0.58117679  0.39710162  0.14653218  1  0.11093  0  0.107937  0.107932  0  1.030403  0
H  H25  1  0.63758733  0.48514969  0.30950853  1  0.089511  0  0.107907  0.117252  0  1.017133  0
H  H26  1  0.79044157  0.52396149  0.41620538  1  0.088964  0  0.119974  0.089526  0  1.007859  0
H  H27  1  0.86446023  0.34180305  0.09348231  1  0.066023  0  0.099069  0.094376  0  1.044217  0
H  H28  1  0.60815088  0.32519030  0.02630213  1  0.068997  0  0.105555  0.114769  0  0.998339  0
H  H29  1  0.91650667  0.42814923  0.25361267  1  0.125296  0  0.109292  0.126022  0  1.034023  0
H  H30  1  0.49324118  0.71305175  0.36867490  1  0.081685  0  0.100936  0.100797  0  1.030845  0
H  H31  1  0.36833015  0.00440443  0.22832117  1  0.06301  0  0.106308  0.107655  0  1.007113  0
H  H32  1  0.42272340  0.69227840  0.71232135  1  0.055696  0  0.095561  0.092671  0  1.030349  0
H  H33  1  0.18404677  0.74939486  0.60285563  1  0.109181  0  0.10795  0.107924  0  1.030282  0
H  H34  1  0.15242460  0.82434377  0.51482478  1  0.100508  0  0.107942  0.117305  0  1.017159  0
H  H35  1  0.26648857  0.89225637  0.47604557  1  0.087642  0  0.119975  0.089519  0  1.007804  0
H  H36  1  0.52265062  0.75167888  0.65820781  1  0.073149  0  0.099053  0.094365  0  1.044152  0
H  H37  1  0.28292869  0.70108408  0.67477667  1  0.071084  0  0.105575  0.114808  0  0.99831  0
H  H38  1  0.48835975  0.82546452  0.57186135  1  0.130634  0  0.109286  0.125956  0  1.034183  0
H  H39  1  0.00675932  0.63132575  0.28694924  1  0.081668  0  0.10093  0.100807  0  1.030831  0
H  H40  1  0.13166996  0.77167920  0.99559523  1  0.063027  0  0.10629  0.107642  0  1.007063  0
H  H41  1  0.07727584  0.28767892  0.30772163  1  0.05572  0  0.09559  0.092691  0  1.0303  0
H  H42  1  0.31595411  0.39714504  0.25060589  1  0.109172  0  0.107947  0.107924  0  1.030259  0
H  H43  1  0.34757607  0.48517504  0.17565622  1  0.100445  0  0.107943  0.117321  0  1.017125  0
H  H44  1  0.23351250  0.52395398  0.10774379  1  0.087647  0  0.119971  0.08951  0  1.007786  0
H  H45  1  0.97734962  0.34179261  0.24832148  1  0.073148  0  0.099048  0.094362  0  1.044165  0
H  H46  1  0.21707047  0.32522312  0.29891553  1  0.0711  0  0.105569  0.114837  0  0.998299  0
H  H47  1  0.01164137  0.42813878  0.17453609  1  0.130645  0  0.109287  0.125965  0  1.034208  0
H  H48  1  0.71984862  0.71308834  0.34439966  1  0.075941  0  0.100916  0.100783  0  1.030881  0
H  H49  1  0.13608326  0.00440930  0.77608806  1  0.088293  0  0.106318  0.107727  0  1.007135  0
H  H50  1  0.76954544  0.69227056  0.97995205  1  0.070378  0  0.095552  0.092626  0  1.030465  0
H  H51  1  0.06534839  0.74942502  0.14652924  1  0.098985  0  0.10796  0.107963  0  1.030385  0
H  H52  1  0.17190905  0.82434408  0.30950812  1  0.083731  0  0.107896  0.117314  0  1.017135  0
H  H53  1  0.12575225  0.89223561  0.41620095  1  0.127925  0  0.119976  0.089502  0  1.007757  0
H  H54  1  0.72901677  0.75166749  0.09346244  1  0.088999  0  0.099068  0.094306  0  1.04422  0
H  H55  1  0.91815500  0.70109703  0.02630493  1  0.079596  0  0.105566  0.114757  0  0.998363  0
H  H56  1  0.83710081  0.82547423  0.25359828  1  0.103156  0  0.109338  0.126051  0  1.033999  0
H  H57  1  0.37544159  0.65560938  0.36868501  1  0.069522  0  0.100943  0.100851  0  1.030834  0
H  H58  1  0.35999261  0.22390594  0.22831848  1  0.074845  0  0.10633  0.107741  0  1.007029  0
H  H59  1  0.78957916  0.02003612  0.71231966  1  0.062381  0  0.095567  0.092698  0  1.030374  0
H  H60  1  0.91882424  0.85347019  0.60289867  1  0.110876  0  0.10793  0.107922  0  1.030402  0
H  H61  1  0.86241586  0.69049448  0.51485096  1  0.089407  0  0.10791  0.117289  0  1.017142  0
H  H62  1  0.70956118  0.58379559  0.47603906  1  0.08885  0  0.119959  0.089541  0  1.007728  0
H  H63  1  0.63554012  0.90651698  0.65819633  1  0.066042  0  0.099062  0.09435  0  1.044251  0
H  H64  1  0.89184993  0.97369865  0.67481054  1  0.069015  0  0.105577  0.11481  0  0.998336  0
H  H65  1  0.58349365  0.74638658  0.57184983  1  0.125542  0  0.109273  0.126026  0  1.034039  0
H  H66  1  0.21984990  0.34439994  0.71308911  1  0.075749  0  0.100927  0.100806  0  1.030919  0
H  H67  1  0.63608466  0.77608873  0.00441026  1  0.0883  0  0.106321  0.107708  0  1.00714  0
H  H68  1  0.26954510  0.97995178  0.69227132  1  0.070394  0  0.095555  0.092631  0  1.030448  0
H  H69  1  0.56534804  0.14652810  0.74942404  1  0.098977  0  0.107971  0.107969  0  1.030375  0
H  H70  1  0.67190859  0.30950704  0.82434245  1  0.083649  0  0.107905  0.117318  0  1.017147  0
H  H71  1  0.62575273  0.41620036  0.89223452  1  0.127923  0  0.120007  0.089546  0  1.007752  0
H  H72  1  0.22901662  0.09346274  0.75166769  1  0.088994  0  0.099068  0.094288  0  1.044234  0
H  H73  1  0.41815459  0.02630397  0.70109746  1  0.079778  0  0.105583  0.11478  0  0.998335  0
H  H74  1  0.33710114  0.25359832  0.82547483  1  0.103013  0  0.109342  0.12607  0  1.033932  0
H  H75  1  0.87544039  0.36868450  0.65560845  1  0.069546  0  0.100916  0.100804  0  1.030889  0
H  H76  1  0.85999147  0.22831842  0.22390487  1  0.074913  0  0.106346  0.107749  0  1.006967  0
H  H77  1  0.28957901  0.71231962  0.02003689  1  0.062376  0  0.095563  0.092694  0  1.030373  0
H  H78  1  0.41882456  0.60289901  0.85346983  1  0.110898  0  0.107926  0.107931  0  1.030333  0
H  H79  1  0.36241460  0.51485094  0.69049420  1  0.089417  0  0.107904  0.117269  0  1.017166  0
H  H80  1  0.20956094  0.47603914  0.58379592  1  0.08884  0  0.119962  0.089535  0  1.007708  0
H  H81  1  0.13554021  0.65819692  0.90651755  1  0.066033  0  0.099066  0.094353  0  1.044226  0
H  H82  1  0.39184931  0.67481033  0.97369896  1  0.069037  0  0.10558  0.114814  0  0.998334  0
H  H83  1  0.08349402  0.57185008  0.74638759  1  0.125295  0  0.109281  0.12603  0  1.034036  0
H  H84  1  0.50675869  0.28694822  0.63132423  1  0.081645  0  0.100919  0.10078  0  1.03085  0
H  H85  1  0.63166996  0.99559488  0.77167890  1  0.063033  0  0.106291  0.107649  0  1.007048  0
H  H86  1  0.57727647  0.30772157  0.28767887  1  0.05575  0  0.095598  0.092701  0  1.030297  0
H  H87  1  0.81595376  0.25060643  0.39714416  1  0.109111  0  0.107939  0.10791  0  1.030277  0
H  H88  1  0.84757526  0.17565620  0.48517489  1  0.100458  0  0.107951  0.117338  0  1.017141  0
H  H89  1  0.73351187  0.10774360  0.52395374  1  0.087615  0  0.119981  0.089523  0  1.007759  0
H  H90  1  0.47734924  0.24832108  0.34179186  1  0.073084  0  0.099061  0.094372  0  1.044141  0
H  H91  1  0.71707183  0.29891721  0.32522367  1  0.071082  0  0.105559  0.114828  0  0.998341  0
H  H92  1  0.51164070  0.17453544  0.42813851  1  0.130633  0  0.10928  0.125971  0  1.034238  0
H  H93  1  0.99324294  0.36867554  0.71305166  1  0.081693  0  0.100944  0.10082  0  1.030837  0
H  H94  1  0.86832932  0.22832076  0.00440480  1  0.062996  0  0.106291  0.10765  0  1.00704  0
H  H95  1  0.92272377  0.71232171  0.69227873  1  0.055722  0  0.095595  0.092691  0  1.030321  0
H  H96  1  0.68404691  0.60285493  0.74939524  1  0.109208  0  0.107949  0.107933  0  1.030224  0
H  H97  1  0.65242520  0.51482427  0.82434477  1  0.100493  0  0.10795  0.117336  0  1.017121  0
H  H98  1  0.76648910  0.47604599  0.89225699  1  0.087578  0  0.119979  0.089517  0  1.007767  0
H  H99  1  0.02265091  0.65820868  0.75167886  1  0.073133  0  0.099059  0.094358  0  1.044149  0
H  H100  1  0.78292940  0.67477685  0.70108468  1  0.071113  0  0.105593  0.114837  0  0.998299  0
H  H101  1  0.98835998  0.57186185  0.82546374  1  0.13064  0  0.109311  0.125991  0  1.034188  0
H  H102  1  0.28015207  0.28691096  0.65560006  1  0.075852  0  0.100907  0.100769  0  1.030923  0
H  H103  1  0.86391561  0.99558869  0.22391116  1  0.088291  0  0.106313  0.107684  0  1.007048  0
H  H104  1  0.23045442  0.30772941  0.02004871  1  0.070422  0  0.095552  0.092617  0  1.030469  0
H  H105  1  0.93465205  0.25057495  0.85347170  1  0.098987  0  0.107974  0.107976  0  1.030374  0
H  H106  1  0.82809114  0.17565655  0.69049242  1  0.083724  0  0.107888  0.117318  0  1.017151  0
H  H107  1  0.87424762  0.10776436  0.58379980  1  0.127945  0  0.119978  0.089515  0  1.007774  0
H  H108  1  0.27098334  0.24833182  0.90653817  1  0.088994  0  0.099058  0.094285  0  1.044244  0
H  H109  1  0.08184486  0.29890294  0.97369582  1  0.079594  0  0.105576  0.114757  0  0.998352  0
H  H110  1  0.16289930  0.17452508  0.74640233  1  0.103175  0  0.109346  0.126076  0  1.033925  0
H  H111  1  0.62456001  0.34439059  0.63131523  1  0.069535  0  0.100912  0.100771  0  1.030934  0
H  H112  1  0.64000667  0.77609403  0.77167938  1  0.074936  0  0.106345  0.107757  0  1.006932  0
H  H113  1  0.21042037  0.97996319  0.28768077  1  0.062393  0  0.095559  0.09269  0  1.030366  0
H  H114  1  0.08117596  0.14653044  0.39710134  1  0.110966  0  0.10792  0.107905  0  1.030388  0
H  H115  1  0.13758549  0.30950615  0.48514888  1  0.089416  0  0.107883  0.11721  0  1.017173  0
H  H116  1  0.29043984  0.41620438  0.52396045  1  0.088949  0  0.119963  0.089515  0  1.007771  0
H  H117  1  0.36445999  0.09348233  0.34180320  1  0.066028  0  0.099065  0.094356  0  1.044223  0
H  H118  1  0.10814993  0.02630132  0.32518967  1  0.069035  0  0.105576  0.114797  0  0.998361  0
H  H119  1  0.41650646  0.25361273  0.42814970  1  0.125278  0  0.109268  0.126  0  1.034042  0
H  H120  1  0.77063557  0.52061394  0.04123954  1  0.069127  0  0.10034  0.10085  0  1.026841  0
H  H121  1  0.93484792  0.68487140  0.36972699  1  0.080532  0  0.100728  0.10596  0  0.995417  0
H  H122  1  0.25000097  0.52061434  0.47938484  1  0.07673  0  0.100331  0.100894  0  1.026863  0
H  H123  1  0.25000115  0.68486241  0.31513775  1  0.071465  0  0.100726  0.105962  0  0.995428  0
H  H124  1  0.72936656  0.95876068  0.47938665  1  0.069106  0  0.100342  0.100838  0  1.02681  0
H  H125  1  0.56515171  0.63027369  0.31512960  1  0.080547  0  0.100714  0.105918  0  0.995456  0
H  H126  1  0.22936661  0.47938602  0.95876143  1  0.06913  0  0.100351  0.100851  0  1.026784  0
H  H127  1  0.06515376  0.31512990  0.63027318  1  0.08052  0  0.100708  0.105927  0  0.995428  0
H  H128  1  0.75000088  0.47938497  0.52061471  1  0.076772  0  0.100317  0.100891  0  1.02685  0
H  H129  1  0.74999987  0.31513756  0.68486176  1  0.071337  0  0.100718  0.105969  0  0.995438  0
H  H130  1  0.27063380  0.04123796  0.52061328  1  0.069132  0  0.100343  0.100856  0  1.026762  0
H  H131  1  0.43484849  0.36972694  0.68486986  1  0.080601  0  0.100715  0.105915  0  0.995444  0
H  H132  1  0.48463714  0.46927320  0.23463920  1  0.122272  0  0.109031  0.112858  0  1.024039  0
H  H133  1  0.32049434  0.14098009  0.07048936  1  0.044727  0  0.102228  0.098325  0  0.992973  0
H  H134  1  0.01536320  0.76536164  0.53072647  1  0.122282  0  0.108975  0.112726  0  1.023962  0
H  H135  1  0.17950551  0.92950924  0.85902045  1  0.044676  0  0.102221  0.098312  0  0.993004  0
H  H136  1  0.24999993  0.76535832  0.23464179  1  0.113917  0  0.108994  0.112945  0  1.023838  0
H  H137  1  0.25000034  0.92950713  0.07049387  1  0.051408  0  0.102207  0.098317  0  0.992936  0
H  H138  1  0.51536455  0.53072809  0.76536314  1  0.122302  0  0.109036  0.11286  0  1.024045  0
H  H139  1  0.67950644  0.85902054  0.92950921  1  0.044707  0  0.102265  0.098418  0  0.992996  0
H  H140  1  0.98463575  0.23463767  0.46927106  1  0.122286  0  0.109023  0.112842  0  1.024082  0
H  H141  1  0.82049427  0.07048940  0.14097929  1  0.044645  0  0.102252  0.098387  0  0.993019  0
H  H142  1  0.74999993  0.23464165  0.76535842  1  0.113905  0  0.108981  0.1129  0  1.023868  0
H  H143  1  0.74999952  0.07049284  0.92950635  1  0.051391  0  0.102267  0.098413  0  0.993074  0
C  C144  1  0.66825441  0.55731487  0.10809943  1  1.572421  0  0.211692  0.589503  0  4.171678  0
C  C145  1  0.76424295  0.58293910  0.15883554  1  -0.014161  0  -0.020797  -0.044369  0  3.980618  0
C  C146  1  0.81192524  0.63181834  0.25155679  1  0.02728  0  -0.081844  -0.085201  0  3.958209  0
C  C147  1  0.44614930  0.40518015  0.06689239  1  1.562428  0  0.213395  0.580977  0  4.19768  0
C  C148  1  0.42299056  0.35178714  0.10949643  1  -0.087235  0  -0.021099  -0.047792  0  3.998887  0
C  C149  1  0.37961881  0.25909037  0.06399895  1  -0.034608  0  -0.075669  -0.080399  0  3.950309  0
C  C150  1  0.68169662  0.95011795  0.27497338  1  -0.061196  0  -0.090565  -0.079635  0  4.00521  0
C  C151  1  0.45205966  0.80444813  0.22176491  1  -0.017593  0  -0.057251  -0.051902  0  3.910786  0
C  C152  1  0.39365385  0.71516577  0.18086480  1  -0.013705  0  -0.087756  -0.14268  0  3.984713  0
C  C153  1  0.41944836  0.65501347  0.14361311  1  0.461008  0  0.059954  0.111267  0  3.937086  0
C  C154  1  0.70431980  0.88537739  0.24012329  1  -0.033134  0  -0.0851  -0.060513  0  3.986124  0
C  C155  1  0.53641825  0.83380514  0.22722219  1  0.005363  0  -0.000849  0.035839  0  3.993987  0
C  C156  1  0.59939239  0.92488203  0.26945779  1  -0.02977  0  -0.081936  -0.111373  0  3.956033  0
C  C157  1  0.55889150  0.76852000  0.19002723  1  0.395622  0  0.116812  0.204243  0  3.954088  0
C  C158  1  0.64463653  0.79628826  0.19863907  1  0.021393  0  -0.085519  -0.160608  0  3.937331  0
C  C159  1  0.11091846  0.55077721  0.44265722  1  1.562673  0  0.211615  0.589129  0  4.172474  0
C  C160  1  0.18129641  0.57589543  0.41705398  1  -0.023595  0  -0.020725  -0.044049  0  3.980508  0
C  C161  1  0.18011386  0.61974142  0.36817938  1  0.008166  0  -0.081771  -0.085191  0  3.958305  0
C  C162  1  0.04098103  0.66171131  0.59482209  1  1.560106  0  0.213408  0.580879  0  4.197458  0
C  C163  1  0.07120740  0.75770538  0.64821450  1  -0.004413  0  -0.021088  -0.047829  0  3.998786  0
C  C164  1  0.12052883  0.80490785  0.74091239  1  -0.006051  0  -0.075738  -0.080435  0  3.950256  0
C  C165  1  0.73158932  0.32485847  0.04989272  1  -0.071006  0  -0.090525  -0.079449  0  4.005312  0
C  C166  1  0.64760927  0.41731582  0.19555375  1  -0.020926  0  -0.057265  -0.051838  0  3.910721  0
C  C167  1  0.67848231  0.46569419  0.28483694  1  -0.047341  0  -0.087713  -0.142524  0  3.98438  0
C  C168  1  0.76443023  0.48860147  0.34499125  1  0.529156  0  0.059882  0.111155  0  3.937314  0
C  C169  1  0.81895284  0.35475599  0.11463672  1  -0.073462  0  -0.085159  -0.060941  0  3.986426  0
C  C170  1  0.70261417  0.39342158  0.16619818  1  -0.009795  0  -0.000826  0.035824  0  3.994258  0
C  C171  1  0.67451617  0.34457406  0.07512369  1  0.00556  0  -0.082003  -0.111508  0  3.956271  0
C  C172  1  0.79037436  0.42151992  0.23148614  1  0.399764  0  0.116868  0.204152  0  3.954238  0
C  C173  1  0.84835656  0.40236877  0.20372428  1  0.061572  0  -0.085402  -0.160261  0  3.937141  0
C  C174  1  0.56013424  0.89186801  0.44922785  1  1.543366  0  0.211444  0.588912  0  4.172372  0
C  C175  1  0.60539180  0.84114429  0.42410347  1  0.006621  0  -0.02087  -0.044316  0  3.980464  0
C  C176  1  0.56036861  0.74842435  0.38025326  1  -0.018794  0  -0.081724  -0.084971  0  3.95792  0
C  C177  1  0.37928644  0.93310474  0.33828231  1  1.572473  0  0.213027  0.580456  0  4.197286  0
C  C178  1  0.31350393  0.89049852  0.24229218  1  -0.081112  0  -0.021043  -0.04774  0  3.998895  0
C  C179  1  0.31562331  0.93599678  0.19509278  1  0.003772  0  -0.075601  -0.080141  0  3.949936  0
C  C180  1  0.40671338  0.72502497  0.67513615  1  0.007983  0  -0.090466  -0.079344  0  4.005199  0
C  C181  1  0.23027342  0.77821403  0.58265428  1  -0.047434  0  -0.057273  -0.051864  0  3.910616  0
C  C182  1  0.21277572  0.81912937  0.53428556  1  -0.029781  0  -0.087778  -0.142482  0  3.984605  0
C  C183  1  0.27582832  0.85639187  0.51139627  1  0.51423  0  0.059951  0.111163  0  3.937481  0
C  C184  1  0.46418843  0.75987690  0.64524735  1  -0.073085  0  -0.085228  -0.061003  0  3.986232  0
C  C185  1  0.30917531  0.77275740  0.60655719  1  0.023509  0  -0.000849  0.03575  0  3.994418  0
C  C186  1  0.32991806  0.73052857  0.65540422  1  -0.040114  0  -0.082018  -0.111573  0  3.956409  0
C  C187  1  0.36884852  0.80996036  0.57847494  1  0.405805  0  0.116778  0.204177  0  3.954266  0
C  C188  1  0.44598298  0.80135270  0.59763460  1  -0.004502  0  -0.085303  -0.160168  0  3.937215  0
C  C189  1  0.93986783  0.55077265  0.10813392  1  1.543482  0  0.211494  0.588953  0  4.172422  0
C  C190  1  0.89460844  0.57589629  0.15885556  1  0.006485  0  -0.020801  -0.044169  0  3.980413  0
C  C191  1  0.93963186  0.61974723  0.25157644  1  -0.018789  0  -0.081702  -0.084992  0  3.957954  0
C  C192  1  0.12071463  0.66171734  0.06689506  1  1.57245  0  0.212989  0.580423  0  4.197444  0
C  C193  1  0.18649520  0.75770738  0.10950065  1  -0.081122  0  -0.021064  -0.047782  0  3.998906  0
C  C194  1  0.18437708  0.80490821  0.06400415  1  0.003772  0  -0.075626  -0.080208  0  3.94993  0
C  C195  1  0.09328661  0.32486413  0.27497520  1  0.007955  0  -0.090477  -0.079317  0  4.005157  0
C  C196  1  0.26972672  0.41734572  0.22178547  1  -0.047406  0  -0.057287  -0.051875  0  3.910535  0
C  C197  1  0.28722514  0.46571508  0.18087077  1  -0.029776  0  -0.087782  -0.142501  0  3.984539  0
C  C198  1  0.22417246  0.48860300  0.14360775  1  0.514207  0  0.059924  0.111123  0  3.937497  0
C  C199  1  0.03581154  0.35475287  0.24012319  1  -0.073089  0  -0.085228  -0.061005  0  3.98624  0
C  C200  1  0.19082484  0.39344245  0.22724192  1  0.02343  0  -0.000877  0.035734  0  3.994298  0
C  C201  1  0.17008141  0.34459535  0.26947129  1  -0.040047  0  -0.081977  -0.111583  0  3.956381  0
C  C202  1  0.13115202  0.42152475  0.19003991  1  0.405807  0  0.116814  0.204219  0  3.954218  0
C  C203  1  0.05401684  0.40236523  0.19864731  1  -0.004511  0  -0.08533  -0.160235  0  3.93726  0
C  C204  1  0.83174616  0.89190249  0.44268699  1  1.572487  0  0.211698  0.589555  0  4.171912  0
C  C205  1  0.73575864  0.84116386  0.41706085  1  -0.014234  0  -0.020735  -0.044295  0  3.980498  0
C  C206  1  0.68807538  0.74844394  0.36818198  1  0.027276  0  -0.081854  -0.085213  0  3.958174  0
C  C207  1  0.05385141  0.93310965  0.59482227  1  1.562238  0  0.213388  0.580933  0  4.197853  0
C  C208  1  0.07701017  0.89050297  0.64821191  1  -0.087096  0  -0.021055  -0.047799  0  3.998825  0
C  C209  1  0.12038128  0.93600090  0.74091046  1  -0.034701  0  -0.075706  -0.080433  0  3.950195  0
C  C210  1  0.81830369  0.72502645  0.04988205  1  -0.061212  0  -0.090517  -0.079514  0  4.005282  0
C  C211  1  0.04794029  0.77823495  0.19555171  1  -0.017598  0  -0.057251  -0.051886  0  3.910773  0
C  C212  1  0.10634579  0.81913532  0.28483452  1  -0.013685  0  -0.087787  -0.14273  0  3.984693  0
C  C213  1  0.08055152  0.85638729  0.34498606  1  0.461005  0  0.05999  0.11136  0  3.937068  0
C  C214  1  0.79568068  0.75987642  0.11462251  1  -0.033133  0  -0.085111  -0.060586  0  3.986232  0
C  C215  1  0.96358187  0.77277789  0.16619451  1  0.005376  0  -0.000867  0.035811  0  3.993993  0
C  C216  1  0.90060719  0.73054154  0.07511751  1  -0.029781  0  -0.081982  -0.111428  0  3.956158  0
C  C217  1  0.94110909  0.80997359  0.23148003  1  0.395753  0  0.116854  0.204281  0  3.954053  0
C  C218  1  0.85536397  0.80136108  0.20371178  1  0.021403  0  -0.085501  -0.160548  0  3.937441  0
C  C219  1  0.38908371  0.55734335  0.44922182  1  1.562698  0  0.211677  0.589295  0  4.172313  0
C  C220  1  0.31870580  0.58294625  0.42410467  1  -0.02331  0  -0.020734  -0.04418  0  3.980537  0
C  C221  1  0.31988951  0.63182118  0.38025824  1  0.007782  0  -0.081763  -0.085101  0  3.958042  0
C  C222  1  0.45902154  0.40517767  0.33828908  1  1.56022  0  0.213398  0.580857  0  4.19744  0
C  C223  1  0.42879294  0.35178425  0.24229404  1  -0.004724  0  -0.021069  -0.047789  0  3.998709  0
C  C224  1  0.37947122  0.25908683  0.19509125  1  -0.005736  0  -0.075707  -0.080401  0  3.950198  0
C  C225  1  0.76841095  0.95010714  0.67514242  1  -0.070955  0  -0.090503  -0.079437  0  4.00517  0
C  C226  1  0.85239266  0.80444861  0.58268449  1  -0.02096  0  -0.05723  -0.051802  0  3.910718  0
C  C227  1  0.82152056  0.71516555  0.53430611  1  -0.047246  0  -0.087764  -0.142606  0  3.984466  0
C  C228  1  0.73557206  0.65501082  0.51139960  1  0.529215  0  0.059918  0.111145  0  3.937272  0
C  C229  1  0.68104653  0.88536152  0.64524335  1  -0.073732  0  -0.085172  -0.060906  0  3.98639  0
C  C230  1  0.79738663  0.83380259  0.60657887  1  -0.009797  0  -0.000833  0.03577  0  3.99424  0
C  C231  1  0.82548595  0.92487756  0.65542709  1  0.005495  0  -0.082013  -0.111511  0  3.956142  0
C  C232  1  0.70962681  0.76851437  0.57847998  1  0.399797  0  0.116841  0.204154  0  3.954337  0
C  C233  1  0.65164418  0.79627565  0.59763090  1  0.061543  0  -0.0854  -0.160328  0  3.937168  0
C  C234  1  0.33174561  0.44268311  0.89189908  1  1.572588  0  0.211704  0.589382  0  4.171855  0
C  C235  1  0.23575956  0.41706153  0.84116576  1  -0.014378  0  -0.020759  -0.044247  0  3.980512  0
C  C236  1  0.18807636  0.36818163  0.74844344  1  0.02693  0  -0.081902  -0.085318  0  3.958131  0
C  C237  1  0.55385081  0.59481915  0.93310605  1  1.562555  0  0.213385  0.580881  0  4.197625  0
C  C238  1  0.57701062  0.64821547  0.89050511  1  -0.087225  0  -0.021168  -0.047899  0  3.998941  0
C  C239  1  0.62038138  0.74091026  0.93600051  1  -0.034747  0  -0.075625  -0.080229  0  3.950319  0
C  C240  1  0.31830416  0.04988268  0.72502735  1  -0.061205  0  -0.090489  -0.079505  0  4.005223  0
C  C241  1  0.54793987  0.19555118  0.77823443  1  -0.01759  0  -0.057281  -0.051897  0  3.910768  0
C  C242  1  0.60634659  0.28483420  0.81913451  1  -0.013626  0  -0.087791  -0.142717  0  3.98464  0
C  C243  1  0.58055175  0.34498583  0.85638642  1  0.461013  0  0.059945  0.111234  0  3.93715  0
C  C244  1  0.29568098  0.11462324  0.75987744  1  -0.033105  0  -0.085083  -0.060507  0  3.986156  0
C  C245  1  0.46358128  0.16619417  0.77277715  1  0.005359  0  -0.000837  0.035833  0  3.994007  0
C  C246  1  0.40060747  0.07511794  0.73054242  1  -0.02994  0  -0.081975  -0.11142  0  3.956128  0
C  C247  1  0.44110928  0.23148063  0.80997350  1  0.395742  0  0.116805  0.204181  0  3.954174  0
C  C248  1  0.35536424  0.20371237  0.80136167  1  0.021378  0  -0.085525  -0.160603  0  3.93735  0
C  C249  1  0.88908455  0.44922209  0.55734542  1  1.562678  0  0.211639  0.589172  0  4.172253  0
C  C250  1  0.81870345  0.42410454  0.58294461  1  -0.023396  0  -0.020703  -0.044084  0  3.980567  0
C  C251  1  0.81988857  0.38025788  0.63182144  1  0.007889  0  -0.081735  -0.085115  0  3.958111  0
C  C252  1  0.95902289  0.33828865  0.40518161  1  1.560473  0  0.213264  0.580648  0  4.197536  0
C  C253  1  0.92879031  0.24229260  0.35178163  1  -0.00468  0  -0.021133  -0.047857  0  3.998843  0
C  C254  1  0.87947095  0.19509079  0.25908735  1  -0.005823  0  -0.075675  -0.080304  0  3.950251  0
C  C255  1  0.26841145  0.67514216  0.95010747  1  -0.070955  0  -0.090471  -0.079373  0  4.005173  0
C  C256  1  0.35239208  0.58268481  0.80444771  1  -0.020941  0  -0.057221  -0.051822  0  3.910694  0
C  C257  1  0.32151962  0.53430644  0.71516472  1  -0.047264  0  -0.087749  -0.142562  0  3.984443  0
C  C258  1  0.23557170  0.51139916  0.65501040  1  0.529181  0  0.059952  0.111211  0  3.93725  0
C  C259  1  0.18104669  0.64524331  0.88536208  1  -0.073735  0  -0.085167  -0.060911  0  3.986376  0
C  C260  1  0.29738660  0.60657905  0.83380255  1  -0.009786  0  -0.000822  0.035751  0  3.994226  0
C  C261  1  0.32548519  0.65542657  0.92487777  1  0.005491  0  -0.082051  -0.111559  0  3.956232  0
C  C262  1  0.20962633  0.57847939  0.76851411  1  0.399788  0  0.116911  0.204324  0  3.954319  0
C  C263  1  0.15164388  0.59763120  0.79627612  1  0.061801  0  -0.085392  -0.160341  0  3.937185  0
C  C264  1  0.43986877  0.10813593  0.55077311  1  1.543568  0  0.211524  0.589009  0  4.172524  0
C  C265  1  0.39460765  0.15885370  0.57589539  1  0.006441  0  -0.020795  -0.044285  0  3.980416  0
C  C266  1  0.43963249  0.25157694  0.61974672  1  -0.018798  0  -0.081734  -0.084938  0  3.957866  0
C  C267  1  0.62071624  0.06689854  0.66171777  1  1.572552  0  0.213133  0.580524  0  4.197389  0
C  C268  1  0.68649437  0.10949946  0.75770848  1  -0.081282  0  -0.021072  -0.047789  0  3.998817  0
C  C269  1  0.68437747  0.06400385  0.80490795  1  0.003891  0  -0.075628  -0.080211  0  3.94999  0
C  C270  1  0.59328740  0.27497566  0.32486404  1  0.007937  0  -0.090437  -0.07927  0  4.005025  0
C  C271  1  0.76972644  0.22178593  0.41734540  1  -0.04737  0  -0.057236  -0.051794  0  3.910576  0
C  C272  1  0.78722472  0.18087060  0.46571430  1  -0.02976  0  -0.087848  -0.142639  0  3.9846  0
C  C273  1  0.72417154  0.14360810  0.48860286  1  0.514269  0  0.059929  0.111192  0  3.937456  0
C  C274  1  0.53581201  0.24012307  0.35475305  1  -0.072997  0  -0.085212  -0.06096  0  3.986187  0
C  C275  1  0.69082513  0.22724257  0.39344267  1  0.023455  0  -0.000836  0.035775  0  3.994406  0
C  C276  1  0.67008214  0.26947206  0.34459578  1  -0.040038  0  -0.082012  -0.111642  0  3.956414  0
C  C277  1  0.63115192  0.19003960  0.42152546  1  0.405845  0  0.116859  0.204315  0  3.954256  0
C  C278  1  0.55401630  0.19864727  0.40236543  1  -0.00452  0  -0.085335  -0.160295  0  3.937269  0
C  C279  1  0.06013319  0.44922731  0.89186505  1  1.543397  0  0.211525  0.589061  0  4.172435  0
C  C280  1  0.10539349  0.42410434  0.84114555  1  0.006619  0  -0.020841  -0.044352  0  3.980494  0
C  C281  1  0.06036891  0.38025340  0.74842321  1  -0.018845  0  -0.081753  -0.084994  0  3.957858  0
C  C282  1  0.87928374  0.33828197  0.93310120  1  1.572524  0  0.213112  0.580531  0  4.197458  0
C  C283  1  0.81350582  0.24229259  0.89050102  1  -0.081087  0  -0.021083  -0.047832  0  3.998957  0
C  C284  1  0.81562254  0.19509242  0.93599566  1  0.00379  0  -0.075608  -0.080166  0  3.949944  0
C  C285  1  0.90671358  0.67513650  0.72502480  1  0.007833  0  -0.090458  -0.079289  0  4.005064  0
C  C286  1  0.73027431  0.58265424  0.77821512  1  -0.04718  0  -0.057269  -0.051812  0  3.910461  0
C  C287  1  0.71277588  0.53428489  0.81912982  1  -0.029783  0  -0.087807  -0.142571  0  3.984606  0
C  C288  1  0.77582914  0.51139697  0.85639249  1  0.514286  0  0.059976  0.111212  0  3.937551  0
C  C289  1  0.96418865  0.64524776  0.75987682  1  -0.072969  0  -0.085236  -0.061009  0  3.986238  0
C  C290  1  0.80917527  0.60655685  0.77275761  1  0.023277  0  -0.000824  0.035753  0  3.994383  0
C  C291  1  0.82991812  0.65540395  0.73052860  1  -0.040101  0  -0.082056  -0.11165  0  3.956396  0
C  C292  1  0.86884867  0.57847455  0.80996035  1  0.405818  0  0.116774  0.204208  0  3.954289  0
C  C293  1  0.94598393  0.59763540  0.80135288  1  -0.004516  0  -0.085314  -0.160209  0  3.93729  0
C  C294  1  0.16825553  0.10810343  0.55731853  1  1.572806  0  0.21166  0.58933  0  4.171901  0
C  C295  1  0.26424105  0.15883346  0.58293787  1  -0.014327  0  -0.020713  -0.044176  0  3.980384  0
C  C296  1  0.31192515  0.25155735  0.63181889  1  0.0274  0  -0.081864  -0.085236  0  3.958025  0
C  C297  1  0.94615003  0.06689693  0.40518393  1  1.562472  0  0.213363  0.580814  0  4.197543  0
C  C298  1  0.92298919  0.10949368  0.35178378  1  -0.087238  0  -0.021128  -0.047879  0  3.998976  0
C  C299  1  0.87961891  0.06399973  0.25909009  1  -0.034667  0  -0.075615  -0.080192  0  3.950247  0
C  C300  1  0.18169642  0.27497285  0.95011802  1  -0.061241  0  -0.090491  -0.079499  0  4.005196  0
C  C301  1  0.95206015  0.22176502  0.80444869  1  -0.017604  0  -0.057277  -0.051885  0  3.910793  0
C  C302  1  0.89365441  0.18086530  0.71516657  1  -0.013676  0  -0.087762  -0.142704  0  3.984715  0
C  C303  1  0.91944926  0.14361334  0.65501467  1  0.461029  0  0.059967  0.111234  0  3.937171  0
C  C304  1  0.20431943  0.24012289  0.88537756  1  -0.033137  0  -0.085071  -0.060501  0  3.986154  0
C  C305  1  0.03641858  0.22722208  0.83380589  1  0.005099  0  -0.000857  0.035795  0  3.99398  0
C  C306  1  0.09939267  0.26945843  0.92488271  1  -0.029483  0  -0.081945  -0.111356  0  3.95601  0
C  C307  1  0.05889020  0.19002637  0.76851945  1  0.395746  0  0.116806  0.204198  0  3.954163  0
C  C308  1  0.14463556  0.19863823  0.79628865  1  0.021412  0  -0.085514  -0.160596  0  3.93733  0
C  C309  1  0.61091756  0.44265595  0.55077863  1  1.562627  0  0.211593  0.58905  0  4.172214  0
C  C310  1  0.68129762  0.41705505  0.57589606  1  -0.023634  0  -0.020671  -0.043976  0  3.980506  0
C  C311  1  0.68011267  0.36817878  0.61974219  1  0.008141  0  -0.081758  -0.085134  0  3.958278  0
C  C312  1  0.54097841  0.59481899  0.66171113  1  1.560165  0  0.213263  0.580643  0  4.197517  0
C  C313  1  0.57120875  0.64821704  0.75770613  1  -0.004445  0  -0.021076  -0.047714  0  3.998784  0
C  C314  1  0.62052831  0.74091247  0.80490809  1  -0.006085  0  -0.075733  -0.080426  0  3.950252  0
C  C315  1  0.23158891  0.04989282  0.32485833  1  -0.070959  0  -0.090481  -0.079371  0  4.005151  0
C  C316  1  0.14760786  0.19555268  0.41731530  1  -0.021004  0  -0.057252  -0.051799  0  3.910678  0
C  C317  1  0.17848054  0.28483574  0.46569333  1  -0.047276  0  -0.087732  -0.142515  0  3.984394  0
C  C318  1  0.26442904  0.34499047  0.48860092  1  0.529202  0  0.059887  0.111142  0  3.937247  0
C  C319  1  0.31895300  0.11463778  0.35475653  1  -0.073726  0  -0.085161  -0.060944  0  3.986371  0
C  C320  1  0.20261323  0.16619738  0.39342080  1  -0.00978  0  -0.000837  0.035773  0  3.994254  0
C  C321  1  0.17451483  0.07512307  0.34457365  1  0.005501  0  -0.082018  -0.11153  0  3.956224  0
C  C322  1  0.29037454  0.23148626  0.42152040  1  0.399999  0  0.116899  0.204167  0  3.954351  0
C  C323  1  0.34835626  0.20372432  0.40236950  1  0.061598  0  -0.085361  -0.160195  0  3.9372  0
C  C324  1  0.80658972  0.55657808  0.11316411  1  -0.035572  0  -0.078248  -0.098427  0  3.940843  0
C  C325  1  0.89878461  0.64879676  0.29758785  1  -0.133251  0  -0.093453  -0.082166  0  3.994994  0
C  C326  1  0.25000094  0.55657940  0.44342071  1  -0.025015  0  -0.078379  -0.098731  0  3.940945  0
C  C327  1  0.25000158  0.64879148  0.35120861  1  -0.115586  0  -0.093491  -0.082162  0  3.995199  0
C  C328  1  0.69341162  0.88683678  0.44342286  1  -0.035539  0  -0.078212  -0.098334  0  3.940665  0
C  C329  1  0.60121591  0.70241264  0.35120419  1  -0.133286  0  -0.093407  -0.082087  0  3.995003  0
C  C330  1  0.19341072  0.44342189  0.88683521  1  -0.035563  0  -0.078267  -0.098388  0  3.940843  0
C  C331  1  0.10121707  0.35120453  0.70241340  1  -0.132888  0  -0.093369  -0.082061  0  3.994983  0
C  C332  1  0.75000091  0.44341991  0.55657993  1  -0.025012  0  -0.078372  -0.098703  0  3.94107  0
C  C333  1  0.75000002  0.35120849  0.64879109  1  -0.115478  0  -0.093487  -0.082177  0  3.995231  0
C  C334  1  0.30658982  0.11316517  0.55657854  1  -0.03555  0  -0.078253  -0.098412  0  3.940765  0
C  C335  1  0.39878444  0.29758600  0.64879520  1  -0.133334  0  -0.093418  -0.082142  0  3.995062  0
C  C336  1  0.44865184  0.39730364  0.19865445  1  0.048794  0  -0.077089  -0.112288  0  3.965826  0
C  C337  1  0.35657988  0.21315477  0.10657754  1  -0.120222  0  -0.090055  -0.087745  0  4.016359  0
C  C338  1  0.05134929  0.80134562  0.60269736  1  0.048772  0  -0.077031  -0.112079  0  3.965701  0
C  C339  1  0.14341961  0.89342071  0.78684438  1  -0.120183  0  -0.090066  -0.08775  0  4.016453  0
C  C340  1  0.24999972  0.80134389  0.19865584  1  0.04919  0  -0.077051  -0.112368  0  3.966049  0
C  C341  1  0.24999970  0.89341900  0.10658185  1  -0.098672  0  -0.090151  -0.087976  0  4.016507  0
C  C342  1  0.55134860  0.60269632  0.80134541  1  0.048802  0  -0.077087  -0.11231  0  3.965671  0
C  C343  1  0.64342064  0.78684652  0.89342171  1  -0.120098  0  -0.090093  -0.087926  0  4.016427  0
C  C344  1  0.94865174  0.19865435  0.39730432  1  0.048839  0  -0.077108  -0.112297  0  3.965674  0
C  C345  1  0.85657868  0.10657727  0.21315303  1  -0.120196  0  -0.090095  -0.087915  0  4.016449  0
C  C346  1  0.75000047  0.19865674  0.80134362  1  0.049119  0  -0.077008  -0.112244  0  3.965793  0
C  C347  1  0.74999983  0.10658031  0.89341912  1  -0.098668  0  -0.090171  -0.088023  0  4.016671  0
N  N348  1  0.49829635  0.67982790  0.14737805  1  -1.244796  0  -0.320585  -0.268221  0  3.499426  0
N  N349  1  0.81846899  0.46756314  0.32017784  1  -1.250938  0  -0.320504  -0.268113  0  3.499535  0
N  N350  1  0.35090676  0.85261797  0.53243914  1  -1.248209  0  -0.320533  -0.26819  0  3.499622  0
N  N351  1  0.14909437  0.46756027  0.14738222  1  -1.248183  0  -0.320517  -0.268138  0  3.499673  0
N  N352  1  0.00170369  0.85262241  0.32017220  1  -1.24494  0  -0.320598  -0.268252  0  3.499426  0
N  N353  1  0.68153320  0.67982286  0.53243721  1  -1.250881  0  -0.320472  -0.268041  0  3.499639  0
N  N354  1  0.50170492  0.32017141  0.85262131  1  -1.244921  0  -0.320573  -0.26816  0  3.499509  0
N  N355  1  0.18153377  0.53243683  0.67982385  1  -1.250895  0  -0.320592  -0.268258  0  3.499816  0
N  N356  1  0.64909401  0.14738266  0.46755997  1  -1.248252  0  -0.320603  -0.268327  0  3.499847  0
N  N357  1  0.85090665  0.53243969  0.85261783  1  -1.248229  0  -0.320564  -0.268256  0  3.499744  0
N  N358  1  0.99829593  0.14737822  0.67982923  1  -1.244982  0  -0.32061  -0.2682  0  3.499504  0
N  N359  1  0.31846782  0.32017710  0.46756338  1  -1.250913  0  -0.320512  -0.268118  0  3.499607  0
O  O360  1  0.64022722  0.60460826  0.14576662  1  -1.170192  0  -0.315952  -0.542248  0  2.308858  0
O  O361  1  0.46561551  0.48554148  0.10731105  1  -1.166449  0  -0.312835  -0.541816  0  2.350715  0
O  O362  1  0.62128328  0.48922432  0.03111786  1  -1.183196  0  -0.316584  -0.572198  0  2.360969  0
O  O363  1  0.44621541  0.36617237  0.99561307  1  -1.17147  0  -0.31296  -0.552933  0  2.374424  0
O  O364  1  0.03560374  0.54115561  0.39534879  1  -1.164742  0  -0.315877  -0.542147  0  2.309387  0
O  O365  1  0.98008160  0.62177283  0.51446050  1  -1.172199  0  -0.312884  -0.541764  0  2.350613  0
O  O366  1  0.13201011  0.54187579  0.51073999  1  -1.180118  0  -0.316645  -0.572077  0  2.360919  0
O  O367  1  0.08006028  0.62943980  0.63382014  1  -1.171568  0  -0.312946  -0.552903  0  2.374289  0
O  O368  1  0.49445871  0.85419859  0.45887922  1  -1.166546  0  -0.315817  -0.541922  0  2.309309  0
O  O369  1  0.35833975  0.89270166  0.37824106  1  -1.16538  0  -0.31288  -0.541818  0  2.350636  0
O  O370  1  0.59012271  0.96884475  0.45810967  1  -1.182005  0  -0.316498  -0.571944  0  2.360552  0
O  O371  1  0.45063792  0.00436695  0.37053360  1  -1.168675  0  -0.312641  -0.552532  0  2.374061  0
O  O372  1  0.00554127  0.54112037  0.14580161  1  -1.166605  0  -0.315852  -0.54195  0  2.309285  0
O  O373  1  0.14166014  0.62175883  0.10729660  1  -1.165371  0  -0.312834  -0.541745  0  2.350814  0
O  O374  1  0.90987991  0.54189078  0.03115642  1  -1.18194  0  -0.316515  -0.571976  0  2.360635  0
O  O375  1  0.04936291  0.62946572  0.99563138  1  -1.168675  0  -0.312637  -0.55251  0  2.373975  0
O  O376  1  0.85977494  0.85423429  0.39539153  1  -1.170234  0  -0.31597  -0.542299  0  2.308851  0
O  O377  1  0.03438411  0.89268693  0.51445590  1  -1.166366  0  -0.312853  -0.541813  0  2.350566  0
O  O378  1  0.87871544  0.96887976  0.51077493  1  -1.183256  0  -0.316593  -0.572228  0  2.361217  0
O  O379  1  0.05378458  0.00438392  0.63382604  1  -1.171484  0  -0.312923  -0.552859  0  2.374655  0
O  O380  1  0.46439718  0.60465046  0.45884411  1  -1.164795  0  -0.315887  -0.542196  0  2.309528  0
O  O381  1  0.51991928  0.48553759  0.37822736  1  -1.172212  0  -0.312853  -0.541689  0  2.350614  0
O  O382  1  0.36799070  0.48925789  0.45812247  1  -1.180091  0  -0.316685  -0.572164  0  2.360779  0
O  O383  1  0.41994194  0.36617680  0.37056170  1  -1.171584  0  -0.313005  -0.553012  0  2.374209  0
O  O384  1  0.35977364  0.39539370  0.85423621  1  -1.170309  0  -0.315898  -0.542109  0  2.309208  0
O  O385  1  0.53438494  0.51446312  0.89269146  1  -1.166658  0  -0.312808  -0.541706  0  2.350865  0
O  O386  1  0.37871848  0.51077829  0.96888603  1  -1.183135  0  -0.316667  -0.572271  0  2.360707  0
O  O387  1  0.55378586  0.63383157  0.00439111  1  -1.171361  0  -0.312986  -0.552961  0  2.374219  0
O  O388  1  0.96439414  0.45884502  0.60464775  1  -1.164831  0  -0.315801  -0.542041  0  2.309806  0
O  O389  1  0.01991405  0.37822449  0.48553365  1  -1.17253  0  -0.312813  -0.541588  0  2.350917  0
O  O390  1  0.86798743  0.45812417  0.48925459  1  -1.180055  0  -0.316757  -0.572257  0  2.360436  0
O  O391  1  0.91993768  0.37056215  0.36617417  1  -1.171574  0  -0.312856  -0.552828  0  2.373861  0
O  O392  1  0.50553743  0.14579741  0.54112007  1  -1.166706  0  -0.315822  -0.541901  0  2.309688  0
O  O393  1  0.64165789  0.10729500  0.62176055  1  -1.165382  0  -0.312801  -0.541677  0  2.351095  0
O  O394  1  0.40987517  0.03115125  0.54189018  1  -1.181886  0  -0.316574  -0.57203  0  2.360293  0
O  O395  1  0.54935756  0.99562772  0.62946557  1  -1.168688  0  -0.312777  -0.552687  0  2.373693  0
O  O396  1  0.99446322  0.45887960  0.85420174  1  -1.166672  0  -0.315809  -0.541915  0  2.309594  0
O  O397  1  0.85834138  0.37823981  0.89270479  1  -1.165405  0  -0.312821  -0.5417  0  2.351034  0
O  O398  1  0.09012458  0.45810918  0.96884801  1  -1.181912  0  -0.316567  -0.572044  0  2.360363  0
O  O399  1  0.95064076  0.37053491  0.00437030  1  -1.16865  0  -0.312751  -0.552667  0  2.373798  0
O  O400  1  0.14022707  0.14576303  0.60460417  1  -1.170663  0  -0.315858  -0.542058  0  2.309337  0
O  O401  1  0.96561509  0.10730709  0.48553506  1  -1.166694  0  -0.312813  -0.541676  0  2.351026  0
O  O402  1  0.12128103  0.03111227  0.48921880  1  -1.183013  0  -0.316678  -0.57229  0  2.360598  0
O  O403  1  0.94621412  0.99560679  0.36616689  1  -1.171242  0  -0.312967  -0.552919  0  2.373908  0
O  O404  1  0.53560633  0.39535216  0.54115656  1  -1.164682  0  -0.315795  -0.54204  0  2.309598  0
O  O405  1  0.48008356  0.51446370  0.62177373  1  -1.172256  0  -0.312833  -0.541632  0  2.35085  0
O  O406  1  0.63201305  0.51074406  0.54187589  1  -1.180078  0  -0.316748  -0.572195  0  2.360507  0
O  O407  1  0.58006164  0.63382250  0.62943734  1  -1.171541  0  -0.312857  -0.552822  0  2.373905  0
