# generated using pymatgen
data_ZnH6(C3N2)2
_symmetry_space_group_name_H-M   'P 1'
_cell_length_a   16.52484769
_cell_length_b   27.25571820
_cell_length_c   27.25552131
_cell_angle_alpha   120.00037740
_cell_angle_beta   90.00022581
_cell_angle_gamma   89.99991879
_symmetry_Int_Tables_number   1
_chemical_formula_structural   ZnH6(C3N2)2
_chemical_formula_sum   'Zn24 H144 C144 N96'
_cell_volume   10631.10895054
_cell_formula_units_Z   24
loop_
 _symmetry_equiv_pos_site_id
 _symmetry_equiv_pos_as_xyz
  1  'x, y, z'
loop_
 _atom_site_type_symbol
 _atom_site_label
 _atom_site_symmetry_multiplicity
 _atom_site_fract_x
 _atom_site_fract_y
 _atom_site_fract_z
 _atom_site_occupancy
 _atom_site_pbe_bader_charge
 _atom_site_pbe_bader_spin_density
 _atom_site_pbe_cm5_charge
 _atom_site_pbe_ddec_charge
 _atom_site_pbe_ddec_spin_density
 _atom_site_pbe_ddec_sum_bond_order
 _atom_site_pbe_magmom
Zn  Zn0  1  0.31358044  0.46035132  0.33523551  1  1.19133  0  0.707561  0.629965  0  2.499585  0
Zn  Zn1  1  0.31358364  0.87487733  0.53964150  1  1.191728  0  0.707595  0.629976  0  2.499511  0
Zn  Zn2  1  0.31358074  0.66475963  0.12511674  1  1.190448  0  0.707605  0.63005  0  2.49955  0
Zn  Zn3  1  0.31358079  0.53964889  0.66476640  1  1.19138  0  0.707563  0.629941  0  2.499572  0
Zn  Zn4  1  0.31357819  0.12511875  0.46035501  1  1.191756  0  0.707577  0.629972  0  2.499431  0
Zn  Zn5  1  0.31357988  0.33524105  0.87488691  1  1.190363  0  0.707644  0.630063  0  2.499521  0
Zn  Zn6  1  0.18641720  0.53964216  0.87487985  1  1.191678  0  0.707596  0.630082  0  2.499467  0
Zn  Zn7  1  0.18642185  0.12511633  0.66476103  1  1.190494  0  0.707585  0.630038  0  2.499405  0
Zn  Zn8  1  0.18641914  0.33523949  0.46035630  1  1.191253  0  0.707566  0.62991  0  2.499683  0
Zn  Zn9  1  0.18641793  0.46035831  0.12512289  1  1.191655  0  0.707593  0.630046  0  2.499462  0
Zn  Zn10  1  0.18641934  0.87488101  0.33523603  1  1.190499  0  0.707621  0.630067  0  2.499475  0
Zn  Zn11  1  0.18641781  0.66476161  0.53964580  1  1.191191  0  0.7076  0.629975  0  2.499533  0
Zn  Zn12  1  0.68641570  0.53964579  0.66476201  1  1.19116  0  0.707582  0.630043  0  2.499521  0
Zn  Zn13  1  0.68641733  0.12511899  0.46035609  1  1.191712  0  0.707608  0.630045  0  2.49951  0
Zn  Zn14  1  0.68641781  0.33524031  0.87488531  1  1.190413  0  0.707612  0.630065  0  2.499426  0
Zn  Zn15  1  0.68641776  0.46035293  0.33523669  1  1.191218  0  0.707606  0.63005  0  2.499554  0
Zn  Zn16  1  0.68641915  0.87488005  0.53964082  1  1.191681  0  0.707581  0.63  0  2.499462  0
Zn  Zn17  1  0.68642049  0.66475836  0.12511418  1  1.190324  0  0.707639  0.630171  0  2.499345  0
Zn  Zn18  1  0.81358498  0.46035305  0.12511959  1  1.19171  0  0.707593  0.62997  0  2.499658  0
Zn  Zn19  1  0.81358276  0.87488458  0.33523563  1  1.190481  0  0.707583  0.629933  0  2.499591  0
Zn  Zn20  1  0.81357820  0.66476459  0.53964820  1  1.191437  0  0.70758  0.629905  0  2.499551  0
Zn  Zn21  1  0.81358244  0.53964563  0.87487808  1  1.191587  0  0.707592  0.630009  0  2.49956  0
Zn  Zn22  1  0.81357861  0.12511530  0.66476451  1  1.190408  0  0.707593  0.629988  0  2.499552  0
Zn  Zn23  1  0.81358135  0.33523591  0.46035425  1  1.191176  0  0.707609  0.630031  0  2.499493  0
H  H24  1  0.27996718  0.34062967  0.21645376  1  0.050597  0  0.107216  0.09302  0  1.049614  0
H  H25  1  0.27996495  0.87581993  0.65936835  1  0.064814  0  0.107237  0.093071  0  1.049648  0
H  H26  1  0.27997061  0.78354239  0.12417438  1  0.046601  0  0.107257  0.093084  0  1.049593  0
H  H27  1  0.27996560  0.65937220  0.78355227  1  0.050391  0  0.10723  0.093071  0  1.049639  0
H  H28  1  0.27997387  0.12417987  0.34063094  1  0.0648  0  0.107225  0.093056  0  1.04963  0
H  H29  1  0.27997547  0.21645983  0.87582396  1  0.046404  0  0.10721  0.093014  0  1.049604  0
H  H30  1  0.22003130  0.65937149  0.87582423  1  0.064652  0  0.107231  0.09309  0  1.049605  0
H  H31  1  0.22004251  0.12418379  0.78355122  1  0.046665  0  0.107211  0.09304  0  1.049683  0
H  H32  1  0.22003615  0.21645164  0.34062909  1  0.050398  0  0.10721  0.093053  0  1.049643  0
H  H33  1  0.22003108  0.34062852  0.12417981  1  0.064983  0  0.107211  0.093035  0  1.049648  0
H  H34  1  0.22003621  0.87581682  0.21644707  1  0.046676  0  0.107263  0.093161  0  1.04955  0
H  H35  1  0.22003773  0.78354718  0.65936953  1  0.050394  0  0.107211  0.093035  0  1.049628  0
H  H36  1  0.72003077  0.65937395  0.78354900  1  0.050495  0  0.107185  0.09303  0  1.049613  0
H  H37  1  0.72003784  0.12417661  0.34062902  1  0.064805  0  0.10722  0.09304  0  1.049667  0
H  H38  1  0.72002794  0.21645526  0.87582114  1  0.04646  0  0.107199  0.093039  0  1.049623  0
H  H39  1  0.72003114  0.34062532  0.21644778  1  0.050292  0  0.107225  0.093141  0  1.049499  0
H  H40  1  0.72003739  0.87582533  0.65937170  1  0.064622  0  0.107225  0.093082  0  1.04966  0
H  H41  1  0.72003034  0.78354468  0.12418012  1  0.046566  0  0.107241  0.093125  0  1.049594  0
H  H42  1  0.77997149  0.34062698  0.12417635  1  0.064862  0  0.107193  0.093037  0  1.049621  0
H  H43  1  0.77996633  0.87581680  0.21645530  1  0.046626  0  0.107259  0.093144  0  1.049657  0
H  H44  1  0.77997027  0.78355246  0.65937246  1  0.050387  0  0.107192  0.093003  0  1.049663  0
H  H45  1  0.77996626  0.65937458  0.87582201  1  0.064911  0  0.107196  0.093054  0  1.049637  0
H  H46  1  0.77996234  0.12418168  0.78354760  1  0.046377  0  0.107246  0.093121  0  1.049698  0
H  H47  1  0.77997051  0.21645049  0.34063110  1  0.050512  0  0.107232  0.093045  0  1.049639  0
H  H48  1  0.25000193  0.50936485  0.25468159  1  0.082718  0  0.112513  0.056749  0  1.077228  0
H  H49  1  0.24999697  0.74531629  0.49063332  1  0.049298  0  0.112499  0.056706  0  1.077308  0
H  H50  1  0.24999924  0.74531767  0.25468195  1  0.081329  0  0.112517  0.05675  0  1.077231  0
H  H51  1  0.24999867  0.49063703  0.74531846  1  0.049393  0  0.11254  0.056792  0  1.077213  0
H  H52  1  0.24999577  0.25468502  0.50936657  1  0.049298  0  0.112526  0.056801  0  1.077341  0
H  H53  1  0.24999531  0.25468484  0.74531746  1  0.081271  0  0.112501  0.05673  0  1.077353  0
H  H54  1  0.74999965  0.49063842  0.74531785  1  0.049227  0  0.112532  0.056821  0  1.077232  0
H  H55  1  0.74999977  0.25468129  0.50936594  1  0.082953  0  0.112499  0.056704  0  1.077343  0
H  H56  1  0.74999871  0.25468501  0.74531734  1  0.081248  0  0.112485  0.056659  0  1.077361  0
H  H57  1  0.74999867  0.50936159  0.25468270  1  0.049219  0  0.112493  0.056744  0  1.077133  0
H  H58  1  0.74999855  0.74531824  0.49063582  1  0.083081  0  0.112538  0.056811  0  1.077181  0
H  H59  1  0.74999659  0.74531268  0.25468259  1  0.081142  0  0.112546  0.056773  0  1.077459  0
H  H60  1  0.28907477  0.57855570  0.33200533  1  0.072684  0  0.110622  0.099343  0  1.031427  0
H  H61  1  0.28907425  0.75344258  0.42143694  1  0.081479  0  0.110629  0.09939  0  1.031365  0
H  H62  1  0.28907924  0.66799643  0.24655741  1  0.086516  0  0.110643  0.099435  0  1.031298  0
H  H63  1  0.28907723  0.42144377  0.66799579  1  0.072648  0  0.110619  0.099375  0  1.031378  0
H  H64  1  0.28906686  0.24655954  0.57856005  1  0.08141  0  0.110651  0.099495  0  1.031189  0
H  H65  1  0.28908245  0.33200413  0.75344776  1  0.086245  0  0.11065  0.099381  0  1.031403  0
H  H66  1  0.21092852  0.42143690  0.75344070  1  0.081518  0  0.110665  0.099452  0  1.031239  0
H  H67  1  0.21092119  0.24655335  0.66799691  1  0.086286  0  0.110645  0.099413  0  1.03134  0
H  H68  1  0.21092867  0.33200645  0.57855583  1  0.072772  0  0.110636  0.099406  0  1.031421  0
H  H69  1  0.21092552  0.57856096  0.24656032  1  0.081651  0  0.110647  0.099464  0  1.031212  0
H  H70  1  0.21092014  0.75344909  0.33200319  1  0.08632  0  0.110627  0.099386  0  1.031376  0
H  H71  1  0.21092658  0.66799351  0.42144602  1  0.072749  0  0.11065  0.099401  0  1.031448  0
H  H72  1  0.71092560  0.42144502  0.66799666  1  0.072728  0  0.11063  0.099385  0  1.031332  0
H  H73  1  0.71093096  0.24655553  0.57856032  1  0.081384  0  0.110657  0.099465  0  1.031292  0
H  H74  1  0.71091750  0.33200633  0.75344915  1  0.086388  0  0.110652  0.099434  0  1.03142  0
H  H75  1  0.71093342  0.57855333  0.33200469  1  0.072322  0  0.110659  0.099403  0  1.03144  0
H  H76  1  0.71092625  0.75344468  0.42143697  1  0.081573  0  0.110659  0.099425  0  1.031404  0
H  H77  1  0.71092276  0.66799337  0.24655524  1  0.086355  0  0.110675  0.099512  0  1.031287  0
H  H78  1  0.78907669  0.57855649  0.24655395  1  0.081991  0  0.110635  0.099395  0  1.031302  0
H  H79  1  0.78907857  0.75345254  0.33200431  1  0.086391  0  0.110631  0.099348  0  1.031497  0
H  H80  1  0.78907593  0.66799412  0.42144558  1  0.07271  0  0.110612  0.099323  0  1.031522  0
H  H81  1  0.78906759  0.42144191  0.75344466  1  0.081585  0  0.110634  0.099392  0  1.031355  0
H  H82  1  0.78907780  0.24654571  0.66799371  1  0.08646  0  0.11064  0.099372  0  1.031529  0
H  H83  1  0.78907440  0.33200477  0.57855987  1  0.072388  0  0.110633  0.099395  0  1.031335  0
H  H84  1  0.25000074  0.53908807  0.46090646  1  0.080474  0  0.120754  0.070297  0  1.041424  0
H  H85  1  0.25000575  0.92181468  0.46090988  1  0.077192  0  0.120789  0.070354  0  1.041318  0
H  H86  1  0.25000133  0.53909175  0.07818850  1  0.077273  0  0.120776  0.070274  0  1.041211  0
H  H87  1  0.25000229  0.46091149  0.53909591  1  0.08053  0  0.120767  0.070291  0  1.041432  0
H  H88  1  0.25000454  0.07818583  0.53909007  1  0.07722  0  0.120729  0.070256  0  1.041227  0
H  H89  1  0.24999685  0.46090884  0.92181577  1  0.07716  0  0.120784  0.070418  0  1.041244  0
H  H90  1  0.75000266  0.46090500  0.53908998  1  0.080601  0  0.120794  0.07036  0  1.041336  0
H  H91  1  0.74999099  0.07818195  0.53908886  1  0.077068  0  0.120762  0.070374  0  1.041334  0
H  H92  1  0.75000267  0.46091217  0.92181542  1  0.077174  0  0.12074  0.070252  0  1.0413  0
H  H93  1  0.74999808  0.53909185  0.46091080  1  0.080498  0  0.120764  0.070372  0  1.041354  0
H  H94  1  0.74999946  0.92181628  0.46090906  1  0.077115  0  0.120787  0.070367  0  1.04128  0
H  H95  1  0.75000473  0.53908847  0.07818449  1  0.077189  0  0.120747  0.070271  0  1.041219  0
H  H96  1  0.27342451  0.33425250  0.27904693  1  0.028118  0  0.105961  0.090351  0  1.066695  0
H  H97  1  0.27343957  0.94478698  0.66573545  1  0.045414  0  0.105956  0.090403  0  1.066645  0
H  H98  1  0.27342033  0.72094646  0.05521058  1  0.081835  0  0.105939  0.090377  0  1.066702  0
H  H99  1  0.27343099  0.66574264  0.72095406  1  0.028257  0  0.106024  0.090457  0  1.066717  0
H  H100  1  0.27342924  0.05520821  0.33425669  1  0.045492  0  0.105992  0.090421  0  1.066735  0
H  H101  1  0.27342004  0.27905621  0.94479242  1  0.081717  0  0.105949  0.090375  0  1.066756  0
H  H102  1  0.22656894  0.66573456  0.94478889  1  0.045213  0  0.105934  0.090383  0  1.066665  0
H  H103  1  0.22657679  0.05520823  0.72094882  1  0.081569  0  0.105938  0.09034  0  1.066672  0
H  H104  1  0.22657530  0.27904849  0.33426561  1  0.028201  0  0.105988  0.090479  0  1.066675  0
H  H105  1  0.22656648  0.33426403  0.05521290  1  0.045357  0  0.105969  0.090414  0  1.066534  0
H  H106  1  0.22657194  0.94478687  0.27904694  1  0.081572  0  0.105996  0.090461  0  1.066638  0
H  H107  1  0.22657343  0.72095340  0.66574244  1  0.028308  0  0.106014  0.090458  0  1.066721  0
H  H108  1  0.72656678  0.66573860  0.72095221  1  0.028343  0  0.106033  0.090511  0  1.066634  0
H  H109  1  0.72655717  0.05520916  0.33425644  1  0.045461  0  0.106001  0.090478  0  1.066656  0
H  H110  1  0.72658125  0.27904780  0.94478833  1  0.081692  0  0.105934  0.090352  0  1.066682  0
H  H111  1  0.72657059  0.33426234  0.27904880  1  0.028393  0  0.106026  0.090491  0  1.066664  0
H  H112  1  0.72656810  0.94478182  0.66573545  1  0.045324  0  0.105971  0.090462  0  1.066725  0
H  H113  1  0.72657731  0.72095137  0.05520711  1  0.081486  0  0.10591  0.090254  0  1.066757  0
H  H114  1  0.77343990  0.33425980  0.05521139  1  0.04549  0  0.105995  0.090471  0  1.066684  0
H  H115  1  0.77342055  0.94478801  0.27904445  1  0.081551  0  0.105974  0.090444  0  1.066659  0
H  H116  1  0.77342628  0.72095121  0.66574254  1  0.028255  0  0.105998  0.09046  0  1.066714  0
H  H117  1  0.77343086  0.66573977  0.94478454  1  0.045298  0  0.10599  0.090441  0  1.066739  0
H  H118  1  0.77342116  0.05520375  0.72095341  1  0.081812  0  0.105911  0.090299  0  1.06678  0
H  H119  1  0.77342331  0.27904881  0.33425807  1  0.028085  0  0.106004  0.090483  0  1.066737  0
H  H120  1  0.24999960  0.45263457  0.45263237  1  0.06622  0  0.112286  0.059146  0  1.049713  0
H  H121  1  0.24999504  0.99999692  0.54736184  1  0.071416  0  0.112287  0.059062  0  1.049724  0
H  H122  1  0.25000426  0.54736272  0.99999818  1  0.07141  0  0.112264  0.05905  0  1.049758  0
H  H123  1  0.24999858  0.54736920  0.54736873  1  0.066616  0  0.112254  0.059106  0  1.049808  0
H  H124  1  0.24999346  0.00000277  0.45263306  1  0.07175  0  0.112316  0.059176  0  1.049809  0
H  H125  1  0.24999937  0.45263741  0.00000435  1  0.071583  0  0.112251  0.059055  0  1.049778  0
H  H126  1  0.74999956  0.54736665  0.54736546  1  0.066089  0  0.112306  0.059166  0  1.049649  0
H  H127  1  0.75000593  0.00000227  0.45263141  1  0.071815  0  0.112324  0.059161  0  1.04979  0
H  H128  1  0.74999429  0.45263600  0.00000434  1  0.071549  0  0.112341  0.059152  0  1.049708  0
H  H129  1  0.74999816  0.45263189  0.45263362  1  0.066618  0  0.112303  0.059195  0  1.049692  0
H  H130  1  0.74999413  0.00000210  0.54736923  1  0.07162  0  0.112316  0.059188  0  1.049775  0
H  H131  1  0.74999798  0.54736560  0.99999314  1  0.071792  0  0.112309  0.059067  0  1.049777  0
H  H132  1  0.41665904  0.35450320  0.26325915  1  0.084409  0  0.106491  0.093183  0  1.034936  0
H  H133  1  0.41666265  0.90875339  0.64549956  1  0.083113  0  0.106507  0.093184  0  1.034951  0
H  H134  1  0.41665866  0.73673821  0.09124147  1  0.081305  0  0.106462  0.09314  0  1.034899  0
H  H135  1  0.41665840  0.64550054  0.73674397  1  0.084559  0  0.106536  0.093292  0  1.034942  0
H  H136  1  0.41665842  0.09124693  0.35450184  1  0.082916  0  0.106513  0.093223  0  1.034971  0
H  H137  1  0.41665818  0.26326227  0.90876050  1  0.08123  0  0.106496  0.093213  0  1.034905  0
H  H138  1  0.08334150  0.64550060  0.90876077  1  0.083073  0  0.106482  0.093223  0  1.034965  0
H  H139  1  0.08333917  0.09124884  0.73674038  1  0.082393  0  0.106463  0.093105  0  1.034875  0
H  H140  1  0.08333957  0.26325449  0.35450206  1  0.084814  0  0.106501  0.093227  0  1.034894  0
H  H141  1  0.08334226  0.35450198  0.09124173  1  0.083106  0  0.106506  0.093241  0  1.034976  0
H  H142  1  0.08333794  0.90875508  0.26325711  1  0.081583  0  0.106492  0.093198  0  1.034909  0
H  H143  1  0.08333754  0.73673942  0.64549811  1  0.084447  0  0.106463  0.093147  0  1.034905  0
H  H144  1  0.58333830  0.64550127  0.73674276  1  0.084395  0  0.106513  0.093237  0  1.034973  0
H  H145  1  0.58333711  0.09124361  0.35449955  1  0.083166  0  0.106527  0.093215  0  1.035008  0
H  H146  1  0.58333747  0.26326356  0.90876240  1  0.081328  0  0.106481  0.093182  0  1.034916  0
H  H147  1  0.58333894  0.35450104  0.26325717  1  0.084406  0  0.106466  0.093167  0  1.034955  0
H  H148  1  0.58334134  0.90875885  0.64550097  1  0.083094  0  0.106517  0.093222  0  1.034943  0
H  H149  1  0.58333735  0.73673542  0.09123718  1  0.081338  0  0.106453  0.093125  0  1.034961  0
H  H150  1  0.91666371  0.35449938  0.09124343  1  0.08319  0  0.10654  0.093253  0  1.034966  0
H  H151  1  0.91665878  0.90875784  0.26326079  1  0.081545  0  0.10649  0.093195  0  1.034932  0
H  H152  1  0.91665898  0.73674024  0.64549858  1  0.084381  0  0.106478  0.093179  0  1.034929  0
H  H153  1  0.91666114  0.64549941  0.90875372  1  0.083129  0  0.106491  0.093198  0  1.034951  0
H  H154  1  0.91665941  0.09124778  0.73673981  1  0.082283  0  0.106464  0.093124  0  1.034777  0
H  H155  1  0.91666041  0.26325436  0.35450201  1  0.084797  0  0.106512  0.093238  0  1.034877  0
H  H156  1  0.49999977  0.51922457  0.37746804  1  0.047187  0  0.123464  0.082077  0  0.995296  0
H  H157  1  0.50000092  0.85824663  0.48077833  1  0.091697  0  0.123472  0.082087  0  0.995398  0
H  H158  1  0.50000132  0.62253113  0.14175696  1  0.099412  0  0.123547  0.082255  0  0.995616  0
H  H159  1  0.49999878  0.48077877  0.62252767  1  0.137707  0  0.123427  0.081981  0  0.995297  0
H  H160  1  0.50000005  0.14174748  0.51922000  1  0.091711  0  0.123449  0.082023  0  0.995392  0
H  H161  1  0.49999784  0.37746761  0.85824262  1  0.099463  0  0.123567  0.082236  0  0.995539  0
H  H162  1  0.00000037  0.48077761  0.85824909  1  0.091675  0  0.123436  0.081991  0  0.995412  0
H  H163  1  0.99999894  0.14175360  0.62252167  1  0.098586  0  0.12354  0.0822  0  0.995357  0
H  H164  1  0.99999894  0.37747594  0.51922023  1  0.13759  0  0.123525  0.082128  0  0.995563  0
H  H165  1  0.99999879  0.51922194  0.14175554  1  0.091672  0  0.123485  0.082111  0  0.995554  0
H  H166  1  0.00000325  0.85824864  0.37747294  1  0.099388  0  0.123468  0.082045  0  0.995353  0
H  H167  1  0.99999794  0.62253179  0.48077631  1  0.047115  0  0.123549  0.082254  0  0.995606  0
C  C168  1  0.26439724  0.37669782  0.21195106  1  0.333529  0  -0.025082  -0.064064  0  4.064771  0
C  C169  1  0.26439802  0.83525071  0.62329900  1  0.400192  0  -0.02496  -0.063982  0  4.064759  0
C  C170  1  0.26440025  0.78804450  0.16474531  1  0.422605  0  -0.025075  -0.064126  0  4.064683  0
C  C171  1  0.26439637  0.62330363  0.78805240  1  0.333739  0  -0.025026  -0.064025  0  4.06468  0
C  C172  1  0.26440284  0.16475008  0.37669999  1  0.400214  0  -0.024994  -0.063983  0  4.064629  0
C  C173  1  0.26440425  0.21195671  0.83525326  1  0.42264  0  -0.025006  -0.064025  0  4.064507  0
C  C174  1  0.23560110  0.62330252  0.83525461  1  0.400307  0  -0.02505  -0.064102  0  4.06466  0
C  C175  1  0.23560994  0.16475281  0.78805036  1  0.337762  0  -0.024935  -0.063957  0  4.064677  0
C  C176  1  0.23560555  0.21195187  0.37669862  1  0.333888  0  -0.025018  -0.064117  0  4.064788  0
C  C177  1  0.23559985  0.37669770  0.16474926  1  0.399995  0  -0.024994  -0.063999  0  4.064736  0
C  C178  1  0.23560250  0.83524766  0.21194739  1  0.337334  0  -0.024983  -0.064037  0  4.064596  0
C  C179  1  0.23560386  0.78804870  0.62330050  1  0.333942  0  -0.025024  -0.06409  0  4.064817  0
C  C180  1  0.73560011  0.62330533  0.78804996  1  0.416998  0  -0.02502  -0.06402  0  4.064612  0
C  C181  1  0.73560416  0.16474693  0.37669947  1  0.317346  0  -0.025067  -0.064137  0  4.064823  0
C  C182  1  0.73559770  0.21195346  0.83525137  1  0.422805  0  -0.025013  -0.064008  0  4.064544  0
C  C183  1  0.73560400  0.37669442  0.21194860  1  0.3338  0  -0.024969  -0.064058  0  4.064469  0
C  C184  1  0.73560479  0.83525491  0.62330287  1  0.318199  0  -0.025062  -0.064195  0  4.064775  0
C  C185  1  0.73560035  0.78804469  0.16475025  1  0.42277  0  -0.02501  -0.064022  0  4.064621  0
C  C186  1  0.76439746  0.37669558  0.16474560  1  0.400193  0  -0.025054  -0.064056  0  4.064737  0
C  C187  1  0.76439829  0.83524680  0.21195347  1  0.337646  0  -0.025085  -0.064203  0  4.064751  0
C  C188  1  0.76440269  0.78805208  0.62330234  1  0.416271  0  -0.02501  -0.063969  0  4.064579  0
C  C189  1  0.76439931  0.62330387  0.83525188  1  0.317008  0  -0.025023  -0.06406  0  4.064611  0
C  C190  1  0.76439303  0.16475152  0.78804881  1  0.337627  0  -0.025  -0.064161  0  4.064817  0
C  C191  1  0.76440195  0.21194904  0.37669934  1  0.416639  0  -0.02494  -0.06389  0  4.064629  0
C  C192  1  0.25000070  0.46352482  0.23176199  1  0.941737  0  0.111716  0.137401  0  4.006198  0
C  C193  1  0.24999769  0.76823589  0.53647368  1  0.975754  0  0.11166  0.137266  0  4.006274  0
C  C194  1  0.24999914  0.76823741  0.23176262  1  0.98489  0  0.111666  0.137375  0  4.006158  0
C  C195  1  0.24999869  0.53647685  0.76823827  1  0.975081  0  0.111652  0.137292  0  4.006195  0
C  C196  1  0.24999807  0.23176694  0.46352689  1  0.975785  0  0.111538  0.137004  0  4.006382  0
C  C197  1  0.24999965  0.23176511  0.76823679  1  0.984784  0  0.111575  0.137142  0  4.006358  0
C  C198  1  0.74999907  0.53647798  0.76823571  1  0.975162  0  0.111601  0.137128  0  4.006331  0
C  C199  1  0.75000207  0.23176242  0.46352632  1  0.941424  0  0.111648  0.137306  0  4.006324  0
C  C200  1  0.74999820  0.23176507  0.76823688  1  0.984819  0  0.111678  0.137395  0  4.006197  0
C  C201  1  0.74999986  0.46352141  0.23176252  1  0.975123  0  0.11172  0.137362  0  4.006172  0
C  C202  1  0.75000109  0.76823921  0.53647628  1  0.94142  0  0.111645  0.137188  0  4.00617  0
C  C203  1  0.75000072  0.76823330  0.23176457  1  0.984751  0  0.111611  0.137298  0  4.006393  0
C  C204  1  0.26865958  0.58299605  0.37183156  1  0.372988  0  -0.022496  -0.063089  0  4.045376  0
C  C205  1  0.26866070  0.78882973  0.41699886  1  0.419368  0  -0.022445  -0.063021  0  4.045201  0
C  C206  1  0.26866264  0.62817100  0.21117296  1  0.413086  0  -0.022464  -0.063073  0  4.04507  0
C  C207  1  0.26866482  0.41700378  0.62816987  1  0.37302  0  -0.022517  -0.063175  0  4.045395  0
C  C208  1  0.26865341  0.21117196  0.58299850  1  0.286931  0  -0.022478  -0.063167  0  4.044969  0
C  C209  1  0.26866115  0.37182760  0.78883190  1  0.413268  0  -0.022451  -0.063056  0  4.04521  0
C  C210  1  0.23134335  0.41699717  0.78882720  1  0.287672  0  -0.02251  -0.063076  0  4.044968  0
C  C211  1  0.23133944  0.21117088  0.62817098  1  0.413721  0  -0.022444  -0.063051  0  4.045121  0
C  C212  1  0.23134396  0.37183260  0.58299801  1  0.344436  0  -0.022435  -0.063072  0  4.045302  0
C  C213  1  0.23134374  0.58300027  0.21117430  1  0.287205  0  -0.022456  -0.063096  0  4.045042  0
C  C214  1  0.23134160  0.78883221  0.37182854  1  0.281389  0  -0.022502  -0.063129  0  4.045212  0
C  C215  1  0.23134193  0.62816789  0.41700484  1  0.343847  0  -0.022461  -0.063083  0  4.045493  0
C  C216  1  0.73134261  0.41700199  0.62816944  1  0.344555  0  -0.022491  -0.063058  0  4.045217  0
C  C217  1  0.73134572  0.21116802  0.58299803  1  0.288936  0  -0.022477  -0.063163  0  4.04513  0
C  C218  1  0.73133591  0.37183350  0.78883112  1  0.413124  0  -0.022539  -0.063248  0  4.045412  0
C  C219  1  0.73134523  0.58299469  0.37183071  1  0.344714  0  -0.022576  -0.063217  0  4.045478  0
C  C220  1  0.73134212  0.78883068  0.41699863  1  0.418529  0  -0.022566  -0.063213  0  4.045285  0
C  C221  1  0.73134467  0.62816896  0.21117058  1  0.28055  0  -0.022542  -0.063249  0  4.045262  0
C  C222  1  0.76866065  0.58299521  0.21116772  1  0.419529  0  -0.022399  -0.062965  0  4.045167  0
C  C223  1  0.76865911  0.78883534  0.37182845  1  0.282088  0  -0.022434  -0.063057  0  4.045512  0
C  C224  1  0.76866186  0.62816859  0.41700572  1  0.372995  0  -0.022465  -0.063039  0  4.045524  0
C  C225  1  0.76865481  0.41700486  0.78883209  1  0.287482  0  -0.022429  -0.062999  0  4.045334  0
C  C226  1  0.76865514  0.21116415  0.62817120  1  0.41183  0  -0.022522  -0.063105  0  4.045542  0
C  C227  1  0.76866207  0.37183025  0.58299752  1  0.373436  0  -0.022439  -0.063074  0  4.045133  0
C  C228  1  0.25000003  0.56203497  0.43795923  1  0.997875  0  0.116374  0.13731  0  4.009943  0
C  C229  1  0.25000451  0.87592081  0.43795974  1  1.006729  0  0.116361  0.137308  0  4.009726  0
C  C230  1  0.25000387  0.56203989  0.12408323  1  1.006359  0  0.116309  0.137416  0  4.009295  0
C  C231  1  0.25000360  0.43796427  0.56204199  1  0.997368  0  0.116334  0.137291  0  4.009785  0
C  C232  1  0.25000032  0.12408012  0.56203979  1  1.006527  0  0.116443  0.137453  0  4.009345  0
C  C233  1  0.24999673  0.43796086  0.87592161  1  1.00632  0  0.116346  0.13717  0  4.009478  0
C  C234  1  0.75000155  0.43795998  0.56203825  1  0.997548  0  0.116389  0.137331  0  4.009687  0
C  C235  1  0.74999404  0.12407582  0.56203900  1  1.006624  0  0.116404  0.137281  0  4.009832  0
C  C236  1  0.74999650  0.43796309  0.87592016  1  1.006632  0  0.116386  0.137393  0  4.009791  0
C  C237  1  0.74999798  0.56203860  0.43796299  1  0.997828  0  0.116411  0.13728  0  4.009941  0
C  C238  1  0.74999884  0.87592162  0.43795898  1  1.006384  0  0.116387  0.137231  0  4.009778  0
C  C239  1  0.75000304  0.56203691  0.12408039  1  1.006906  0  0.116414  0.137483  0  4.009517  0
C  C240  1  0.26181726  0.35142082  0.32362714  1  0.382675  0  -0.025984  -0.058872  0  4.059592  0
C  C241  1  0.26182848  0.97220094  0.64857158  1  0.32911  0  -0.026181  -0.059459  0  4.059991  0
C  C242  1  0.26181353  0.67636727  0.02779771  1  0.387201  0  -0.026099  -0.059154  0  4.05982  0
C  C243  1  0.26181865  0.64857789  0.67637611  1  0.418075  0  -0.026106  -0.059241  0  4.059845  0
C  C244  1  0.26181591  0.02779813  0.35142399  1  0.328666  0  -0.026078  -0.059115  0  4.059861  0
C  C245  1  0.26181331  0.32363451  0.97220395  1  0.387431  0  -0.026084  -0.059097  0  4.059911  0
C  C246  1  0.23817823  0.64857012  0.97220190  1  0.329553  0  -0.026108  -0.05928  0  4.059931  0
C  C247  1  0.23818707  0.02779585  0.67636892  1  0.38749  0  -0.026028  -0.058951  0  4.059564  0
C  C248  1  0.23818086  0.32362566  0.35142780  1  0.452802  0  -0.026192  -0.059468  0  4.060012  0
C  C249  1  0.23817677  0.35142875  0.02779892  1  0.329142  0  -0.026179  -0.059395  0  4.059936  0
C  C250  1  0.23818184  0.97220131  0.32362554  1  0.387587  0  -0.026142  -0.059356  0  4.05986  0
C  C251  1  0.23818382  0.67637545  0.64857738  1  0.416704  0  -0.026111  -0.059209  0  4.059837  0
C  C252  1  0.73817947  0.64857449  0.67637366  1  0.41773  0  -0.026179  -0.059466  0  4.059926  0
C  C253  1  0.73817249  0.02779762  0.35142231  1  0.32885  0  -0.026075  -0.059326  0  4.059859  0
C  C254  1  0.73818805  0.32362831  0.97220209  1  0.387285  0  -0.026027  -0.058969  0  4.059551  0
C  C255  1  0.73817929  0.35142530  0.32362707  1  0.417629  0  -0.026196  -0.059406  0  4.059873  0
C  C256  1  0.73817538  0.97219850  0.64857475  1  0.328866  0  -0.026097  -0.05945  0  4.060058  0
C  C257  1  0.73818464  0.67637140  0.02779432  1  0.387849  0  -0.025987  -0.058812  0  4.059749  0
C  C258  1  0.76182819  0.35142598  0.02779884  1  0.329008  0  -0.026187  -0.059465  0  4.059906  0
C  C259  1  0.76181088  0.97220181  0.32362365  1  0.387287  0  -0.026037  -0.059068  0  4.059651  0
C  C260  1  0.76181225  0.67637352  0.64857646  1  0.417226  0  -0.026026  -0.058984  0  4.059721  0
C  C261  1  0.76182360  0.64857563  0.97219867  1  0.328813  0  -0.026096  -0.059341  0  4.060113  0
C  C262  1  0.76181247  0.02779374  0.67637332  1  0.387447  0  -0.02597  -0.058806  0  4.059877  0
C  C263  1  0.76181231  0.32362633  0.35142354  1  0.417396  0  -0.026068  -0.059114  0  4.059818  0
C  C264  1  0.24999649  0.41283382  0.41283439  1  0.9771  0  0.111106  0.133433  0  4.016744  0
C  C265  1  0.25000001  0.99999543  0.58716115  1  0.959813  0  0.111237  0.133582  0  4.017261  0
C  C266  1  0.24999998  0.58716153  0.99999807  1  0.960137  0  0.111174  0.133463  0  4.017183  0
C  C267  1  0.24999866  0.58716826  0.58716839  1  0.97728  0  0.111094  0.133559  0  4.016633  0
C  C268  1  0.24999696  0.00000169  0.41283413  1  0.959577  0  0.111033  0.133303  0  4.016988  0
C  C269  1  0.25000123  0.41283860  0.00000446  1  0.959918  0  0.111241  0.13359  0  4.017243  0
C  C270  1  0.75000146  0.58716649  0.58716507  1  0.977239  0  0.111167  0.133476  0  4.016769  0
C  C271  1  0.75000097  0.00000139  0.41283227  1  0.959756  0  0.111005  0.133383  0  4.016755  0
C  C272  1  0.74999978  0.41283655  0.00000508  1  0.959851  0  0.111099  0.133475  0  4.016932  0
C  C273  1  0.74999626  0.41283357  0.41283469  1  0.977135  0  0.111076  0.133305  0  4.016909  0
C  C274  1  0.74999433  0.99999873  0.58716670  1  0.959847  0  0.111094  0.133384  0  4.016786  0
C  C275  1  0.75000277  0.58716426  0.99999246  1  0.960143  0  0.111247  0.133776  0  4.016912  0
C  C276  1  0.45846642  0.38901541  0.28715136  1  0.262133  0  -0.025941  -0.056268  0  4.046645  0
C  C277  1  0.45846627  0.89813433  0.61098628  1  0.258432  0  -0.025973  -0.05634  0  4.046617  0
C  C278  1  0.45846486  0.71284536  0.10186170  1  0.440669  0  -0.025973  -0.056353  0  4.046636  0
C  C279  1  0.45846450  0.61098751  0.71284976  1  0.440578  0  -0.02607  -0.056531  0  4.046783  0
C  C280  1  0.45846526  0.10186439  0.38901318  1  0.258746  0  -0.026023  -0.056453  0  4.046835  0
C  C281  1  0.45846425  0.28715404  0.89813928  1  0.440649  0  -0.026009  -0.056468  0  4.046696  0
C  C282  1  0.04153719  0.61098624  0.89813787  1  0.437165  0  -0.026043  -0.056498  0  4.046827  0
C  C283  1  0.04153416  0.10186586  0.71284424  1  0.261015  0  -0.025959  -0.05629  0  4.046724  0
C  C284  1  0.04153231  0.28714936  0.38901383  1  0.261748  0  -0.025998  -0.056462  0  4.046651  0
C  C285  1  0.04153551  0.38901422  0.10186369  1  0.437163  0  -0.026018  -0.056496  0  4.046746  0
C  C286  1  0.04153613  0.89813668  0.28715303  1  0.440348  0  -0.026019  -0.056416  0  4.04672  0
C  C287  1  0.04153313  0.71284780  0.61098442  1  0.262104  0  -0.025971  -0.05635  0  4.046685  0
C  C288  1  0.54153395  0.61098701  0.71284893  1  0.262091  0  -0.026017  -0.056428  0  4.046743  0
C  C289  1  0.54153350  0.10186246  0.38901303  1  0.437333  0  -0.026033  -0.056418  0  4.046781  0
C  C290  1  0.54153249  0.28715500  0.89813992  1  0.261993  0  -0.026003  -0.056374  0  4.046673  0
C  C291  1  0.54153527  0.38901564  0.28715126  1  0.440879  0  -0.026008  -0.056447  0  4.046743  0
C  C292  1  0.54153511  0.89813492  0.61098655  1  0.437161  0  -0.026001  -0.056416  0  4.046627  0
C  C293  1  0.54153309  0.71284433  0.10185992  1  0.262018  0  -0.025905  -0.056262  0  4.046698  0
C  C294  1  0.95846741  0.38901317  0.10186323  1  0.25857  0  -0.026026  -0.056455  0  4.046741  0
C  C295  1  0.95846742  0.89813553  0.28715121  1  0.261749  0  -0.025958  -0.056345  0  4.046602  0
C  C296  1  0.95846503  0.71284821  0.61098543  1  0.440825  0  -0.025978  -0.056425  0  4.046674  0
C  C297  1  0.95846788  0.61098720  0.89813687  1  0.258645  0  -0.026011  -0.056404  0  4.046672  0
C  C298  1  0.95846485  0.10186575  0.71284431  1  0.439842  0  -0.025973  -0.056303  0  4.046555  0
C  C299  1  0.95846421  0.28715015  0.38901521  1  0.440445  0  -0.025997  -0.056399  0  4.046658  0
C  C300  1  0.49999912  0.47432536  0.34629380  1  1.025206  0  0.112123  0.131809  0  4.025124  0
C  C301  1  0.49999863  0.87196591  0.52567284  1  0.952804  0  0.112007  0.131597  0  4.024936  0
C  C302  1  0.50000124  0.65370081  0.12803152  1  0.958475  0  0.111935  0.131396  0  4.025128  0
C  C303  1  0.49999762  0.52567449  0.65370393  1  0.934244  0  0.112212  0.132056  0  4.024745  0
C  C304  1  0.49999811  0.12802909  0.47432680  1  0.95285  0  0.112094  0.131802  0  4.024608  0
C  C305  1  0.49999791  0.34629750  0.87196847  1  0.958525  0  0.111992  0.131553  0  4.025123  0
C  C306  1  0.99999990  0.52567304  0.87196856  1  0.952909  0  0.112177  0.131992  0  4.024874  0
C  C307  1  0.99999784  0.12803441  0.65369896  1  0.959479  0  0.11206  0.131638  0  4.025043  0
C  C308  1  0.00000005  0.34630116  0.47432943  1  0.934257  0  0.112037  0.13169  0  4.024735  0
C  C309  1  0.00000047  0.47432796  0.12803242  1  0.952821  0  0.112013  0.131546  0  4.025056  0
C  C310  1  0.00000132  0.87196898  0.34629596  1  0.958764  0  0.112136  0.13187  0  4.025197  0
C  C311  1  0.99999865  0.65370166  0.52566982  1  1.02501  0  0.111897  0.131286  0  4.02515  0
N  N312  1  0.27295533  0.43211140  0.25497933  1  -1.239352  0  -0.371141  -0.286718  0  3.573884  0
N  N313  1  0.27295346  0.82286580  0.56788583  1  -1.236611  0  -0.371173  -0.286614  0  3.573747  0
N  N314  1  0.27295594  0.74501825  0.17713224  1  -1.261045  0  -0.371182  -0.286713  0  3.57381  0
N  N315  1  0.27295613  0.56789133  0.74502289  1  -1.239284  0  -0.371162  -0.286726  0  3.573936  0
N  N316  1  0.27295800  0.17713740  0.43211517  1  -1.236476  0  -0.371051  -0.286466  0  3.573562  0
N  N317  1  0.27295553  0.25498443  0.82286781  1  -1.261172  0  -0.371129  -0.286624  0  3.573712  0
N  N318  1  0.22704128  0.56788950  0.82286868  1  -1.235917  0  -0.371108  -0.286646  0  3.573684  0
N  N319  1  0.22704451  0.17713510  0.74502059  1  -1.261051  0  -0.371128  -0.286599  0  3.573776  0
N  N320  1  0.22704100  0.25498124  0.43211124  1  -1.239505  0  -0.371116  -0.286533  0  3.573767  0
N  N321  1  0.22704180  0.43211073  0.17713222  1  -1.23586  0  -0.371128  -0.286664  0  3.573773  0
N  N322  1  0.22704342  0.82286705  0.25497839  1  -1.261114  0  -0.371161  -0.286764  0  3.573781  0
N  N323  1  0.22704390  0.74501990  0.56788801  1  -1.239422  0  -0.371145  -0.286624  0  3.573772  0
N  N324  1  0.72704201  0.56789303  0.74502043  1  -1.239256  0  -0.371048  -0.286555  0  3.573775  0
N  N325  1  0.72704449  0.17713241  0.43211280  1  -1.235937  0  -0.371127  -0.286621  0  3.573764  0
N  N326  1  0.72704201  0.25498286  0.82286716  1  -1.261107  0  -0.371173  -0.286728  0  3.573675  0
N  N327  1  0.72704121  0.43210751  0.25497806  1  -1.239085  0  -0.3711  -0.286673  0  3.573738  0
N  N328  1  0.72704600  0.82286979  0.56788989  1  -1.236145  0  -0.371073  -0.286541  0  3.573755  0
N  N329  1  0.72704363  0.74501608  0.17713438  1  -1.261153  0  -0.371175  -0.28678  0  3.573737  0
N  N330  1  0.77296090  0.43210928  0.17713306  1  -1.236049  0  -0.371188  -0.286738  0  3.573882  0
N  N331  1  0.77295647  0.82286320  0.25498235  1  -1.261041  0  -0.371104  -0.286633  0  3.573733  0
N  N332  1  0.77295816  0.74502255  0.56788915  1  -1.239456  0  -0.371115  -0.286573  0  3.573657  0
N  N333  1  0.77295736  0.56789028  0.82286582  1  -1.236017  0  -0.371118  -0.286617  0  3.573778  0
N  N334  1  0.77295393  0.17713539  0.74501895  1  -1.260941  0  -0.371134  -0.286577  0  3.573642  0
N  N335  1  0.77295829  0.25497841  0.43211198  1  -1.239345  0  -0.371164  -0.286715  0  3.573729  0
N  N336  1  0.27996688  0.54084151  0.38526347  1  -1.263894  0  -0.374612  -0.285166  0  3.612666  0
N  N337  1  0.27996919  0.84441719  0.45915246  1  -1.271577  0  -0.374689  -0.285298  0  3.612657  0
N  N338  1  0.27996909  0.61473611  0.15558507  1  -1.264707  0  -0.374706  -0.285427  0  3.612532  0
N  N339  1  0.27996650  0.45915937  0.61473987  1  -1.263391  0  -0.374551  -0.285074  0  3.612511  0
N  N340  1  0.27996419  0.15558382  0.54084635  1  -1.271455  0  -0.374714  -0.28535  0  3.612558  0
N  N341  1  0.27997215  0.38526591  0.84442154  1  -1.264953  0  -0.374703  -0.285285  0  3.612547  0
N  N342  1  0.22003445  0.45915183  0.84441449  1  -1.271644  0  -0.374708  -0.28536  0  3.612366  0
N  N343  1  0.22003467  0.15558376  0.61473736  1  -1.265087  0  -0.374734  -0.285365  0  3.61255  0
N  N344  1  0.22003538  0.38526841  0.54084680  1  -1.263875  0  -0.374735  -0.285292  0  3.612956  0
N  N345  1  0.22003519  0.54084834  0.15558718  1  -1.271693  0  -0.374684  -0.285394  0  3.612467  0
N  N346  1  0.22003255  0.84441995  0.38526444  1  -1.265292  0  -0.374688  -0.285307  0  3.612543  0
N  N347  1  0.22003547  0.61473186  0.45915624  1  -1.2632  0  -0.374738  -0.285302  0  3.613105  0
N  N348  1  0.72003470  0.45915433  0.61473532  1  -1.263958  0  -0.374703  -0.285354  0  3.612658  0
N  N349  1  0.72003118  0.15558008  0.54084564  1  -1.271471  0  -0.374676  -0.285276  0  3.612734  0
N  N350  1  0.72003249  0.38526645  0.84441875  1  -1.265379  0  -0.374717  -0.28529  0  3.612675  0
N  N351  1  0.72003871  0.54084334  0.38526453  1  -1.263672  0  -0.374651  -0.28524  0  3.613055  0
N  N352  1  0.72003497  0.84441703  0.45915110  1  -1.271421  0  -0.374759  -0.285278  0  3.612748  0
N  N353  1  0.72003729  0.61473285  0.15558315  1  -1.265179  0  -0.374811  -0.285532  0  3.612868  0
N  N354  1  0.77997257  0.54084177  0.15557995  1  -1.271659  0  -0.374646  -0.285296  0  3.612449  0
N  N355  1  0.77997175  0.84442308  0.38526438  1  -1.265045  0  -0.374613  -0.285099  0  3.612704  0
N  N356  1  0.77996559  0.61473446  0.45915818  1  -1.263905  0  -0.374664  -0.28518  0  3.612964  0
N  N357  1  0.77996578  0.45915736  0.84441937  1  -1.271437  0  -0.374668  -0.285293  0  3.612617  0
N  N358  1  0.77996722  0.15557589  0.61473436  1  -1.265228  0  -0.374682  -0.28525  0  3.61285  0
N  N359  1  0.77996551  0.38526381  0.54084493  1  -1.263613  0  -0.374729  -0.285335  0  3.61264  0
N  N360  1  0.26933933  0.40833937  0.36256008  1  -1.272848  0  -0.372227  -0.294249  0  3.577474  0
N  N361  1  0.26934488  0.95421527  0.59165310  1  -1.236766  0  -0.372195  -0.29408  0  3.577582  0
N  N362  1  0.26934290  0.63743298  0.04578103  1  -1.248704  0  -0.372213  -0.294113  0  3.577624  0
N  N363  1  0.26934363  0.59165988  0.63744119  1  -1.272738  0  -0.372265  -0.294293  0  3.577321  0
N  N364  1  0.26934049  0.04578322  0.40834233  1  -1.236325  0  -0.372242  -0.294222  0  3.577535  0
N  N365  1  0.26933945  0.36256843  0.95422029  1  -1.248544  0  -0.372278  -0.294205  0  3.577607  0
N  N366  1  0.23066107  0.59165272  0.95421569  1  -1.236961  0  -0.372203  -0.294146  0  3.577596  0
N  N367  1  0.23065887  0.04577827  0.63743322  1  -1.248331  0  -0.372317  -0.294319  0  3.577674  0
N  N368  1  0.23066020  0.36256055  0.40834537  1  -1.27293  0  -0.372197  -0.294158  0  3.577556  0
N  N369  1  0.23065597  0.40834693  0.04578506  1  -1.236676  0  -0.372186  -0.294163  0  3.577553  0
N  N370  1  0.23065514  0.95421931  0.36256080  1  -1.248568  0  -0.372184  -0.294085  0  3.577414  0
N  N371  1  0.23065744  0.63744083  0.59165879  1  -1.272726  0  -0.372207  -0.294226  0  3.577304  0
N  N372  1  0.73065438  0.59165680  0.63743693  1  -1.272699  0  -0.372268  -0.294223  0  3.577628  0
N  N373  1  0.73065367  0.04578286  0.40834121  1  -1.236547  0  -0.372288  -0.294306  0  3.577371  0
N  N374  1  0.73065808  0.36256453  0.95422198  1  -1.248325  0  -0.37224  -0.294278  0  3.577627  0
N  N375  1  0.73065614  0.40834447  0.36256230  1  -1.272774  0  -0.372258  -0.294189  0  3.577531  0
N  N376  1  0.73065443  0.95421572  0.59165703  1  -1.236796  0  -0.372308  -0.294228  0  3.577456  0
N  N377  1  0.73065850  0.63743527  0.04577578  1  -1.248589  0  -0.372392  -0.294514  0  3.577712  0
N  N378  1  0.76934414  0.40834374  0.04578543  1  -1.236735  0  -0.372218  -0.294141  0  3.577494  0
N  N379  1  0.76934331  0.95421982  0.36255893  1  -1.248337  0  -0.372212  -0.294165  0  3.577365  0
N  N380  1  0.76934259  0.63744043  0.59165856  1  -1.272878  0  -0.372319  -0.294326  0  3.577508  0
N  N381  1  0.76934138  0.59165735  0.95421116  1  -1.236877  0  -0.372282  -0.294331  0  3.577562  0
N  N382  1  0.76933736  0.04577967  0.63744072  1  -1.248394  0  -0.372198  -0.294255  0  3.577466  0
N  N383  1  0.76933990  0.36256032  0.40834277  1  -1.272724  0  -0.372187  -0.294168  0  3.577405  0
N  N384  1  0.43228106  0.44322897  0.32475190  1  -1.264454  0  -0.380494  -0.301366  0  3.635675  0
N  N385  1  0.43227888  0.88152042  0.55677151  1  -1.245767  0  -0.38041  -0.30119  0  3.63547  0
N  N386  1  0.43228014  0.67524720  0.11847946  1  -1.254191  0  -0.380376  -0.301156  0  3.635443  0
N  N387  1  0.43227903  0.55677390  0.67524700  1  -1.264001  0  -0.380459  -0.301323  0  3.635587  0
N  N388  1  0.43227758  0.11847408  0.44322622  1  -1.245942  0  -0.380413  -0.301233  0  3.635419  0
N  N389  1  0.43227813  0.32475375  0.88152429  1  -1.253868  0  -0.380396  -0.301152  0  3.635499  0
N  N390  1  0.06772020  0.55677246  0.88152800  1  -1.245771  0  -0.38043  -0.30133  0  3.635691  0
N  N391  1  0.06771762  0.11847843  0.67524250  1  -1.254215  0  -0.38043  -0.301286  0  3.635644  0
N  N392  1  0.06772148  0.32475394  0.44322806  1  -1.26393  0  -0.380411  -0.301179  0  3.635275  0
N  N393  1  0.06772152  0.44322889  0.11847789  1  -1.245755  0  -0.380369  -0.301103  0  3.635363  0
N  N394  1  0.06772047  0.88152433  0.32475464  1  -1.253989  0  -0.380496  -0.301368  0  3.635795  0
N  N395  1  0.06772024  0.67524733  0.55677055  1  -1.264245  0  -0.380359  -0.301068  0  3.635434  0
N  N396  1  0.56771809  0.55677310  0.67524508  1  -1.264191  0  -0.380416  -0.301338  0  3.635731  0
N  N397  1  0.56771967  0.11847305  0.44322745  1  -1.245914  0  -0.380408  -0.30122  0  3.635352  0
N  N398  1  0.56771841  0.32475472  0.88152499  1  -1.254288  0  -0.380401  -0.301245  0  3.635542  0
N  N399  1  0.56771771  0.44323052  0.32475275  1  -1.264443  0  -0.380416  -0.301254  0  3.635752  0
N  N400  1  0.56771977  0.88152471  0.55677257  1  -1.245667  0  -0.380401  -0.301179  0  3.63543  0
N  N401  1  0.56772163  0.67524478  0.11847549  1  -1.253991  0  -0.380401  -0.301171  0  3.635392  0
N  N402  1  0.93228017  0.44322792  0.11847873  1  -1.245924  0  -0.380405  -0.301096  0  3.635518  0
N  N403  1  0.93228336  0.88152726  0.32475598  1  -1.254369  0  -0.380401  -0.301247  0  3.635664  0
N  N404  1  0.93227828  0.67524801  0.55677049  1  -1.264282  0  -0.380376  -0.301033  0  3.635337  0
N  N405  1  0.93228066  0.55677222  0.88152151  1  -1.245991  0  -0.380381  -0.301245  0  3.635494  0
N  N406  1  0.93227929  0.11847758  0.67524176  1  -1.254364  0  -0.380475  -0.301279  0  3.635656  0
N  N407  1  0.93227832  0.32475514  0.44322895  1  -1.26434  0  -0.380444  -0.301259  0  3.63537  0
