# generated using pymatgen
data_Zn4H33C45N3O13
_symmetry_space_group_name_H-M   'P 1'
_cell_length_a   19.21149022
_cell_length_b   19.21148762
_cell_length_c   25.21034993
_cell_angle_alpha   67.59303378
_cell_angle_beta   67.59301951
_cell_angle_gamma   59.98618037
_symmetry_Int_Tables_number   1
_chemical_formula_structural   Zn4H33C45N3O13
_chemical_formula_sum   'Zn16 H132 C180 N12 O52'
_cell_volume   7234.65011736
_cell_formula_units_Z   4
loop_
 _symmetry_equiv_pos_site_id
 _symmetry_equiv_pos_as_xyz
  1  'x, y, z'
loop_
 _atom_site_type_symbol
 _atom_site_label
 _atom_site_symmetry_multiplicity
 _atom_site_fract_x
 _atom_site_fract_y
 _atom_site_fract_z
 _atom_site_occupancy
 _atom_site_pbe_bader_charge
 _atom_site_pbe_bader_spin_density
 _atom_site_pbe_cm5_charge
 _atom_site_pbe_ddec_charge
 _atom_site_pbe_ddec_spin_density
 _atom_site_pbe_ddec_sum_bond_order
 _atom_site_pbe_magmom
Zn  Zn0  1  0.74714775  0.55940974  0.00234209  1  1.316262  0  0.668074  0.964459  0  2.377911  0
Zn  Zn1  1  0.06464235  0.13415372  0.54572851  1  1.309444  0  0.665519  0.950426  0  2.381657  0
Zn  Zn2  1  0.55943497  0.69102694  0.00245337  1  1.31306  0  0.668022  0.96356  0  2.380925  0
Zn  Zn3  1  0.13404355  0.25553812  0.54584367  1  1.309495  0  0.665692  0.951491  0  2.38002  0
Zn  Zn4  1  0.69113223  0.74700912  0.00240274  1  1.316558  0  0.668216  0.964199  0  2.378486  0
Zn  Zn5  1  0.25559495  0.06476366  0.54575034  1  1.309777  0  0.665673  0.951269  0  2.380053  0
Zn  Zn6  1  0.62739833  0.62738472  0.11784314  1  1.320255  0  0.663263  0.954804  0  2.368043  0
Zn  Zn7  1  0.18932407  0.18937198  0.43209257  1  1.312272  0  0.673201  0.962711  0  2.429185  0
Zn  Zn8  1  0.30897548  0.44056422  0.99754581  1  1.313027  0  0.667998  0.963536  0  2.381012  0
Zn  Zn9  1  0.74446437  0.86595446  0.45415822  1  1.30946  0  0.665712  0.951483  0  2.380079  0
Zn  Zn10  1  0.25299102  0.30886763  0.99759650  1  1.316624  0  0.668241  0.96424  0  2.378441  0
Zn  Zn11  1  0.93523956  0.74440699  0.45424738  1  1.30972  0  0.665693  0.951266  0  2.380013  0
Zn  Zn12  1  0.44058999  0.25285422  0.99765822  1  1.316178  0  0.668112  0.964542  0  2.377765  0
Zn  Zn13  1  0.86584408  0.93535876  0.45427265  1  1.309502  0  0.665541  0.950487  0  2.381735  0
Zn  Zn14  1  0.37261786  0.37260235  0.88215714  1  1.320267  0  0.663288  0.954816  0  2.367954  0
Zn  Zn15  1  0.81062961  0.81067313  0.56790821  1  1.312291  0  0.673198  0.962707  0  2.429116  0
H  H16  1  0.83231802  0.30513033  0.09657285  1  0.074761  0  0.108526  0.113126  0  0.986446  0
H  H17  1  0.90254899  0.16813442  0.15912237  1  0.053535  0  0.101648  0.10678  0  1.014947  0
H  H18  1  0.84566639  0.28706974  0.29458634  1  0.078241  0  0.105139  0.114235  0  1.000771  0
H  H19  1  0.76631362  0.42138284  0.23426326  1  0.054682  0  0.10066  0.096032  0  1.038464  0
H  H20  1  0.87989210  0.07017192  0.25128723  1  0.056752  0  0.102539  0.114156  0  0.990344  0
H  H21  1  0.94646114  0.01654470  0.30099172  1  0.099536  0  0.108243  0.131146  0  1.014315  0
H  H22  1  0.98891817  0.04365190  0.22363470  1  0.03775  0  0.09449  0.099631  0  0.985123  0
H  H23  1  0.95096143  0.08427356  0.45425954  1  0.111087  0  0.105642  0.108828  0  1.024316  0
H  H24  1  0.88852797  0.08182460  0.38493964  1  0.104519  0  0.106259  0.121066  0  1.034109  0
H  H25  1  0.03166888  0.20074869  0.23867349  1  0.096574  0  0.110498  0.120846  0  0.984821  0
H  H26  1  0.09341283  0.20414385  0.30825753  1  0.097406  0  0.110752  0.117572  0  0.98987  0
H  H27  1  0.28340164  0.82638116  0.65172554  1  0.061319  0  0.102959  0.102991  0  1.021922  0
H  H28  1  0.27751340  0.69622040  0.71842116  1  0.085196  0  0.097113  0.102399  0  1.061767  0
H  H29  1  0.02273368  0.79030497  0.71397803  1  0.088302  0  0.105267  0.115348  0  1.00712  0
H  H30  1  0.02850397  0.92222602  0.64914338  1  0.088808  0  0.098203  0.099981  0  1.042337  0
H  H31  1  0.27095859  0.59331422  0.72012538  1  0.063093  0  0.11018  0.125225  0  0.998755  0
H  H32  1  0.21047179  0.53613085  0.74973654  1  0.05763  0  0.099783  0.107719  0  1.031142  0
H  H33  1  0.24305546  0.55522883  0.79821697  1  0.100227  0  0.10139  0.121941  0  1.001609  0
H  H34  1  0.98067066  0.52361551  0.88322665  1  0.095851  0  0.10743  0.112349  0  0.989796  0
H  H35  1  0.10527471  0.52845807  0.80652485  1  0.040139  0  0.095784  0.098942  0  1.064384  0
H  H36  1  0.02885249  0.77837884  0.81441867  1  0.060555  0  0.101605  0.10901  0  1.01587  0
H  H37  1  0.90293895  0.77216516  0.89089763  1  0.092678  0  0.105281  0.110068  0  0.996684  0
H  H38  1  0.30515667  0.76557804  0.09647095  1  0.097731  0  0.108789  0.113074  0  0.986663  0
H  H39  1  0.16817560  0.76984603  0.15907166  1  0.07955  0  0.101149  0.106155  0  1.015516  0
H  H40  1  0.28713552  0.57274669  0.29470693  1  0.070316  0  0.105073  0.114056  0  1.001409  0
H  H41  1  0.42142187  0.57815571  0.23434802  1  0.07163  0  0.100694  0.096325  0  1.038494  0
H  H42  1  0.07026255  0.79888886  0.25114267  1  0.060545  0  0.102868  0.114788  0  0.990201  0
H  H43  1  0.01648984  0.73638444  0.30086550  1  0.094228  0  0.108037  0.130993  0  1.014011  0
H  H44  1  0.04393954  0.74385898  0.22354209  1  0.041495  0  0.094324  0.099777  0  0.984859  0
H  H45  1  0.08419866  0.51058420  0.45442773  1  0.113419  0  0.10578  0.109017  0  1.024315  0
H  H46  1  0.08185801  0.64485406  0.38517793  1  0.080372  0  0.105772  0.120666  0  1.033561  0
H  H47  1  0.20033852  0.52929832  0.23879392  1  0.094521  0  0.110173  0.121071  0  0.983976  0
H  H48  1  0.20366831  0.39453863  0.30828692  1  0.101689  0  0.110365  0.116545  0  0.990174  0
H  H49  1  0.82628955  0.23866331  0.65185975  1  0.066719  0  0.102587  0.103089  0  1.021921  0
H  H50  1  0.69612749  0.30795505  0.71856460  1  0.063733  0  0.096569  0.101673  0  1.062305  0
H  H51  1  0.79008598  0.47318687  0.71409311  1  0.063419  0  0.104929  0.115275  0  1.007323  0
H  H52  1  0.92201530  0.40041672  0.64922555  1  0.089698  0  0.097927  0.099637  0  1.04132  0
H  H53  1  0.59323867  0.41575763  0.72021171  1  0.062121  0  0.11014  0.125263  0  0.998327  0
H  H54  1  0.53595921  0.50382439  0.74981439  1  0.042133  0  0.100041  0.107716  0  1.032695  0
H  H55  1  0.55508139  0.40362600  0.79828664  1  0.081613  0  0.101174  0.121403  0  1.002455  0
H  H56  1  0.52344127  0.61267882  0.88334990  1  0.095942  0  0.107603  0.112698  0  0.990167  0
H  H57  1  0.52829846  0.55996413  0.80660997  1  0.081334  0  0.095836  0.098795  0  1.064996  0
H  H58  1  0.77821339  0.37849242  0.81450816  1  0.079396  0  0.101212  0.108356  0  1.015282  0
H  H59  1  0.77199725  0.43420522  0.89095531  1  0.104086  0  0.105266  0.10985  0  0.996055  0
H  H60  1  0.76579452  0.83238184  0.09649270  1  0.103837  0  0.108642  0.113064  0  0.986465  0
H  H61  1  0.77008275  0.90259193  0.15900662  1  0.015126  0  0.101746  0.106788  0  1.015584  0
H  H62  1  0.57276689  0.84554215  0.29464119  1  0.075602  0  0.105362  0.114469  0  1.002134  0
H  H63  1  0.57802761  0.76619280  0.23435247  1  0.061694  0  0.101051  0.096843  0  1.038677  0
H  H64  1  0.79886339  0.87952906  0.25126169  1  0.063893  0  0.102716  0.114397  0  0.990004  0
H  H65  1  0.73626224  0.94612134  0.30095378  1  0.099376  0  0.108147  0.131205  0  1.014044  0
H  H66  1  0.74401649  0.98855380  0.22361224  1  0.045003  0  0.094193  0.099333  0  0.984451  0
H  H67  1  0.51062330  0.95098186  0.45424288  1  0.093844  0  0.105656  0.108747  0  1.023133  0
H  H68  1  0.64482229  0.88824844  0.38500108  1  0.095128  0  0.106165  0.121278  0  1.033984  0
H  H69  1  0.52914021  0.03147221  0.23868955  1  0.098658  0  0.110214  0.120315  0  0.985229  0
H  H70  1  0.39439488  0.09347860  0.30819873  1  0.108077  0  0.110302  0.117336  0  0.99027  0
H  H71  1  0.23878614  0.28329275  0.65175081  1  0.076915  0  0.102874  0.102839  0  1.022537  0
H  H72  1  0.30803787  0.27734156  0.71851903  1  0.071001  0  0.097196  0.10282  0  1.061482  0
H  H73  1  0.47313616  0.02249111  0.71413692  1  0.08189  0  0.105013  0.115189  0  1.00612  0
H  H74  1  0.40026990  0.02829719  0.64930556  1  0.1068  0  0.098229  0.10029  0  1.04226  0
H  H75  1  0.41568259  0.27080493  0.72023389  1  0.038005  0  0.110235  0.125825  0  0.997221  0
H  H76  1  0.50379773  0.21031974  0.74981575  1  0.043297  0  0.100534  0.108809  0  1.030894  0
H  H77  1  0.40363895  0.24292097  0.79830392  1  0.096331  0  0.101166  0.121752  0  1.002927  0
H  H78  1  0.61252511  0.98042453  0.88339493  1  0.087245  0  0.107632  0.113272  0  0.990517  0
H  H79  1  0.55973899  0.10512179  0.80672659  1  0.069034  0  0.096027  0.099593  0  1.062428  0
H  H80  1  0.37835906  0.02879412  0.81452709  1  0.06514  0  0.101313  0.107887  0  1.017228  0
H  H81  1  0.43410056  0.90276662  0.89095789  1  0.073948  0  0.105317  0.10997  0  0.997744  0
H  H82  1  0.23441643  0.69484546  0.90352576  1  0.097919  0  0.108767  0.113052  0  0.986659  0
H  H83  1  0.23015170  0.83182680  0.84092641  1  0.079518  0  0.10118  0.10617  0  1.015551  0
H  H84  1  0.42725455  0.71286490  0.70529384  1  0.070334  0  0.105074  0.114024  0  1.001381  0
H  H85  1  0.42184548  0.57857826  0.76565165  1  0.071629  0  0.100717  0.096345  0  1.038554  0
H  H86  1  0.20111314  0.92973904  0.74885759  1  0.059827  0  0.102831  0.114784  0  0.99032  0
H  H87  1  0.26361908  0.98351120  0.69913526  1  0.09421  0  0.10804  0.130988  0  1.01396  0
H  H88  1  0.25614397  0.95606100  0.77645898  1  0.041425  0  0.09433  0.099803  0  0.984801  0
H  H89  1  0.48941666  0.91580024  0.54557282  1  0.113428  0  0.105787  0.109017  0  1.024318  0
H  H90  1  0.35514833  0.91814124  0.61482130  1  0.08042  0  0.105755  0.120656  0  1.033483  0
H  H91  1  0.47070292  0.79966370  0.76120594  1  0.094528  0  0.110192  0.121078  0  0.984036  0
H  H92  1  0.60546334  0.79633343  0.69171284  1  0.101512  0  0.110353  0.116539  0  0.990188  0
H  H93  1  0.76133490  0.17370905  0.34814273  1  0.066729  0  0.10255  0.10303  0  1.021976  0
H  H94  1  0.69204260  0.30387159  0.28143833  1  0.063573  0  0.096565  0.101682  0  1.062292  0
H  H95  1  0.52681622  0.20991079  0.28590613  1  0.063423  0  0.10491  0.115257  0  1.007352  0
H  H96  1  0.59958654  0.07798206  0.35077266  1  0.089628  0  0.097901  0.099605  0  1.041299  0
H  H97  1  0.58423756  0.40676197  0.27979150  1  0.062258  0  0.110137  0.125421  0  0.998507  0
H  H98  1  0.49617541  0.46404202  0.25018455  1  0.0421  0  0.100053  0.107802  0  1.032995  0
H  H99  1  0.59637463  0.44491564  0.20171684  1  0.081726  0  0.101183  0.121519  0  1.002717  0
H  H100  1  0.38732125  0.47656000  0.11665134  1  0.095935  0  0.107591  0.112708  0  0.990207  0
H  H101  1  0.44003322  0.47170168  0.19339318  1  0.081276  0  0.095844  0.098846  0  1.064935  0
H  H102  1  0.62150569  0.22178802  0.18549117  1  0.079449  0  0.101205  0.10836  0  1.01529  0
H  H103  1  0.56579378  0.22800635  0.10904274  1  0.104021  0  0.105271  0.109882  0  0.996034  0
H  H104  1  0.16762155  0.23420130  0.90350638  1  0.10386  0  0.108617  0.113016  0  0.986471  0
H  H105  1  0.09741222  0.22991524  0.84099201  1  0.014898  0  0.101756  0.1068  0  1.015633  0
H  H106  1  0.15445842  0.42723150  0.70535917  1  0.075676  0  0.105358  0.114474  0  1.002142  0
H  H107  1  0.23380900  0.42197043  0.76564684  1  0.06173  0  0.101063  0.096813  0  1.038682  0
H  H108  1  0.12046895  0.20113654  0.74873855  1  0.063946  0  0.102712  0.114378  0  0.990062  0
H  H109  1  0.05387715  0.26373703  0.69904653  1  0.099359  0  0.108169  0.131249  0  1.014047  0
H  H110  1  0.01144498  0.25598416  0.77638838  1  0.044888  0  0.094223  0.099363  0  0.984494  0
H  H111  1  0.04901290  0.48937856  0.54575937  1  0.093847  0  0.105653  0.10874  0  1.023166  0
H  H112  1  0.11174592  0.35518040  0.61499943  1  0.095178  0  0.106137  0.121166  0  1.03404  0
H  H113  1  0.96852617  0.47086037  0.76131192  1  0.098584  0  0.110201  0.120316  0  0.985291  0
H  H114  1  0.90652023  0.60560638  0.69180243  1  0.108066  0  0.110302  0.117358  0  0.990234  0
H  H115  1  0.71670597  0.76121448  0.34825101  1  0.076867  0  0.102845  0.102805  0  1.022512  0
H  H116  1  0.72265947  0.69196261  0.28148215  1  0.070972  0  0.097175  0.102789  0  1.061557  0
H  H117  1  0.97750791  0.52686473  0.28586309  1  0.081909  0  0.104998  0.115152  0  1.006112  0
H  H118  1  0.97170263  0.59973080  0.35069507  1  0.106795  0  0.098252  0.100303  0  1.042303  0
H  H119  1  0.72919365  0.58431955  0.27976592  1  0.037983  0  0.110213  0.12578  0  0.997276  0
H  H120  1  0.78967906  0.49620611  0.25018230  1  0.043117  0  0.100514  0.108744  0  1.030902  0
H  H121  1  0.75707769  0.59636491  0.20169577  1  0.096441  0  0.101176  0.121762  0  1.002881  0
H  H122  1  0.01957732  0.38747550  0.11660522  1  0.087191  0  0.107628  0.113248  0  0.990514  0
H  H123  1  0.89487895  0.44026150  0.19327264  1  0.069028  0  0.096026  0.099592  0  1.062422  0
H  H124  1  0.97120442  0.62164394  0.18547167  1  0.065109  0  0.101292  0.10784  0  1.017235  0
H  H125  1  0.09723078  0.56590249  0.10904206  1  0.073929  0  0.105307  0.109973  0  0.997759  0
H  H126  1  0.69486643  0.16768338  0.90342607  1  0.074852  0  0.108474  0.113074  0  0.986442  0
H  H127  1  0.83186488  0.09745295  0.84087643  1  0.053455  0  0.101622  0.106804  0  1.014923  0
H  H128  1  0.71292898  0.15433475  0.70541169  1  0.078147  0  0.105165  0.1143  0  1.000755  0
H  H129  1  0.57861368  0.23368948  0.76573526  1  0.054571  0  0.100637  0.096014  0  1.038444  0
H  H130  1  0.92982356  0.12011037  0.74871292  1  0.056692  0  0.102576  0.114212  0  0.990278  0
H  H131  1  0.98345302  0.05354033  0.69900805  1  0.099548  0  0.10824  0.131143  0  1.014324  0
H  H132  1  0.95634430  0.01108368  0.77636461  1  0.037822  0  0.094456  0.099567  0  0.985055  0
H  H133  1  0.91572730  0.04903559  0.54574022  1  0.11167  0  0.105653  0.108808  0  1.024298  0
H  H134  1  0.91817695  0.11147192  0.61505909  1  0.104479  0  0.106287  0.121047  0  1.03411  0
H  H135  1  0.79924851  0.96833407  0.76132612  1  0.09644  0  0.110522  0.120886  0  0.984823  0
H  H136  1  0.79585364  0.90658837  0.69174369  1  0.097391  0  0.110729  0.117562  0  0.989851  0
H  H137  1  0.17361951  0.71660039  0.34827773  1  0.061419  0  0.102969  0.103016  0  1.02186  0
H  H138  1  0.30378227  0.72248477  0.28158184  1  0.085436  0  0.097105  0.102362  0  1.061822  0
H  H139  1  0.20969621  0.97726883  0.28601903  1  0.088472  0  0.105312  0.11543  0  1.007085  0
H  H140  1  0.07777341  0.97150102  0.35085467  1  0.088759  0  0.098198  0.099978  0  1.042272  0
H  H141  1  0.40668555  0.72904137  0.27987476  1  0.063101  0  0.110193  0.125249  0  0.998751  0
H  H142  1  0.46387006  0.78952946  0.25026012  1  0.057736  0  0.099783  0.107729  0  1.03111  0
H  H143  1  0.44476971  0.75694281  0.20178204  1  0.100162  0  0.101354  0.121902  0  1.001595  0
H  H144  1  0.47638236  0.01932975  0.11677265  1  0.095509  0  0.107465  0.112362  0  0.98983  0
H  H145  1  0.47154200  0.89472545  0.19347437  1  0.040067  0  0.095796  0.098934  0  1.064383  0
H  H146  1  0.22162323  0.97114538  0.18557868  1  0.060992  0  0.101562  0.108939  0  1.015943  0
H  H147  1  0.22783498  0.09705794  0.10910087  1  0.092664  0  0.105269  0.11011  0  0.996656  0
C  C148  1  0.75446272  0.45521378  0.12338258  1  1.529857  0  0.218664  0.596907  0  4.187202  0
C  C149  1  0.79609944  0.37288995  0.16063823  1  -0.013941  0  -0.037202  -0.081673  0  4.015925  0
C  C150  1  0.83435231  0.30037145  0.14048437  1  0.045351  0  -0.078904  -0.060399  0  3.987768  0
C  C151  1  0.87434521  0.22357385  0.17551043  1  -0.064311  0  -0.106751  -0.202299  0  3.998526  0
C  C152  1  0.88110306  0.21741908  0.23113246  1  0.430329  0  0.105514  0.192936  0  4.044014  0
C  C153  1  0.84310624  0.29086958  0.25107945  1  -0.07748  0  -0.101678  -0.193607  0  4.000556  0
C  C154  1  0.79965166  0.36602752  0.21716763  1  -0.058893  0  -0.088215  -0.083171  0  4.03858  0
C  C155  1  0.93467456  0.06419117  0.26010628  1  0.255986  0  -0.130135  -0.255521  0  3.928948  0
C  C156  1  0.06087048  0.15137849  0.42607379  1  1.543644  0  0.225039  0.603293  0  4.172679  0
C  C157  1  0.02546565  0.14530277  0.38562024  1  -0.01728  0  -0.024997  -0.061144  0  3.992108  0
C  C158  1  0.96875049  0.10957862  0.40707948  1  -0.011807  0  -0.076506  -0.065521  0  3.957585  0
C  C159  1  0.93436252  0.10734243  0.36843331  1  -0.053484  0  -0.090235  -0.170214  0  3.969635  0
C  C160  1  0.95637118  0.14094933  0.30774564  1  0.298759  0  0.097421  0.176173  0  4.03314  0
C  C161  1  0.01432548  0.17538599  0.28600732  1  -0.048435  0  -0.089793  -0.171577  0  3.998663  0
C  C162  1  0.04854387  0.17745998  0.32459126  1  -0.016359  0  -0.080549  -0.073214  0  3.981935  0
C  C163  1  0.15835170  0.96429204  0.60968252  1  1.513389  0  0.219573  0.60018  0  4.172336  0
C  C164  1  0.15594788  0.88429073  0.64682323  1  -0.030057  0  -0.039503  -0.085991  0  4.025619  0
C  C165  1  0.22630816  0.81839822  0.66539187  1  -0.003049  0  -0.085647  -0.067161  0  3.999054  0
C  C166  1  0.22314665  0.74453481  0.70244515  1  -0.046202  0  -0.106868  -0.196048  0  4.003486  0
C  C167  1  0.14948194  0.73329632  0.72198970  1  0.417593  0  0.104254  0.19423  0  4.023063  0
C  C168  1  0.07946659  0.79859788  0.70144500  1  -0.04558  0  -0.100826  -0.190855  0  4.000279  0
C  C169  1  0.08273159  0.87262802  0.66499464  1  -0.079839  0  -0.086986  -0.070993  0  3.991126  0
C  C170  1  0.22175138  0.58187188  0.75719764  1  0.240735  0  -0.131221  -0.258049  0  3.910253  0
C  C171  1  0.85522987  0.64704327  0.93550919  1  1.532479  0  0.220939  0.601933  0  4.180549  0
C  C172  1  0.93251449  0.64815190  0.89125660  1  -0.040313  0  -0.032975  -0.071059  0  4.012052  0
C  C173  1  0.99126173  0.57960237  0.86758565  1  0.024606  0  -0.080668  -0.065653  0  3.988108  0
C  C174  1  0.06172499  0.58267979  0.82422712  1  -0.019907  0  -0.103934  -0.187885  0  3.981059  0
C  C175  1  0.07552472  0.65518852  0.80290801  1  0.303897  0  0.10157  0.192155  0  4.008855  0
C  C176  1  0.01758074  0.72309282  0.82840449  1  0.004163  0  -0.103141  -0.193619  0  4.017013  0
C  C177  1  0.94740152  0.71960233  0.87138006  1  -0.033293  0  -0.085225  -0.07337  0  4.007123  0
C  C178  1  0.45519875  0.66697710  0.12345354  1  1.527141  0  0.219663  0.597704  0  4.186592  0
C  C179  1  0.37290298  0.67035513  0.16067738  1  -0.050746  0  -0.037025  -0.080262  0  4.015176  0
C  C180  1  0.30039797  0.72453803  0.14045303  1  0.027892  0  -0.079068  -0.060867  0  3.988716  0
C  C181  1  0.22361940  0.72631869  0.17549393  1  -0.053759  0  -0.106469  -0.202035  0  3.999346  0
C  C182  1  0.21747173  0.67029387  0.23122199  1  0.38225  0  0.105691  0.193654  0  4.044426  0
C  C183  1  0.29092189  0.61491790  0.25115348  1  -0.028725  0  -0.101484  -0.193612  0  4.000792  0
C  C184  1  0.36605333  0.61718287  0.21723135  1  -0.07526  0  -0.088421  -0.084286  0  4.037833  0
C  C185  1  0.06428332  0.74124741  0.26004598  1  0.260659  0  -0.130063  -0.256523  0  3.929016  0
C  C186  1  0.15121821  0.36182425  0.42613177  1  1.527187  0  0.226151  0.606568  0  4.171427  0
C  C187  1  0.14505094  0.44382124  0.38573613  1  -0.027388  0  -0.024389  -0.060663  0  3.991179  0
C  C188  1  0.10941905  0.51475695  0.40723161  1  -0.067661  0  -0.076333  -0.065455  0  3.957898  0
C  C189  1  0.10725801  0.59006015  0.36862663  1  0.037685  0  -0.09057  -0.17114  0  3.966567  0
C  C190  1  0.14079298  0.59518182  0.30793094  1  0.341498  0  0.09821  0.178316  0  4.031685  0
C  C191  1  0.17500992  0.52461476  0.28613625  1  -0.103  0  -0.090567  -0.173951  0  3.996361  0
C  C192  1  0.17707497  0.44969937  0.32468655  1  -0.003539  0  -0.07936  -0.071314  0  3.980002  0
C  C193  1  0.96418894  0.26785931  0.60978318  1  1.517895  0  0.218435  0.598368  0  4.172226  0
C  C194  1  0.88413835  0.31318703  0.64687885  1  -0.04659  0  -0.039292  -0.085307  0  4.025016  0
C  C195  1  0.81825885  0.29012612  0.66549216  1  -0.008991  0  -0.085201  -0.067427  0  4.000598  0
C  C196  1  0.74437942  0.33006653  0.70256150  1  -0.001656  0  -0.106829  -0.196696  0  4.003711  0
C  C197  1  0.73312030  0.39542879  0.72211360  1  0.3883  0  0.104111  0.191458  0  4.019904  0
C  C198  1  0.79840611  0.42069212  0.70154481  1  -0.055245  0  -0.100903  -0.192274  0  4.003364  0
C  C199  1  0.87244052  0.37991054  0.66505135  1  -0.037662  0  -0.086137  -0.069632  0  3.989403  0
C  C200  1  0.58173597  0.43933452  0.75728797  1  0.272888  0  -0.131131  -0.261677  0  3.909185  0
C  C201  1  0.64691415  0.56230521  0.93558357  1  1.535433  0  0.220944  0.60286  0  4.181036  0
C  C202  1  0.64796730  0.52820539  0.89134309  1  -0.033185  0  -0.032969  -0.071909  0  4.0129  0
C  C203  1  0.57939216  0.56171916  0.86770141  1  -0.007691  0  -0.080807  -0.066124  0  3.990254  0
C  C204  1  0.58248993  0.53155962  0.82434252  1  -0.072064  0  -0.104269  -0.18774  0  3.985744  0
C  C205  1  0.65500060  0.46653125  0.80304502  1  0.358353  0  0.10158  0.187115  0  4.008841  0
C  C206  1  0.72293154  0.43107199  0.82850683  1  -0.038888  0  -0.102454  -0.192268  0  4.018468  0
C  C207  1  0.71943750  0.46177988  0.87145857  1  -0.033573  0  -0.085468  -0.073319  0  4.007685  0
C  C208  1  0.66695407  0.75429183  0.12348488  1  1.530139  0  0.218936  0.596204  0  4.184842  0
C  C209  1  0.67037910  0.79594432  0.16069820  1  -0.003957  0  -0.037269  -0.08002  0  4.015334  0
C  C210  1  0.72471183  0.83429502  0.14045749  1  -0.038351  0  -0.079144  -0.060764  0  3.987337  0
C  C211  1  0.72651186  0.87431695  0.17544258  1  0.000533  0  -0.106813  -0.20265  0  3.997863  0
C  C212  1  0.67039520  0.88094946  0.23111968  1  0.425264  0  0.106108  0.195675  0  4.045775  0
C  C213  1  0.61497370  0.84298746  0.25111088  1  -0.106784  0  -0.101374  -0.19435  0  4.004512  0
C  C214  1  0.61715580  0.79952263  0.21723204  1  -0.012718  0  -0.089036  -0.085435  0  4.039233  0
C  C215  1  0.74123554  0.93431190  0.26009327  1  0.242203  0  -0.130092  -0.255736  0  3.927815  0
C  C216  1  0.36181726  0.06095858  0.42605463  1  1.558972  0  0.225529  0.605358  0  4.173084  0
C  C217  1  0.44376893  0.02550390  0.38560058  1  -0.051606  0  -0.024123  -0.059882  0  3.991679  0
C  C218  1  0.51472986  0.96873001  0.40706654  1  0.065141  0  -0.076993  -0.065173  0  3.956602  0
C  C219  1  0.59000822  0.93416935  0.36846167  1  -0.045128  0  -0.090368  -0.171346  0  3.968726  0
C  C220  1  0.59511470  0.95614033  0.30777102  1  0.251737  0  0.097748  0.176217  0  4.033756  0
C  C221  1  0.52446795  0.01417456  0.28602869  1  -0.019237  0  -0.090088  -0.170704  0  3.996707  0
C  C222  1  0.44957086  0.04853418  0.32457246  1  -0.037264  0  -0.079756  -0.073761  0  3.981725  0
C  C223  1  0.26789368  0.15833514  0.60972358  1  1.513856  0  0.218275  0.597818  0  4.175551  0
C  C224  1  0.31319319  0.15584013  0.64686691  1  -0.042958  0  -0.039173  -0.084219  0  4.023583  0
C  C225  1  0.29020429  0.22618950  0.66542487  1  0.015846  0  -0.085271  -0.066809  0  4.000943  0
C  C226  1  0.33011257  0.22298361  0.70252472  1  -0.024307  0  -0.107297  -0.197388  0  4.004479  0
C  C227  1  0.39545224  0.14929063  0.72208849  1  0.359619  0  0.103851  0.195057  0  4.021154  0
C  C228  1  0.42069960  0.07928426  0.70154157  1  -0.075361  0  -0.101011  -0.191314  0  3.99845  0
C  C229  1  0.37985878  0.08255701  0.66509079  1  -0.04065  0  -0.086579  -0.071693  0  3.989942  0
C  C230  1  0.43930004  0.22160474  0.75729127  1  0.267411  0  -0.131639  -0.259375  0  3.910111  0
C  C231  1  0.56225013  0.85506895  0.93559797  1  1.526844  0  0.220962  0.602714  0  4.182033  0
C  C232  1  0.52812765  0.93234200  0.89133682  1  -0.020079  0  -0.032741  -0.071154  0  4.012058  0
C  C233  1  0.56158994  0.99108625  0.86772981  1  0.021053  0  -0.081027  -0.067661  0  3.989014  0
C  C234  1  0.53140161  0.06155954  0.82440228  1  -0.03406  0  -0.104524  -0.188425  0  3.981199  0
C  C235  1  0.46641789  0.07537330  0.80307263  1  0.321648  0  0.101268  0.192049  0  4.009972  0
C  C236  1  0.43093585  0.01746513  0.82852584  1  -0.015521  0  -0.102708  -0.192506  0  4.019054  0
C  C237  1  0.46168602  0.94723941  0.87145429  1  -0.026787  0  -0.085005  -0.072511  0  4.007995  0
C  C238  1  0.33302179  0.54480099  0.87654374  1  1.527455  0  0.219525  0.597655  0  4.186651  0
C  C239  1  0.32964223  0.62709831  0.83931990  1  -0.05042  0  -0.036975  -0.080302  0  4.015126  0
C  C240  1  0.27545869  0.69960476  0.85954443  1  0.027308  0  -0.078989  -0.060676  0  3.988419  0
C  C241  1  0.27367962  0.77638368  0.82450496  1  -0.053738  0  -0.106558  -0.202203  0  3.999377  0
C  C242  1  0.32970682  0.78252987  0.76877822  1  0.382272  0  0.105665  0.193643  0  4.044435  0
C  C243  1  0.38508132  0.70907821  0.74884679  1  -0.028722  0  -0.101487  -0.193572  0  4.000753  0
C  C244  1  0.38281782  0.63394737  0.78276671  1  -0.07522  0  -0.088483  -0.084379  0  4.038025  0
C  C245  1  0.25875519  0.93571835  0.73995526  1  0.261367  0  -0.130036  -0.256611  0  3.929066  0
C  C246  1  0.63817840  0.84878103  0.57386734  1  1.526821  0  0.226145  0.606541  0  4.171385  0
C  C247  1  0.55617893  0.85495066  0.61426382  1  -0.027392  0  -0.02438  -0.060615  0  3.991213  0
C  C248  1  0.48524418  0.89058023  0.59276835  1  -0.067676  0  -0.076359  -0.065519  0  3.957993  0
C  C249  1  0.40994194  0.89274218  0.63137239  1  0.037753  0  -0.09054  -0.17107  0  3.966348  0
C  C250  1  0.40482078  0.85920749  0.69206865  1  0.341432  0  0.09827  0.178349  0  4.031633  0
C  C251  1  0.47538719  0.82498997  0.71386448  1  -0.103135  0  -0.090603  -0.174017  0  3.996508  0
C  C252  1  0.55030261  0.82292606  0.67531383  1  -0.003312  0  -0.079345  -0.071289  0  3.980009  0
C  C253  1  0.73214631  0.03580672  0.39021561  1  1.51804  0  0.218322  0.598295  0  4.172271  0
C  C254  1  0.68681565  0.11586000  0.35311963  1  -0.046484  0  -0.039247  -0.085122  0  4.024617  0
C  C255  1  0.70987450  0.18174025  0.33450908  1  -0.009009  0  -0.085183  -0.067314  0  4.000433  0
C  C256  1  0.66993219  0.25561958  0.29744192  1  -0.001485  0  -0.106771  -0.196626  0  4.004441  0
C  C257  1  0.60456861  0.26687923  0.27788888  1  0.388376  0  0.104048  0.188061  0  4.020092  0
C  C258  1  0.57930811  0.20159075  0.29845682  1  -0.055136  0  -0.100859  -0.192214  0  4.004122  0
C  C259  1  0.62009138  0.12755421  0.33494960  1  -0.037964  0  -0.086161  -0.069609  0  3.989081  0
C  C260  1  0.56066309  0.41826292  0.24271465  1  0.272679  0  -0.13114  -0.264977  0  3.908091  0
C  C261  1  0.43769044  0.35309052  0.06441676  1  1.535329  0  0.22097  0.60293  0  4.181207  0
C  C262  1  0.47179430  0.35203430  0.10865735  1  -0.032687  0  -0.03296  -0.07187  0  4.012757  0
C  C263  1  0.43827991  0.42061048  0.13229971  1  -0.007728  0  -0.080829  -0.06605  0  3.990126  0
C  C264  1  0.46843888  0.41751193  0.17565899  1  -0.072013  0  -0.104288  -0.18782  0  3.986616  0
C  C265  1  0.53346691  0.34500020  0.19695608  1  0.357809  0  0.101579  0.183868  0  4.008924  0
C  C266  1  0.56892784  0.27707110  0.17149245  1  -0.038538  0  -0.102428  -0.192211  0  4.019355  0
C  C267  1  0.53822058  0.28056458  0.12854030  1  -0.033972  0  -0.085512  -0.07332  0  4.007686  0
C  C268  1  0.24570873  0.33304511  0.87651683  1  1.530448  0  0.218913  0.596068  0  4.184951  0
C  C269  1  0.20405839  0.32961550  0.83930144  1  -0.003379  0  -0.0374  -0.080301  0  4.015634  0
C  C270  1  0.16571028  0.27528131  0.85954221  1  -0.038275  0  -0.079067  -0.060503  0  3.987477  0
C  C271  1  0.12568741  0.27348404  0.82455659  1  0.000768  0  -0.106691  -0.202614  0  3.998016  0
C  C272  1  0.11905341  0.32960158  0.76888008  1  0.425643  0  0.105956  0.195555  0  4.045691  0
C  C273  1  0.15701524  0.38502302  0.74888855  1  -0.089964  0  -0.1014  -0.194394  0  4.004382  0
C  C274  1  0.20048068  0.38283923  0.78276850  1  -0.030549  0  -0.088979  -0.085274  0  4.039096  0
C  C275  1  0.06568573  0.25876306  0.73990749  1  0.242186  0  -0.130118  -0.255789  0  3.927988  0
C  C276  1  0.93904152  0.63818694  0.57394849  1  1.559998  0  0.225566  0.605465  0  4.173237  0
C  C277  1  0.97449241  0.55623039  0.61440306  1  -0.053055  0  -0.024059  -0.059726  0  3.991556  0
C  C278  1  0.03126643  0.48527136  0.59293383  1  0.065325  0  -0.077034  -0.065326  0  3.956628  0
C  C279  1  0.06582542  0.40999258  0.63153969  1  -0.045363  0  -0.090375  -0.171211  0  3.968769  0
C  C280  1  0.04385535  0.40488509  0.69223076  1  0.25156  0  0.097713  0.176212  0  4.033895  0
C  C281  1  0.98582073  0.47553177  0.71397432  1  -0.019338  0  -0.090015  -0.170649  0  3.996627  0
C  C282  1  0.95146233  0.55042888  0.67543100  1  -0.036873  0  -0.079789  -0.073893  0  3.98169  0
C  C283  1  0.84166275  0.73210584  0.39027878  1  1.513748  0  0.218391  0.597898  0  4.175586  0
C  C284  1  0.84415928  0.68680601  0.35313430  1  -0.042638  0  -0.039216  -0.08434  0  4.023744  0
C  C285  1  0.77381107  0.70979510  0.33457676  1  0.015866  0  -0.085248  -0.066707  0  4.001013  0
C  C286  1  0.77701682  0.66988926  0.29747583  1  -0.02412  0  -0.107272  -0.197401  0  4.004609  0
C  C287  1  0.85070885  0.60454804  0.27791159  1  0.359243  0  0.103828  0.194973  0  4.021166  0
C  C288  1  0.92071620  0.57930180  0.29845828  1  -0.074916  0  -0.10101  -0.191209  0  3.998302  0
C  C289  1  0.91744209  0.62014291  0.33490977  1  -0.04108  0  -0.086602  -0.071722  0  3.990053  0
C  C290  1  0.77839401  0.56070171  0.24270900  1  0.267497  0  -0.131624  -0.259315  0  3.910062  0
C  C291  1  0.14493250  0.43774972  0.06440290  1  1.526812  0  0.220889  0.602615  0  4.182153  0
C  C292  1  0.06765718  0.47187481  0.10866238  1  -0.020069  0  -0.032704  -0.071137  0  4.012121  0
C  C293  1  0.00891314  0.43841255  0.13226893  1  0.021321  0  -0.081053  -0.067642  0  3.989027  0
C  C294  1  0.93843899  0.46860135  0.17559687  1  -0.034189  0  -0.104496  -0.188387  0  3.981267  0
C  C295  1  0.92462676  0.53358289  0.19692632  1  0.321608  0  0.10124  0.191941  0  4.010164  0
C  C296  1  0.98253270  0.56906639  0.17147334  1  -0.015516  0  -0.10266  -0.192362  0  4.019028  0
C  C297  1  0.05276007  0.53831683  0.12854432  1  -0.026792  0  -0.085037  -0.072584  0  4.00801  0
C  C298  1  0.54478485  0.24553628  0.87661493  1  1.529031  0  0.218608  0.596661  0  4.187387  0
C  C299  1  0.62710510  0.20390078  0.83936114  1  -0.01319  0  -0.037136  -0.081577  0  4.016037  0
C  C300  1  0.69962547  0.16564860  0.85951386  1  0.04507  0  -0.078937  -0.060407  0  3.987684  0
C  C301  1  0.77642606  0.12565374  0.82448788  1  -0.063735  0  -0.106702  -0.202414  0  3.998609  0
C  C302  1  0.78257897  0.11889644  0.76886702  1  0.431339  0  0.105555  0.193083  0  4.044022  0
C  C303  1  0.70912784  0.15689249  0.74892006  1  -0.077255  0  -0.101678  -0.193694  0  4.000444  0
C  C304  1  0.63396913  0.20034875  0.78283123  1  -0.059185  0  -0.088195  -0.083157  0  4.038638  0
C  C305  1  0.93580482  0.06532791  0.73989371  1  0.255517  0  -0.130097  -0.255424  0  3.928758  0
C  C306  1  0.84862622  0.93912782  0.57392578  1  1.543258  0  0.225072  0.603361  0  4.172606  0
C  C307  1  0.85469743  0.97453493  0.61438037  1  -0.017347  0  -0.024968  -0.061089  0  3.992048  0
C  C308  1  0.89042069  0.03124933  0.59292150  1  -0.011718  0  -0.076503  -0.065469  0  3.957615  0
C  C309  1  0.89265557  0.06564139  0.63156488  1  -0.053272  0  -0.090343  -0.170298  0  3.969613  0
C  C310  1  0.85904469  0.04363376  0.69225342  1  0.297597  0  0.097409  0.176179  0  4.03295  0
C  C311  1  0.82460775  0.98567950  0.71399311  1  -0.047642  0  -0.089792  -0.171578  0  3.998573  0
C  C312  1  0.82253563  0.95145865  0.67540893  1  -0.01652  0  -0.080511  -0.073204  0  3.981817  0
C  C313  1  0.03570927  0.84164757  0.39031782  1  1.513417  0  0.219607  0.6002  0  4.172264  0
C  C314  1  0.11571069  0.84405365  0.35317880  1  -0.030168  0  -0.039503  -0.085971  0  4.025635  0
C  C315  1  0.18160472  0.77369197  0.33460932  1  -0.003402  0  -0.085704  -0.067276  0  3.999231  0
C  C316  1  0.25546713  0.77685301  0.29755686  1  -0.045607  0  -0.106834  -0.195924  0  4.003642  0
C  C317  1  0.26670551  0.85051831  0.27801098  1  0.416712  0  0.104222  0.194172  0  4.023231  0
C  C318  1  0.20140369  0.92053469  0.29855428  1  -0.045555  0  -0.100826  -0.19087  0  4.000273  0
C  C319  1  0.12737342  0.91726910  0.33500604  1  -0.079764  0  -0.087  -0.071015  0  3.991027  0
C  C320  1  0.41812734  0.77824825  0.24280197  1  0.240653  0  -0.131186  -0.257993  0  3.910208  0
C  C321  1  0.35295474  0.14476917  0.06448891  1  1.532501  0  0.220869  0.601868  0  4.180654  0
C  C322  1  0.35184901  0.06748241  0.10874126  1  -0.040313  0  -0.032935  -0.071063  0  4.012082  0
C  C323  1  0.42039754  0.00873808  0.13241244  1  0.025044  0  -0.080653  -0.065588  0  3.988333  0
C  C324  1  0.41732083  0.93827534  0.17577032  1  -0.01981  0  -0.10398  -0.187911  0  3.981122  0
C  C325  1  0.34481178  0.92447387  0.19708924  1  0.303582  0  0.101552  0.192173  0  4.008763  0
C  C326  1  0.27690778  0.98241680  0.17159259  1  0.003132  0  -0.103109  -0.193549  0  4.017019  0
C  C327  1  0.28039928  0.05259491  0.12861655  1  -0.032951  0  -0.085188  -0.073391  0  4.007119  0
N  N328  1  0.91973022  0.14232237  0.26773860  1  -1.212057  0  -0.2778  -0.088416  0  3.677894  0
N  N329  1  0.14678111  0.65870753  0.75954594  1  -1.203434  0  -0.264976  -0.063407  0  3.645487  0
N  N330  1  0.14233822  0.67039459  0.26791402  1  -1.219713  0  -0.278594  -0.088991  0  3.678901  0
N  N331  1  0.65852618  0.43514568  0.75966745  1  -1.204723  0  -0.264755  -0.049962  0  3.627993  0
N  N332  1  0.67037130  0.91943324  0.26776107  1  -1.200758  0  -0.278551  -0.089981  0  3.68104  0
N  N333  1  0.43508454  0.14662852  0.75967693  1  -1.196266  0  -0.264326  -0.063087  0  3.645633  0
N  N334  1  0.32960724  0.85766349  0.73208583  1  -1.219594  0  -0.278584  -0.088844  0  3.678927  0
N  N335  1  0.56485076  0.34147496  0.24033485  1  -1.2043  0  -0.264745  -0.041034  0  3.618169  0
N  N336  1  0.08056602  0.32962717  0.73223925  1  -1.200399  0  -0.278511  -0.089944  0  3.680987  0
N  N337  1  0.85337043  0.56491743  0.24032280  1  -1.196254  0  -0.264296  -0.062989  0  3.645611  0
N  N338  1  0.85767389  0.08027335  0.73225982  1  -1.21225  0  -0.277851  -0.088557  0  3.678  0
N  N339  1  0.34129258  0.85321850  0.24045304  1  -1.202832  0  -0.264997  -0.063529  0  3.645703  0
O  O340  1  0.70618469  0.51513746  0.14931145  1  -1.187016  0  -0.325228  -0.569002  0  2.33725  0
O  O341  1  0.77011452  0.46053830  0.06833037  1  -1.179  0  -0.317792  -0.547845  0  2.331435  0
O  O342  1  0.11557763  0.18060500  0.40136486  1  -1.175605  0  -0.318151  -0.552171  0  2.362272  0
O  O343  1  0.03385233  0.12811275  0.48179095  1  -1.175458  0  -0.314997  -0.543919  0  2.317371  0
O  O344  1  0.08910929  0.02503679  0.60162537  1  -1.192405  0  -0.321199  -0.56361  0  2.385344  0
O  O345  1  0.22908890  0.96796753  0.58865961  1  -1.180028  0  -0.322532  -0.56049  0  2.354138  0
O  O346  1  0.80226525  0.71534677  0.94994743  1  -1.186399  0  -0.322866  -0.557002  0  2.353487  0
O  O347  1  0.84688552  0.57881356  0.95532257  1  -1.167253  0  -0.321258  -0.554721  0  2.323551  0
O  O348  1  0.51509478  0.62954949  0.14939331  1  -1.181376  0  -0.325403  -0.569335  0  2.337366  0
O  O349  1  0.46054409  0.70092531  0.06838660  1  -1.179611  0  -0.318176  -0.547975  0  2.33235  0
O  O350  1  0.18059749  0.30261058  0.40137859  1  -1.173398  0  -0.319121  -0.553682  0  2.362749  0
O  O351  1  0.12787357  0.35632482  0.48184806  1  -1.167747  0  -0.315414  -0.545897  0  2.31826  0
O  O352  1  0.02492595  0.28437946  0.60177074  1  -1.18254  0  -0.321193  -0.56341  0  2.382898  0
O  O353  1  0.96791041  0.21444223  0.58877350  1  -1.182503  0  -0.321544  -0.559317  0  2.352892  0
O  O354  1  0.71528718  0.53258725  0.94991109  1  -1.177563  0  -0.322734  -0.557486  0  2.352332  0
O  O355  1  0.57868079  0.61900916  0.95545965  1  -1.175362  0  -0.321376  -0.554402  0  2.324345  0
O  O356  1  0.62949606  0.70591829  0.14944753  1  -1.186523  0  -0.324906  -0.568103  0  2.334492  0
O  O357  1  0.70089950  0.77003566  0.06841099  1  -1.180624  0  -0.318242  -0.547942  0  2.331929  0
O  O358  1  0.30257238  0.11563073  0.40134284  1  -1.187667  0  -0.318689  -0.553527  0  2.363205  0
O  O359  1  0.35636601  0.03400928  0.48177331  1  -1.187418  0  -0.315238  -0.545296  0  2.317907  0
O  O360  1  0.28436306  0.08910680  0.60170010  1  -1.178548  0  -0.320602  -0.562933  0  2.384891  0
O  O361  1  0.21452552  0.22908404  0.58867474  1  -1.186127  0  -0.322748  -0.560305  0  2.353162  0
O  O362  1  0.53245431  0.80213118  0.95004509  1  -1.181714  0  -0.322374  -0.556718  0  2.354775  0
O  O363  1  0.61902236  0.84672461  0.95538749  1  -1.168439  0  -0.321938  -0.555357  0  2.324067  0
O  O364  1  0.65618742  0.65609905  0.03154917  1  -1.244578  0  -0.573029  -1.025253  0  2.534948  0
O  O365  1  0.16054550  0.16061611  0.51837928  1  -1.22733  0  -0.574588  -1.019479  0  2.553829  0
O  O366  1  0.37044974  0.48490544  0.85060293  1  -1.181511  0  -0.325333  -0.569356  0  2.337463  0
O  O367  1  0.29907571  0.53945544  0.93161131  1  -1.179743  0  -0.318169  -0.547972  0  2.332367  0
O  O368  1  0.69738863  0.81940487  0.59862139  1  -1.173394  0  -0.319113  -0.553665  0  2.362808  0
O  O369  1  0.64367961  0.87212272  0.51814980  1  -1.167415  0  -0.31541  -0.545887  0  2.318254  0
O  O370  1  0.71562854  0.97506971  0.39822588  1  -1.182472  0  -0.321156  -0.563391  0  2.382785  0
O  O371  1  0.78556256  0.03208661  0.41122593  1  -1.182652  0  -0.321496  -0.559312  0  2.353112  0
O  O372  1  0.46740893  0.28471742  0.05008949  1  -1.177616  0  -0.322705  -0.557483  0  2.352409  0
O  O373  1  0.38098513  0.42132318  0.04454209  1  -1.175446  0  -0.321416  -0.554481  0  2.324538  0
O  O374  1  0.29407694  0.37050920  0.85055435  1  -1.18685  0  -0.324898  -0.568051  0  2.334548  0
O  O375  1  0.22996512  0.29909801  0.93159035  1  -1.180638  0  -0.318216  -0.547855  0  2.33194  0
O  O376  1  0.88437367  0.69742859  0.59866236  1  -1.187758  0  -0.318716  -0.553611  0  2.363245  0
O  O377  1  0.96599006  0.64364007  0.51823026  1  -1.187253  0  -0.315262  -0.545315  0  2.318102  0
O  O378  1  0.91088913  0.71563965  0.39830150  1  -1.178456  0  -0.320624  -0.56292  0  2.385014  0
O  O379  1  0.77091300  0.78547373  0.41132677  1  -1.1862  0  -0.322808  -0.560327  0  2.353188  0
O  O380  1  0.19786963  0.46754558  0.04995675  1  -1.181696  0  -0.322349  -0.556648  0  2.354727  0
O  O381  1  0.15327669  0.38097698  0.04461436  1  -1.168484  0  -0.321866  -0.555284  0  2.324073  0
O  O382  1  0.48485965  0.29380760  0.85068926  1  -1.187064  0  -0.325241  -0.568901  0  2.337332  0
O  O383  1  0.53945954  0.22988636  0.93166762  1  -1.178922  0  -0.317771  -0.547756  0  2.331371  0
O  O384  1  0.81940014  0.88442061  0.59863221  1  -1.175576  0  -0.318155  -0.552191  0  2.362346  0
O  O385  1  0.87189643  0.96614508  0.51820717  1  -1.17515  0  -0.315009  -0.543982  0  2.317249  0
O  O386  1  0.97496301  0.91089039  0.39837521  1  -1.192395  0  -0.321226  -0.563629  0  2.385295  0
O  O387  1  0.03203519  0.77091189  0.41133790  1  -1.180033  0  -0.322502  -0.560451  0  2.354189  0
O  O388  1  0.28465310  0.19773165  0.05004956  1  -1.186467  0  -0.322858  -0.556971  0  2.353555  0
O  O389  1  0.42118325  0.15311481  0.04467945  1  -1.167146  0  -0.321244  -0.554747  0  2.323554  0
O  O390  1  0.34389995  0.34381511  0.96845121  1  -1.244491  0  -0.573022  -1.025279  0  2.534989  0
O  O391  1  0.83938465  0.83945453  0.48162092  1  -1.227315  0  -0.574598  -1.019497  0  2.553769  0
