# generated using pymatgen
data_CoH16C24(NO2)2
_symmetry_space_group_name_H-M   'P 1'
_cell_length_a   12.66635594
_cell_length_b   22.69362219
_cell_length_c   22.69363728
_cell_angle_alpha   89.99980275
_cell_angle_beta   89.99995262
_cell_angle_gamma   89.99999200
_symmetry_Int_Tables_number   1
_chemical_formula_structural   CoH16C24(NO2)2
_chemical_formula_sum   'Co8 H128 C192 N16 O32'
_cell_volume   6523.18382624
_cell_formula_units_Z   8
loop_
 _symmetry_equiv_pos_site_id
 _symmetry_equiv_pos_as_xyz
  1  'x, y, z'
loop_
 _atom_site_type_symbol
 _atom_site_label
 _atom_site_symmetry_multiplicity
 _atom_site_fract_x
 _atom_site_fract_y
 _atom_site_fract_z
 _atom_site_occupancy
 _atom_site_pbe_bader_charge
 _atom_site_pbe_bader_spin_density
 _atom_site_pbe_cm5_charge
 _atom_site_pbe_ddec_charge
 _atom_site_pbe_ddec_spin_density
 _atom_site_pbe_ddec_sum_bond_order
 _atom_site_pbe_magmom
Co  Co0  1  0.74582324  0.25810469  0.74118511  1  1.230652  2.576146  0.679827  0.79367  2.817791  2.552592  2.538
Co  Co1  1  0.74582433  0.74189475  0.25881471  1  1.230687  2.576139  0.679817  0.793652  2.817798  2.552614  2.538
Co  Co2  1  0.74582317  0.75881451  0.75810485  1  1.230673  2.576144  0.679824  0.79368  2.817795  2.552554  2.538
Co  Co3  1  0.74582203  0.24118538  0.24189497  1  1.230661  2.576149  0.679804  0.793652  2.817792  2.552657  2.538
Co  Co4  1  0.25417708  0.24189485  0.24118563  1  1.230662  2.576147  0.679798  0.793613  2.817792  2.55268  2.538
Co  Co5  1  0.25417663  0.75810507  0.75881397  1  1.230758  2.576133  0.679805  0.793626  2.817796  2.552648  2.538
Co  Co6  1  0.25417700  0.74118532  0.25810537  1  1.230649  2.576149  0.679814  0.793652  2.817793  2.552607  2.538
Co  Co7  1  0.25417749  0.25881460  0.74189467  1  1.230683  2.576147  0.679822  0.793652  2.817796  2.552586  2.538
H  H8  1  0.22691314  0.65109981  0.68348997  1  0.1044  0.002169  0.118992  0.089494  0.000655  0.994629  0.001
H  H9  1  0.22691266  0.34890012  0.31651053  1  0.104379  0.002169  0.118988  0.08947  0.000655  0.994655  0.001
H  H10  1  0.22691193  0.81651020  0.15109993  1  0.104378  0.002169  0.118996  0.089471  0.000655  0.994623  0.001
H  H11  1  0.22691386  0.18348929  0.84890013  1  0.104408  0.002169  0.118998  0.089497  0.000655  0.994603  0.001
H  H12  1  0.77308793  0.84889984  0.18348944  1  0.104362  0.002169  0.118991  0.089481  0.000655  0.994628  0.001
H  H13  1  0.77308676  0.15109961  0.81651081  1  0.104349  0.002169  0.118994  0.089491  0.000655  0.99464  0.001
H  H14  1  0.77308761  0.68349000  0.65110009  1  0.104378  0.002168  0.118991  0.089472  0.000654  0.994633  0.001
H  H15  1  0.77308630  0.31651076  0.34889928  1  0.1044  0.002169  0.118985  0.089516  0.000655  0.99461  0.001
H  H16  1  0.32711799  0.55929519  0.66239961  1  0.079163  0.001064  0.109355  0.116074  0.000509  0.997181  0.0
H  H17  1  0.32711588  0.44070561  0.33759952  1  0.079111  0.001064  0.10939  0.116148  0.000509  0.997155  0.0
H  H18  1  0.32711603  0.83759954  0.05929440  1  0.079103  0.001064  0.109387  0.116143  0.000509  0.997155  0.0
H  H19  1  0.32711862  0.16239950  0.94070517  1  0.079153  0.001064  0.109353  0.116084  0.000509  0.997231  0.0
H  H20  1  0.67288311  0.94070585  0.16240057  1  0.079107  0.001064  0.109374  0.116127  0.000509  0.997161  0.0
H  H21  1  0.67288272  0.05929361  0.83759928  1  0.079109  0.001064  0.109363  0.116093  0.000509  0.997183  0.0
H  H22  1  0.67288443  0.66240010  0.55929468  1  0.079107  0.001064  0.109388  0.116143  0.000509  0.997174  0.0
H  H23  1  0.67288219  0.33759935  0.44070517  1  0.079131  0.001064  0.109354  0.116079  0.000509  0.99722  0.0
H  H24  1  0.57204233  0.62498789  0.77849277  1  0.137372  0.000748  0.113411  0.139277  0.0003  1.024173  0.0
H  H25  1  0.57204277  0.37501113  0.22150801  1  0.13743  0.000748  0.113391  0.13919  0.0003  1.024106  0.0
H  H26  1  0.57204280  0.72150865  0.12498873  1  0.137437  0.000748  0.1134  0.139217  0.0003  1.024103  0.0
H  H27  1  0.57204230  0.27849302  0.87501249  1  0.137371  0.000748  0.113407  0.139279  0.0003  1.024175  0.0
H  H28  1  0.42795703  0.87501143  0.27849187  1  0.137424  0.000748  0.113397  0.139225  0.0003  1.024154  0.0
H  H29  1  0.42795600  0.12498848  0.72150853  1  0.137402  0.000748  0.113392  0.139238  0.0003  1.02416  0.0
H  H30  1  0.42795915  0.77849296  0.62498740  1  0.137397  0.000748  0.113407  0.139266  0.0003  1.02415  0.0
H  H31  1  0.42795861  0.22150607  0.37501301  1  0.137373  0.000748  0.113389  0.139246  0.0003  1.024161  0.0
H  H32  1  0.46439651  0.71419135  0.79263846  1  0.157959  0.002131  0.123138  0.10138  0.000753  1.004189  0.002
H  H33  1  0.46439620  0.28580768  0.20736237  1  0.157962  0.002131  0.12314  0.101391  0.000753  1.00417  0.002
H  H34  1  0.46439694  0.70736223  0.21419263  1  0.157952  0.002131  0.123137  0.101376  0.000753  1.004169  0.002
H  H35  1  0.46439577  0.29263944  0.78580908  1  0.157949  0.002131  0.123129  0.101368  0.000753  1.004204  0.002
H  H36  1  0.53560361  0.78580704  0.29263782  1  0.157947  0.002131  0.123124  0.101387  0.000753  1.004177  0.002
H  H37  1  0.53560180  0.21419242  0.70736254  1  0.157973  0.002131  0.123116  0.101365  0.000753  1.0042  0.002
H  H38  1  0.53560409  0.79263819  0.71419209  1  0.157964  0.002131  0.123151  0.101412  0.000753  1.004161  0.002
H  H39  1  0.53560290  0.20736083  0.28580827  1  0.157943  0.002131  0.123125  0.101389  0.000753  1.004172  0.002
H  H40  1  0.37861345  0.47334367  0.69646039  1  0.042788  7.5e-05  0.096426  0.090375  3e-06  1.036631  0.0
H  H41  1  0.37861294  0.52665712  0.30354003  1  0.042773  7.5e-05  0.09643  0.090381  3e-06  1.03667  0.0
H  H42  1  0.37861241  0.80353993  0.97334272  1  0.04277  7.5e-05  0.096459  0.090395  3e-06  1.036625  0.0
H  H43  1  0.37861398  0.19646042  0.02665639  1  0.04279  7.5e-05  0.09643  0.090357  3e-06  1.036646  0.0
H  H44  1  0.62138773  0.02665691  0.19646016  1  0.042761  7.5e-05  0.096475  0.090465  3e-06  1.036596  0.0
H  H45  1  0.62138637  0.97334299  0.80353927  1  0.042788  7.5e-05  0.09643  0.09037  3e-06  1.036679  0.0
H  H46  1  0.62138744  0.69646048  0.47334367  1  0.042779  7.5e-05  0.096422  0.090357  3e-06  1.036634  0.0
H  H47  1  0.62138666  0.30353942  0.52665665  1  0.042784  7.5e-05  0.096449  0.090399  3e-06  1.036654  0.0
H  H48  1  0.47628007  0.37848133  0.69670774  1  0.10791  0.000743  0.10241  0.107715  0.000385  1.036704  0.0
H  H49  1  0.47627954  0.62151858  0.30329220  1  0.107895  0.000743  0.102411  0.10771  0.000385  1.036697  0.0
H  H50  1  0.47627909  0.80329245  0.87848131  1  0.108036  0.000743  0.102435  0.107744  0.000385  1.036668  0.0
H  H51  1  0.47627894  0.19670834  0.12151908  1  0.108099  0.000742  0.102429  0.107734  0.000385  1.036661  0.0
H  H52  1  0.52372032  0.12151880  0.19670723  1  0.107892  0.000743  0.102412  0.107719  0.000384  1.036687  0.0
H  H53  1  0.52371898  0.87848066  0.80329181  1  0.10798  0.000742  0.102404  0.107696  0.000385  1.036706  0.0
H  H54  1  0.52371932  0.69670785  0.37848142  1  0.108114  0.000742  0.102413  0.107695  0.000385  1.036703  0.0
H  H55  1  0.52371919  0.30329205  0.62151850  1  0.108139  0.000742  0.102415  0.107712  0.000385  1.036697  0.0
H  H56  1  0.76684348  0.47132674  0.72700147  1  0.084859  0.000353  0.101378  0.104606  0.000221  1.026948  0.0
H  H57  1  0.76684223  0.52867315  0.27299834  1  0.084872  0.000353  0.101394  0.104646  0.000221  1.026908  0.0
H  H58  1  0.76684168  0.77299830  0.97132626  1  0.084883  0.000353  0.101387  0.104615  0.000221  1.02693  0.0
H  H59  1  0.76684324  0.22700203  0.02867443  1  0.084852  0.000353  0.101385  0.104638  0.000221  1.026936  0.0
H  H60  1  0.23315765  0.02867285  0.22700141  1  0.084884  0.000353  0.101374  0.10462  0.000221  1.026912  0.0
H  H61  1  0.23315713  0.97132619  0.77299776  1  0.084848  0.000353  0.101381  0.104609  0.000221  1.026949  0.0
H  H62  1  0.23315817  0.72700168  0.47132728  1  0.084888  0.000353  0.101385  0.104633  0.000221  1.026907  0.0
H  H63  1  0.23315740  0.27299869  0.52867321  1  0.084858  0.000353  0.101386  0.104627  0.000221  1.026932  0.0
H  H64  1  0.67015109  0.56658742  0.72921208  1  0.078935  0.000117  0.100623  0.103274  -0.0  1.039315  0.0
H  H65  1  0.67014908  0.43341203  0.27078822  1  0.078938  0.000117  0.100618  0.103276  -0.0  1.039308  0.0
H  H66  1  0.67014919  0.77078823  0.06658723  1  0.078944  0.000117  0.100618  0.103253  0.0  1.039329  0.0
H  H67  1  0.67015098  0.22921211  0.93341263  1  0.078941  0.000117  0.100611  0.10325  -0.0  1.039312  0.0
H  H68  1  0.32985070  0.93341162  0.22921190  1  0.078926  0.000117  0.100632  0.103315  -0.0  1.039296  0.0
H  H69  1  0.32984962  0.06658741  0.77078766  1  0.078951  0.000117  0.100614  0.103261  0.0  1.039321  0.0
H  H70  1  0.32985127  0.72921226  0.56658832  1  0.078929  0.000117  0.100631  0.10331  -0.0  1.039282  0.0
H  H71  1  0.32985063  0.27078810  0.43341213  1  0.078931  0.000117  0.100635  0.103313  -0.0  1.039291  0.0
H  H72  1  0.32270438  0.25828822  0.11564732  1  0.096428  0.002286  0.116456  0.081803  0.000881  1.018154  0.001
H  H73  1  0.32270533  0.74171214  0.88435226  1  0.096404  0.002286  0.11647  0.081837  0.000881  1.018098  0.001
H  H74  1  0.32270467  0.38435337  0.75828802  1  0.09642  0.002286  0.116476  0.081827  0.000881  1.018082  0.001
H  H75  1  0.32270503  0.61564699  0.24171155  1  0.096417  0.002286  0.116466  0.081827  0.000881  1.018097  0.001
H  H76  1  0.67729534  0.24171176  0.61564644  1  0.096419  0.002286  0.116463  0.081828  0.000881  1.018109  0.001
H  H77  1  0.67729624  0.75828813  0.38435385  1  0.096442  0.002286  0.116468  0.081835  0.000881  1.018097  0.001
H  H78  1  0.67729483  0.11564656  0.25828790  1  0.096404  0.002286  0.116484  0.081859  0.000881  1.018085  0.001
H  H79  1  0.67729438  0.88435289  0.74171195  1  0.096396  0.002286  0.116502  0.081891  0.000882  1.018076  0.001
H  H80  1  0.23423938  0.26909407  0.01850159  1  0.055132  0.001006  0.105846  0.110152  0.000458  1.015396  0.0
H  H81  1  0.23424019  0.73090674  0.98149803  1  0.055281  0.001006  0.105852  0.110158  0.000458  1.015347  0.0
H  H82  1  0.23423959  0.48149871  0.76909355  1  0.055122  0.001006  0.105847  0.110134  0.000458  1.015362  0.0
H  H83  1  0.23423919  0.51850166  0.23090607  1  0.05513  0.001006  0.105852  0.110137  0.000458  1.015392  0.0
H  H84  1  0.76576127  0.23090624  0.51850115  1  0.055126  0.001006  0.105851  0.110152  0.000458  1.015355  0.0
H  H85  1  0.76576281  0.76909408  0.48149866  1  0.055268  0.001006  0.105854  0.110163  0.000458  1.015351  0.0
H  H86  1  0.76576069  0.01850118  0.26909372  1  0.055116  0.001006  0.105842  0.110135  0.000458  1.015369  0.0
H  H87  1  0.76576023  0.98149870  0.73090653  1  0.055114  0.001006  0.105846  0.110119  0.000458  1.015353  0.0
H  H88  1  0.93592495  0.27356253  0.11210122  1  0.112869  0.000846  0.112277  0.134821  0.000312  1.02356  0.0
H  H89  1  0.93592589  0.72643734  0.88789895  1  0.112877  0.000846  0.112281  0.13483  0.000312  1.023567  0.0
H  H90  1  0.93592523  0.38789969  0.77356264  1  0.112874  0.000846  0.112304  0.134879  0.000312  1.023497  0.0
H  H91  1  0.93592482  0.61210062  0.22643753  1  0.112867  0.000846  0.112276  0.134819  0.000312  1.02356  0.0
H  H92  1  0.06407556  0.22643745  0.61210068  1  0.112851  0.000846  0.112272  0.13481  0.000312  1.023572  0.0
H  H93  1  0.06407645  0.77356293  0.38789901  1  0.112928  0.000846  0.11228  0.134859  0.000312  1.02356  0.0
H  H94  1  0.06407425  0.11210063  0.27356281  1  0.112876  0.000846  0.112291  0.134872  0.000312  1.023508  0.0
H  H95  1  0.06407382  0.88789931  0.72643732  1  0.112924  0.000846  0.11228  0.134826  0.000312  1.023554  0.0
H  H96  1  0.03679493  0.26755984  0.20476750  1  0.15325  0.001839  0.120657  0.098849  0.000446  1.03791  0.002
H  H97  1  0.03679522  0.73244054  0.79523220  1  0.153249  0.001839  0.120652  0.098852  0.000446  1.0379  0.002
H  H98  1  0.03679530  0.29523273  0.76755956  1  0.153265  0.001839  0.120655  0.098868  0.000445  1.0379  0.002
H  H99  1  0.03679564  0.70476721  0.23244058  1  0.153257  0.001839  0.120665  0.098863  0.000445  1.037917  0.002
H  H100  1  0.96320466  0.23244027  0.70476697  1  0.153539  0.001839  0.120662  0.098874  0.000446  1.037889  0.002
H  H101  1  0.96320489  0.76755960  0.29523275  1  0.153516  0.001838  0.120673  0.098881  0.000445  1.037876  0.002
H  H102  1  0.96320419  0.20476761  0.26755988  1  0.153525  0.001838  0.12069  0.098899  0.000446  1.037821  0.002
H  H103  1  0.96320457  0.79523270  0.73244027  1  0.153536  0.001838  0.120651  0.098832  0.000445  1.037895  0.002
H  H104  1  0.12916743  0.22080533  0.95219160  1  0.050095  6.1e-05  0.095961  0.090386  -1e-06  1.032705  0.0
H  H105  1  0.12916725  0.77919417  0.04780851  1  0.050103  6.1e-05  0.095965  0.090423  -1e-06  1.032734  0.0
H  H106  1  0.12916599  0.54780906  0.72080547  1  0.05012  6.1e-05  0.095973  0.090429  -1e-06  1.032707  0.0
H  H107  1  0.12916633  0.45219088  0.27919463  1  0.050119  6.1e-05  0.095973  0.090422  -0.0  1.032706  0.0
H  H108  1  0.87083099  0.27919261  0.45219038  1  0.050151  6.1e-05  0.09596  0.090411  -1e-06  1.03272  0.0
H  H109  1  0.87083324  0.72080595  0.54780894  1  0.050128  6.1e-05  0.095978  0.090437  -1e-06  1.032689  0.0
H  H110  1  0.87083345  0.95219134  0.22080587  1  0.050114  6.1e-05  0.095974  0.09043  -1e-06  1.032704  0.0
H  H111  1  0.87083157  0.04780897  0.77919433  1  0.050084  6.1e-05  0.09597  0.090431  -1e-06  1.032732  0.0
H  H112  1  0.02490389  0.22168680  0.85913999  1  0.119541  0.000557  0.103508  0.108438  0.000266  1.024246  0.0
H  H113  1  0.02490278  0.77831315  0.14085928  1  0.119655  0.000557  0.103529  0.108466  0.000266  1.024198  0.0
H  H114  1  0.02490315  0.64086075  0.72168664  1  0.119535  0.000557  0.103498  0.108443  0.000267  1.024243  0.0
H  H115  1  0.02490431  0.35913919  0.27831307  1  0.119535  0.000557  0.103522  0.108464  0.000267  1.024216  0.0
H  H116  1  0.97509546  0.27831278  0.35913917  1  0.11961  0.000557  0.103524  0.108446  0.000267  1.024221  0.0
H  H117  1  0.97509599  0.72168709  0.64086054  1  0.119544  0.000557  0.103524  0.108451  0.000267  1.024182  0.0
H  H118  1  0.97509628  0.85913964  0.22168731  1  0.119558  0.000557  0.103512  0.108445  0.000266  1.024201  0.0
H  H119  1  0.97509675  0.14085978  0.77831329  1  0.119614  0.000557  0.103523  0.108487  0.000266  1.024275  0.0
H  H120  1  0.78903441  0.32954072  0.94205185  1  0.098802  0.000317  0.108779  0.112583  0.000177  0.990762  0.0
H  H121  1  0.78903423  0.67045917  0.05794751  1  0.098783  0.000317  0.10878  0.11261  0.000177  0.990731  0.0
H  H122  1  0.78903367  0.55794825  0.82954063  1  0.098786  0.000317  0.108782  0.112573  0.000177  0.99077  0.0
H  H123  1  0.78903417  0.44205163  0.17045961  1  0.098796  0.000317  0.108773  0.112571  0.000177  0.990801  0.0
H  H124  1  0.21096641  0.17045946  0.44205132  1  0.098783  0.000317  0.10877  0.112556  0.000177  0.99077  0.0
H  H125  1  0.21096624  0.82954091  0.55794875  1  0.098787  0.000317  0.108761  0.112559  0.000177  0.990765  0.0
H  H126  1  0.21096560  0.94205177  0.32954048  1  0.098797  0.000317  0.108785  0.112581  0.000177  0.990797  0.0
H  H127  1  0.21096467  0.05794772  0.67046003  1  0.098823  0.000317  0.108789  0.112567  0.000177  0.990769  0.0
H  H128  1  0.89447661  0.33109557  0.03472966  1  0.096498  0.000101  0.108704  0.110663  4.5e-05  0.992685  0.0
H  H129  1  0.89447746  0.66890386  0.96526964  1  0.09648  0.000101  0.108695  0.110641  4.5e-05  0.992696  0.0
H  H130  1  0.89447601  0.46527023  0.83109582  1  0.096494  0.000101  0.108727  0.110679  4.5e-05  0.992735  0.0
H  H131  1  0.89447649  0.53472965  0.16890437  1  0.096494  0.000101  0.10869  0.110631  4.5e-05  0.992712  0.0
H  H132  1  0.10552480  0.16890424  0.53472974  1  0.096764  0.000101  0.108688  0.110627  4.5e-05  0.992708  0.0
H  H133  1  0.10552398  0.83109614  0.46527037  1  0.096477  0.000101  0.108685  0.110632  4.5e-05  0.992713  0.0
H  H134  1  0.10552339  0.03472989  0.33109580  1  0.096486  0.000101  0.108703  0.110642  4.5e-05  0.992702  0.0
H  H135  1  0.10552224  0.96527049  0.66890519  1  0.096517  0.000101  0.108709  0.110675  4.5e-05  0.992708  0.0
C  C136  1  0.30335658  0.64291025  0.70403449  1  0.487154  -0.008184  0.041256  0.088769  -0.008602  3.975185  -0.005
C  C137  1  0.30335613  0.35709012  0.29596641  1  0.487171  -0.008182  0.041285  0.088908  -0.008601  3.975168  -0.005
C  C138  1  0.30335540  0.79596567  0.14290954  1  0.487181  -0.008183  0.041287  0.08892  -0.008602  3.975088  -0.005
C  C139  1  0.30335731  0.20403425  0.85709048  1  0.487162  -0.008184  0.0413  0.08886  -0.008602  3.97515  -0.005
C  C140  1  0.69664367  0.85708977  0.20403353  1  0.4872  -0.008183  0.041298  0.0889  -0.008602  3.975156  -0.005
C  C141  1  0.69664253  0.14291012  0.79596631  1  0.487213  -0.008183  0.041298  0.088838  -0.008602  3.975243  -0.005
C  C142  1  0.69664495  0.70403412  0.64290967  1  0.487174  -0.008184  0.041272  0.088862  -0.008602  3.975131  -0.005
C  C143  1  0.69664284  0.29596577  0.35708973  1  0.487134  -0.008184  0.041252  0.088726  -0.008602  3.975208  -0.005
C  C144  1  0.35945086  0.59161788  0.69300680  1  -0.068843  0.006367  -0.087867  -0.18634  0.002912  3.972024  0.005
C  C145  1  0.35944880  0.40838204  0.30699319  1  -0.068841  0.006367  -0.087948  -0.186564  0.002912  3.972079  0.005
C  C146  1  0.35944812  0.80699308  0.09161760  1  -0.068838  0.006367  -0.087921  -0.186516  0.002912  3.972018  0.005
C  C147  1  0.35945154  0.19300639  0.90838240  1  -0.068845  0.006367  -0.087878  -0.186378  0.002912  3.972112  0.005
C  C148  1  0.64055098  0.90838173  0.19300613  1  -0.068874  0.006367  -0.087907  -0.186483  0.002912  3.972014  0.005
C  C149  1  0.64054826  0.09161772  0.80699417  1  -0.068773  0.006367  -0.087897  -0.186385  0.002912  3.97209  0.005
C  C150  1  0.64055072  0.69300644  0.59161823  1  -0.068862  0.006367  -0.087902  -0.186478  0.002912  3.972016  0.005
C  C151  1  0.64055011  0.30699345  0.40838163  1  -0.068799  0.006368  -0.087871  -0.186351  0.002913  3.972071  0.005
C  C152  1  0.45762351  0.58227600  0.72050393  1  0.006145  -0.013211  0.010909  0.109345  -0.013774  3.982957  -0.009
C  C153  1  0.45762228  0.41772347  0.27949646  1  0.006118  -0.013212  0.010947  0.10935  -0.013775  3.982808  -0.009
C  C154  1  0.45762238  0.77949638  0.08227624  1  0.006117  -0.013213  0.010906  0.109285  -0.013776  3.982861  -0.009
C  C155  1  0.45762341  0.22050441  0.91772415  1  0.006131  -0.013211  0.010891  0.109263  -0.013774  3.983031  -0.009
C  C156  1  0.54237829  0.91772352  0.22050371  1  0.006156  -0.013213  0.0109  0.109282  -0.013776  3.982849  -0.009
C  C157  1  0.54237561  0.08227682  0.77949708  1  0.006096  -0.013211  0.010909  0.10925  -0.013774  3.983041  -0.009
C  C158  1  0.54237726  0.72050361  0.58227638  1  0.00615  -0.013213  0.010888  0.109337  -0.013776  3.982864  -0.009
C  C159  1  0.54237586  0.27949629  0.41772353  1  0.006143  -0.013213  0.010924  0.109371  -0.013776  3.982919  -0.009
C  C160  1  0.49556810  0.62791607  0.75669725  1  -0.016651  0.006746  -0.078437  -0.163962  0.003015  3.896464  0.006
C  C161  1  0.49556693  0.37208340  0.24330357  1  -0.01671  0.006745  -0.078473  -0.163809  0.003015  3.896315  0.006
C  C162  1  0.49556618  0.74330375  0.12791684  1  -0.016704  0.006745  -0.07851  -0.163903  0.003015  3.896448  0.006
C  C163  1  0.49556727  0.25669791  0.87208441  1  -0.016696  0.006746  -0.078462  -0.163985  0.003015  3.896541  0.006
C  C164  1  0.50443287  0.87208333  0.25669677  1  -0.016709  0.006745  -0.078426  -0.163834  0.003015  3.896426  0.006
C  C165  1  0.50443102  0.12791658  0.74330404  1  -0.016692  0.006745  -0.078395  -0.163844  0.003015  3.896506  0.006
C  C166  1  0.50443339  0.75669696  0.62791643  1  -0.016693  0.006746  -0.07843  -0.163926  0.003015  3.896489  0.006
C  C167  1  0.50443286  0.24330250  0.37208394  1  -0.016695  0.006746  -0.078439  -0.163967  0.003015  3.896483  0.006
C  C168  1  0.43510713  0.67810813  0.76534453  1  0.40008  -0.007078  0.046593  0.09298  -0.00743  3.932207  -0.004
C  C169  1  0.43510678  0.32189178  0.23465587  1  0.400124  -0.007078  0.046594  0.092881  -0.00743  3.932113  -0.004
C  C170  1  0.43510677  0.73465543  0.17810803  1  0.40041  -0.007077  0.046638  0.092994  -0.007431  3.932154  -0.004
C  C171  1  0.43510714  0.26534581  0.82189237  1  0.40041  -0.007077  0.046614  0.092981  -0.007431  3.932208  -0.004
C  C172  1  0.56489303  0.82189167  0.26534420  1  0.399924  -0.007078  0.046563  0.092844  -0.007431  3.932202  -0.004
C  C173  1  0.56489197  0.17810823  0.73465570  1  0.400065  -0.007078  0.04659  0.092942  -0.00743  3.932178  -0.004
C  C174  1  0.56489352  0.76534468  0.67810757  1  0.400413  -0.007077  0.046532  0.092848  -0.007431  3.932188  -0.004
C  C175  1  0.56489306  0.23465434  0.32189233  1  0.400422  -0.007077  0.04659  0.092934  -0.007431  3.932082  -0.004
C  C176  1  0.51692393  0.52681857  0.71388057  1  -0.086741  0.000242  -0.008732  0.061051  -0.000253  3.99967  0.001
C  C177  1  0.51692346  0.47318089  0.28612112  1  -0.087003  0.000242  -0.008752  0.06108  -0.000252  3.999474  0.001
C  C178  1  0.51692283  0.78612036  0.02681882  1  -0.087004  0.000243  -0.008723  0.061125  -0.000252  3.999549  0.001
C  C179  1  0.51692456  0.21388042  0.97318154  1  -0.086728  0.000242  -0.008815  0.061012  -0.000252  3.999741  0.001
C  C180  1  0.48307710  0.97318097  0.21387975  1  -0.086998  0.000243  -0.00873  0.061158  -0.000252  3.999523  0.001
C  C181  1  0.48307521  0.02681894  0.78612107  1  -0.086978  0.000242  -0.008776  0.061034  -0.000252  3.999567  0.001
C  C182  1  0.48307611  0.71387938  0.52681901  1  -0.087005  0.000243  -0.008732  0.061005  -0.000252  3.99954  0.001
C  C183  1  0.48307620  0.28612097  0.47318093  1  -0.087016  0.000242  -0.008727  0.061063  -0.000252  3.999606  0.001
C  C184  1  0.46392843  0.47335864  0.70297497  1  -0.031908  -0.002398  -0.093559  -0.135027  -0.002533  3.987036  -0.001
C  C185  1  0.46392794  0.52664171  0.29702585  1  -0.031622  -0.002398  -0.093526  -0.135049  -0.002533  3.987074  -0.001
C  C186  1  0.46392819  0.79702576  0.97335858  1  -0.031605  -0.002398  -0.093582  -0.135087  -0.002533  3.987104  -0.001
C  C187  1  0.46392818  0.20297503  0.02664137  1  -0.031916  -0.002398  -0.093522  -0.13493  -0.002533  3.987032  -0.001
C  C188  1  0.53607273  0.02664148  0.20297434  1  -0.031606  -0.002399  -0.093592  -0.135201  -0.002534  3.987063  -0.001
C  C189  1  0.53607139  0.97335799  0.79702601  1  -0.031678  -0.002398  -0.093511  -0.134999  -0.002533  3.987118  -0.001
C  C190  1  0.53607166  0.70297509  0.47335910  1  -0.031606  -0.002398  -0.093515  -0.134959  -0.002533  3.987124  -0.001
C  C191  1  0.53607167  0.29702570  0.52664125  1  -0.03161  -0.002398  -0.093539  -0.13504  -0.002533  3.987151  -0.001
C  C192  1  0.51808135  0.42003705  0.70311915  1  -0.006928  0.001695  -0.086393  -0.095836  0.000816  3.973718  0.001
C  C193  1  0.51808084  0.57996286  0.29688078  1  -0.006899  0.001695  -0.086391  -0.095798  0.000816  3.973714  0.001
C  C194  1  0.51808035  0.79688132  0.92003701  1  -0.006928  0.001695  -0.086429  -0.095874  0.000816  3.973736  0.001
C  C195  1  0.51808105  0.20311947  0.07996291  1  -0.00693  0.001695  -0.086411  -0.09589  0.000816  3.973704  0.001
C  C196  1  0.48191903  0.07996263  0.20311836  1  -0.006922  0.001696  -0.086373  -0.095768  0.000816  3.973694  0.001
C  C197  1  0.48191927  0.92003772  0.79688026  1  -0.006917  0.001695  -0.086416  -0.095816  0.000816  3.973823  0.001
C  C198  1  0.48191958  0.70311883  0.42003756  1  -0.006909  0.001696  -0.086405  -0.095801  0.000816  3.973763  0.001
C  C199  1  0.48191872  0.29688107  0.57996238  1  -0.006927  0.001696  -0.086404  -0.095817  0.000816  3.973802  0.001
C  C200  1  0.62748455  0.41910681  0.71291041  1  -0.007855  -0.000929  -0.015548  -0.021163  -0.001451  3.964867  -0.001
C  C201  1  0.62748406  0.58089309  0.28708902  1  -0.007845  -0.00093  -0.015539  -0.021162  -0.001452  3.964827  -0.001
C  C202  1  0.62748356  0.78708958  0.91910678  1  -0.007847  -0.000929  -0.015564  -0.021163  -0.001452  3.964893  -0.001
C  C203  1  0.62748346  0.21291076  0.08089353  1  -0.007861  -0.000929  -0.015505  -0.021108  -0.001451  3.964888  -0.001
C  C204  1  0.37251660  0.08089283  0.21291011  1  -0.007844  -0.00093  -0.015569  -0.021155  -0.001452  3.964874  -0.001
C  C205  1  0.37251607  0.91910620  0.78708899  1  -0.007831  -0.000929  -0.015525  -0.021171  -0.001451  3.964806  -0.001
C  C206  1  0.37251558  0.71291058  0.41910779  1  -0.00783  -0.00093  -0.015566  -0.021192  -0.001452  3.964821  -0.001
C  C207  1  0.37251551  0.28708978  0.58089264  1  -0.007845  -0.00093  -0.015546  -0.021131  -0.001452  3.964866  -0.001
C  C208  1  0.68166823  0.47242662  0.72051112  1  -0.039501  0.00133  -0.081837  -0.083593  0.000628  3.967584  0.001
C  C209  1  0.68166698  0.52757327  0.27948917  1  -0.038785  0.001329  -0.081847  -0.08361  0.000628  3.96757  0.001
C  C210  1  0.68166643  0.77948955  0.97242658  1  -0.038779  0.001329  -0.081836  -0.083602  0.000628  3.967609  0.001
C  C211  1  0.68166799  0.22051166  0.02757371  1  -0.039319  0.001329  -0.081833  -0.083623  0.000628  3.967557  0.001
C  C212  1  0.31833291  0.02757255  0.22051015  1  -0.039343  0.00133  -0.08181  -0.083581  0.000628  3.967544  0.001
C  C213  1  0.31833158  0.97242693  0.77948899  1  -0.039365  0.001329  -0.081861  -0.0836  0.000628  3.967576  0.001
C  C214  1  0.31833342  0.72051042  0.47242758  1  -0.039374  0.00133  -0.081844  -0.083645  0.000628  3.967682  0.001
C  C215  1  0.31833186  0.27948950  0.52757287  1  -0.03888  0.001329  -0.081865  -0.08365  0.000628  3.967614  0.001
C  C216  1  0.62722715  0.52559266  0.72160914  1  -0.012352  -0.002168  -0.088062  -0.127393  -0.002292  3.960537  -0.001
C  C217  1  0.62722907  0.47440768  0.27839205  1  -0.013101  -0.002168  -0.088102  -0.127475  -0.002293  3.960568  -0.001
C  C218  1  0.62722922  0.77839220  0.02559247  1  -0.013105  -0.002168  -0.088064  -0.12738  -0.002293  3.960486  -0.001
C  C219  1  0.62722779  0.22160902  0.97440784  1  -0.01254  -0.002168  -0.088063  -0.127398  -0.002293  3.960567  -0.001
C  C220  1  0.37277149  0.97440730  0.22160837  1  -0.012542  -0.002169  -0.088113  -0.127521  -0.002293  3.960546  -0.001
C  C221  1  0.37277198  0.02559218  0.77839206  1  -0.012505  -0.002168  -0.088069  -0.127398  -0.002293  3.960616  -0.001
C  C222  1  0.37276972  0.72160887  0.52559313  1  -0.012589  -0.002168  -0.088067  -0.12738  -0.002293  3.960472  -0.001
C  C223  1  0.37277060  0.27839236  0.47440730  1  -0.013023  -0.002168  -0.0881  -0.127452  -0.002293  3.960528  -0.001
C  C224  1  0.68530308  0.36220182  0.71885269  1  1.502882  -0.001762  0.194727  0.548166  -0.002504  4.207024  -0.003
C  C225  1  0.68530258  0.63779807  0.28114671  1  1.502834  -0.001761  0.194797  0.548238  -0.002503  4.206926  -0.003
C  C226  1  0.68530213  0.78114704  0.86220184  1  1.502891  -0.001762  0.194784  0.548264  -0.002504  4.206952  -0.003
C  C227  1  0.68530037  0.21885285  0.13779844  1  1.502938  -0.001762  0.194836  0.548344  -0.002504  4.206821  -0.003
C  C228  1  0.31469886  0.13779780  0.21885178  1  1.502873  -0.001761  0.194833  0.548328  -0.002503  4.206803  -0.003
C  C229  1  0.31469835  0.86220124  0.78114735  1  1.502839  -0.001762  0.194803  0.548286  -0.002504  4.206921  -0.003
C  C230  1  0.31469868  0.71885199  0.36220198  1  1.502888  -0.001761  0.19483  0.548331  -0.002503  4.206812  -0.003
C  C231  1  0.31469853  0.28114749  0.63779804  1  1.502885  -0.001762  0.194777  0.54816  -0.002504  4.206954  -0.003
C  C232  1  0.23708544  0.26244402  0.11270862  1  0.429813  -0.004781  0.040472  0.086604  -0.005206  3.97301  -0.003
C  C233  1  0.23708559  0.73755635  0.88729099  1  0.429796  -0.004784  0.04051  0.086676  -0.005209  3.973153  -0.003
C  C234  1  0.23708494  0.38729207  0.76244427  1  0.429759  -0.004784  0.040476  0.086595  -0.005209  3.972932  -0.003
C  C235  1  0.23708530  0.61270829  0.23755579  1  0.429774  -0.004782  0.040451  0.086535  -0.005208  3.972978  -0.003
C  C236  1  0.76291507  0.23755553  0.61270816  1  0.429778  -0.004784  0.040466  0.086562  -0.00521  3.972979  -0.003
C  C237  1  0.76291597  0.76244480  0.38729165  1  0.429785  -0.004782  0.040458  0.086538  -0.005207  3.972991  -0.003
C  C238  1  0.76291377  0.11270828  0.26244412  1  0.429761  -0.004783  0.04042  0.086514  -0.005209  3.973002  -0.003
C  C239  1  0.76291411  0.88729161  0.73755613  1  0.430183  -0.004784  0.040438  0.086501  -0.005209  3.973011  -0.003
C  C240  1  0.18700319  0.26780112  0.05864281  1  0.00583  0.005716  -0.087001  -0.181764  0.002645  3.966008  0.005
C  C241  1  0.18700406  0.73219925  0.94135639  1  0.005705  0.005719  -0.087057  -0.181852  0.002646  3.966154  0.005
C  C242  1  0.18700344  0.44135748  0.76780119  1  0.005861  0.005719  -0.08699  -0.181724  0.002646  3.965913  0.005
C  C243  1  0.18700303  0.55864245  0.23219888  1  0.005861  0.005718  -0.086951  -0.181646  0.002646  3.965894  0.005
C  C244  1  0.81299740  0.23219905  0.55864234  1  0.005851  0.005719  -0.086951  -0.181663  0.002646  3.96593  0.005
C  C245  1  0.81299821  0.76780127  0.44135789  1  0.005749  0.005718  -0.086986  -0.181728  0.002645  3.965876  0.005
C  C246  1  0.81299605  0.05864242  0.26780121  1  0.005874  0.005719  -0.086957  -0.181677  0.002646  3.965924  0.005
C  C247  1  0.81299560  0.94135747  0.73219946  1  0.005818  0.005719  -0.086973  -0.181647  0.002646  3.965938  0.005
C  C248  1  0.07636522  0.27236277  0.05633292  1  0.027697  -0.009402  0.012292  0.109339  -0.009847  3.987203  -0.006
C  C249  1  0.07636529  0.72763717  0.94366676  1  0.027703  -0.009407  0.012324  0.109401  -0.009853  3.98713  -0.006
C  C250  1  0.07636467  0.44366737  0.77236241  1  0.027693  -0.009406  0.012326  0.109413  -0.009852  3.987144  -0.006
C  C251  1  0.07636506  0.55633301  0.22763772  1  0.027686  -0.009404  0.012284  0.109329  -0.00985  3.987225  -0.006
C  C252  1  0.92363537  0.22763741  0.55633243  1  0.027718  -0.009406  0.012266  0.109286  -0.009852  3.987183  -0.006
C  C253  1  0.92363697  0.77236202  0.44366687  1  0.027666  -0.009403  0.0123  0.109383  -0.009849  3.987222  -0.006
C  C254  1  0.92363482  0.05633294  0.27236282  1  0.027704  -0.009405  0.012292  0.109314  -0.009851  3.987207  -0.006
C  C255  1  0.92363437  0.94366737  0.72763780  1  0.027698  -0.009405  0.012293  0.109343  -0.009851  3.987228  -0.006
C  C256  1  0.02195411  0.27256846  0.11027361  1  -0.009708  0.005504  -0.076449  -0.161677  0.002575  3.893045  0.005
C  C257  1  0.02195426  0.72743192  0.88972610  1  -0.009773  0.005507  -0.076467  -0.161726  0.002576  3.893092  0.005
C  C258  1  0.02195439  0.38972667  0.77256785  1  -0.009708  0.005506  -0.076446  -0.161728  0.002576  3.893027  0.005
C  C259  1  0.02195398  0.61027327  0.22743230  1  -0.00971  0.005506  -0.076442  -0.161681  0.002576  3.893046  0.005
C  C260  1  0.97804720  0.22743197  0.61027397  1  -0.009712  0.005507  -0.076463  -0.161705  0.002576  3.892994  0.005
C  C261  1  0.97804729  0.77256701  0.38972663  1  -0.00979  0.005505  -0.076441  -0.161733  0.002576  3.893035  0.005
C  C262  1  0.97804588  0.11027321  0.27256806  1  -0.009718  0.005507  -0.076459  -0.161724  0.002576  3.893016  0.005
C  C263  1  0.97804545  0.88972710  0.72743254  1  -0.009756  0.005506  -0.076443  -0.161711  0.002576  3.893105  0.005
C  C264  1  0.07774833  0.26751364  0.16258915  1  0.399457  -0.004672  0.051696  0.10806  -0.005146  3.905829  -0.002
C  C265  1  0.07774856  0.73248673  0.83741098  1  0.399505  -0.004676  0.051713  0.108064  -0.00515  3.905875  -0.002
C  C266  1  0.07774788  0.33741154  0.76751321  1  0.399454  -0.004676  0.051662  0.107979  -0.005149  3.90585  -0.002
C  C267  1  0.07774744  0.66258884  0.23248691  1  0.399494  -0.004674  0.05168  0.108032  -0.005148  3.905792  -0.002
C  C268  1  0.92225210  0.23248661  0.66258819  1  0.399484  -0.004676  0.051661  0.108007  -0.005149  3.905866  -0.002
C  C269  1  0.92225386  0.76751370  0.33741110  1  0.399449  -0.004674  0.051633  0.107985  -0.005147  3.905741  -0.002
C  C270  1  0.92225162  0.16258880  0.26751326  1  0.399509  -0.004676  0.051675  0.108028  -0.005149  3.90575  -0.002
C  C271  1  0.92225198  0.83741152  0.73248648  1  0.399464  -0.004676  0.051699  0.108099  -0.005149  3.905786  -0.002
C  C272  1  0.01851516  0.27536283  0.00016785  1  -0.041945  -0.000135  -0.004005  0.0675  -0.000374  3.994838  0.0
C  C273  1  0.01851515  0.72463623  0.99983142  1  -0.042135  -0.000134  -0.003957  0.067618  -0.000373  3.994847  0.0
C  C274  1  0.01851455  0.49983249  0.77536360  1  -0.042135  -0.000134  -0.004074  0.067422  -0.000373  3.99474  0.0
C  C275  1  0.01851417  0.50016789  0.22463655  1  -0.042132  -0.000135  -0.003991  0.067486  -0.000374  3.99485  0.0
C  C276  1  0.98148552  0.22463622  0.50016734  1  -0.04214  -0.000135  -0.00403  0.067477  -0.000373  3.994807  0.0
C  C277  1  0.98148782  0.77536276  0.49983193  1  -0.042103  -0.000135  -0.003992  0.067484  -0.000374  3.994827  0.0
C  C278  1  0.98148571  0.00016782  0.27536374  1  -0.042137  -0.000134  -0.004007  0.067525  -0.000373  3.994743  0.0
C  C279  1  0.98148368  0.99983249  0.72463685  1  -0.041958  -0.000134  -0.003994  0.0675  -0.000373  3.995012  0.0
C  C280  1  0.05541378  0.24552153  0.94985523  1  -0.098778  -0.001556  -0.090592  -0.128408  -0.001669  3.982135  -0.001
C  C281  1  0.05541439  0.75447797  0.05014446  1  -0.09907  -0.001557  -0.090658  -0.128595  -0.001671  3.98225  -0.001
C  C282  1  0.05541311  0.55014535  0.74552210  1  -0.09904  -0.001557  -0.090612  -0.128514  -0.00167  3.982203  -0.001
C  C283  1  0.05541269  0.44985459  0.25447803  1  -0.099037  -0.001556  -0.090603  -0.128447  -0.00167  3.982209  -0.001
C  C284  1  0.94458623  0.25447729  0.44985451  1  -0.099074  -0.001557  -0.090579  -0.128477  -0.00167  3.98225  -0.001
C  C285  1  0.94458846  0.74552169  0.55014521  1  -0.099033  -0.001556  -0.09062  -0.128502  -0.00167  3.982242  -0.001
C  C286  1  0.94458629  0.94985496  0.24552203  1  -0.099047  -0.001557  -0.09063  -0.128539  -0.00167  3.982191  -0.001
C  C287  1  0.94458524  0.05014447  0.75447813  1  -0.098785  -0.001557  -0.090641  -0.128534  -0.00167  3.982307  -0.001
C  C288  1  0.99692455  0.24529377  0.89799775  1  0.021216  0.001151  -0.084641  -0.094896  0.000503  3.979876  0.001
C  C289  1  0.99692271  0.75470522  0.10200063  1  0.021476  0.001152  -0.08466  -0.094904  0.000504  3.980025  0.001
C  C290  1  0.99692383  0.60200218  0.74529398  1  0.021446  0.001152  -0.084656  -0.094908  0.000503  3.979961  0.001
C  C291  1  0.99692422  0.39799813  0.25470616  1  0.021434  0.001152  -0.084691  -0.094986  0.000503  3.979984  0.001
C  C292  1  0.00307554  0.25470568  0.39799790  1  0.021446  0.001151  -0.084659  -0.094887  0.000503  3.979904  0.001
C  C293  1  0.00307691  0.74529338  0.60200138  1  0.021513  0.001152  -0.084686  -0.094899  0.000503  3.979881  0.001
C  C294  1  0.00307636  0.89799858  0.24529408  1  0.021439  0.001152  -0.084655  -0.094901  0.000503  3.979973  0.001
C  C295  1  0.00307608  0.10200269  0.75470608  1  0.021215  0.001152  -0.084629  -0.094901  0.000503  3.980001  0.001
C  C296  1  0.89962269  0.27476152  0.89553227  1  -0.030479  0.000171  -0.01801  -0.030973  -0.000417  3.985078  0.0
C  C297  1  0.89962243  0.72523791  0.10446791  1  -0.030445  0.000169  -0.017989  -0.030897  -0.000419  3.985056  0.0
C  C298  1  0.89962195  0.60446802  0.77476173  1  -0.030454  0.00017  -0.017972  -0.030927  -0.000418  3.985116  0.0
C  C299  1  0.89962238  0.39553185  0.22523846  1  -0.030434  0.00017  -0.018  -0.030908  -0.000418  3.985023  0.0
C  C300  1  0.10037740  0.22523793  0.39553160  1  -0.030444  0.00017  -0.017979  -0.030917  -0.000418  3.985084  0.0
C  C301  1  0.10037876  0.77476113  0.60446763  1  -0.030463  0.00017  -0.018002  -0.031  -0.000418  3.984999  0.0
C  C302  1  0.10037741  0.89553219  0.27476135  1  -0.030452  0.00017  -0.017966  -0.030871  -0.000418  3.985071  0.0
C  C303  1  0.10037639  0.10446819  0.72523832  1  -0.030516  0.00017  -0.018004  -0.030959  -0.000418  3.985183  0.0
C  C304  1  0.86403546  0.30617379  0.94487249  1  -0.054704  0.00093  -0.079697  -0.085903  0.00038  3.980992  0.001
C  C305  1  0.86403449  0.69382565  0.05512683  1  -0.054803  0.000931  -0.079709  -0.085975  0.000381  3.980844  0.001
C  C306  1  0.86403474  0.55512768  0.80617371  1  -0.054475  0.00093  -0.079741  -0.085942  0.00038  3.981053  0.001
C  C307  1  0.86403521  0.44487264  0.19382605  1  -0.054707  0.00093  -0.079672  -0.085881  0.00038  3.980979  0.001
C  C308  1  0.13596535  0.19382593  0.44487235  1  -0.054472  0.00093  -0.07973  -0.08593  0.00038  3.981005  0.001
C  C309  1  0.13596519  0.80617356  0.55512731  1  -0.054473  0.00093  -0.079683  -0.085879  0.00038  3.980939  0.001
C  C310  1  0.13596457  0.94487243  0.30617403  1  -0.054703  0.00093  -0.07974  -0.08597  0.00038  3.981033  0.001
C  C311  1  0.13596439  0.05512795  0.69382739  1  -0.054689  0.00093  -0.079748  -0.085895  0.00038  3.981014  0.001
C  C312  1  0.92279107  0.30659100  0.99652263  1  -0.066018  -0.001192  -0.082953  -0.125003  -0.00132  3.973108  -0.001
C  C313  1  0.92279255  0.69340843  0.00347710  1  -0.065723  -0.001193  -0.082956  -0.124989  -0.001321  3.973084  -0.001
C  C314  1  0.92279040  0.50347748  0.80659153  1  -0.066068  -0.001193  -0.082914  -0.124916  -0.001321  3.973026  -0.001
C  C315  1  0.92279085  0.49652239  0.19340865  1  -0.06584  -0.001192  -0.082947  -0.124957  -0.00132  3.973179  -0.001
C  C316  1  0.07720966  0.19340855  0.49652252  1  -0.06634  -0.001193  -0.082876  -0.124862  -0.001321  3.972998  -0.001
C  C317  1  0.07721037  0.80659139  0.50347716  1  -0.066087  -0.001193  -0.08291  -0.124909  -0.00132  3.97306  -0.001
C  C318  1  0.07720891  0.99652263  0.30659169  1  -0.065843  -0.001193  -0.082911  -0.124909  -0.001321  3.973042  -0.001
C  C319  1  0.07720796  0.00347731  0.69340931  1  -0.066008  -0.001193  -0.082935  -0.124996  -0.001321  3.973183  -0.001
C  C320  1  0.83198607  0.27149682  0.84203316  1  1.530084  -0.001796  0.194108  0.537749  -0.002591  4.22999  -0.003
C  C321  1  0.83198494  0.72850350  0.15796662  1  1.530086  -0.001796  0.194087  0.537703  -0.002592  4.2301  -0.003
C  C322  1  0.83198607  0.65796720  0.77149642  1  1.530083  -0.001796  0.194096  0.537722  -0.002592  4.230013  -0.003
C  C323  1  0.83198572  0.34203268  0.22850336  1  1.530098  -0.001796  0.194051  0.537644  -0.002592  4.229939  -0.003
C  C324  1  0.16801331  0.22850369  0.34203288  1  1.530072  -0.001797  0.194094  0.53769  -0.002592  4.23003  -0.003
C  C325  1  0.16801301  0.77149624  0.65796676  1  1.530071  -0.001797  0.194087  0.537669  -0.002592  4.230058  -0.003
C  C326  1  0.16801487  0.84203302  0.27149708  1  1.530093  -0.001796  0.194097  0.537703  -0.002592  4.230065  -0.003
C  C327  1  0.16801382  0.15796691  0.72850345  1  1.530083  -0.001796  0.194096  0.537717  -0.002592  4.229974  -0.003
N  N328  1  0.33915295  0.68556269  0.74034679  1  -1.250857  0.067829  -0.343235  -0.262255  0.036393  3.656815  0.052
N  N329  1  0.33915177  0.31443722  0.25965410  1  -1.250839  0.06783  -0.343206  -0.262212  0.036393  3.656749  0.052
N  N330  1  0.33915098  0.75965319  0.18556252  1  -1.250834  0.06783  -0.343229  -0.262278  0.036394  3.65673  0.052
N  N331  1  0.33915295  0.24034717  0.81443792  1  -1.250816  0.067829  -0.343237  -0.262258  0.036392  3.65686  0.052
N  N332  1  0.66084883  0.81443676  0.24034643  1  -1.250636  0.067828  -0.34322  -0.262227  0.036393  3.656757  0.052
N  N333  1  0.66084694  0.18556270  0.75965387  1  -1.250828  0.067829  -0.343247  -0.262249  0.036393  3.656818  0.052
N  N334  1  0.66084851  0.74034689  0.68556254  1  -1.250835  0.067831  -0.343224  -0.262231  0.036394  3.656768  0.052
N  N335  1  0.66084805  0.25965344  0.31443732  1  -1.250855  0.06783  -0.343224  -0.262218  0.036393  3.656749  0.052
N  N336  1  0.18379620  0.26166750  0.16420765  1  -1.197732  0.06982  -0.340761  -0.254479  0.037412  3.641497  0.053
N  N337  1  0.18379643  0.73833243  0.83579199  1  -1.197776  0.069828  -0.340787  -0.254535  0.037414  3.641559  0.053
N  N338  1  0.18379653  0.33579303  0.76166750  1  -1.197712  0.069828  -0.34077  -0.254474  0.037413  3.64148  0.053
N  N339  1  0.18379609  0.66420734  0.23833258  1  -1.197733  0.069823  -0.340774  -0.254484  0.037413  3.641547  0.053
N  N340  1  0.81620424  0.23833231  0.66420716  1  -1.197742  0.069824  -0.340765  -0.254497  0.037414  3.641575  0.053
N  N341  1  0.81620521  0.76166757  0.33579306  1  -1.197711  0.069822  -0.340752  -0.254461  0.037413  3.641516  0.053
N  N342  1  0.81620376  0.16420733  0.26166759  1  -1.197754  0.069824  -0.340777  -0.254509  0.037413  3.641551  0.053
N  N343  1  0.81620253  0.83579299  0.73833264  1  -1.198107  0.069829  -0.34078  -0.254514  0.037414  3.64146  0.053
O  O344  1  0.62977961  0.31406231  0.72007692  1  -1.142988  0.10129  -0.323979  -0.544026  0.052418  2.289504  0.081
O  O345  1  0.62977910  0.68593803  0.27992295  1  -1.143028  0.101302  -0.324012  -0.544075  0.052418  2.289507  0.081
O  O346  1  0.62977791  0.77992343  0.81406237  1  -1.14297  0.10129  -0.323976  -0.544068  0.052418  2.28953  0.081
O  O347  1  0.62977607  0.22007691  0.18593794  1  -1.143145  0.101288  -0.324019  -0.544136  0.052417  2.289584  0.081
O  O348  1  0.37022232  0.18593731  0.22007670  1  -1.143014  0.101285  -0.323986  -0.544081  0.052416  2.289568  0.081
O  O349  1  0.37022340  0.81406216  0.77992285  1  -1.143153  0.101299  -0.323987  -0.544081  0.052416  2.289588  0.081
O  O350  1  0.37022297  0.72007709  0.31406292  1  -1.143101  0.101285  -0.323993  -0.54408  0.052415  2.289559  0.081
O  O351  1  0.37022275  0.27992327  0.68593751  1  -1.143103  0.101288  -0.323979  -0.544029  0.052417  2.289565  0.081
O  O352  1  0.78424313  0.36043303  0.72490723  1  -1.143181  0.054499  -0.310004  -0.536134  0.027481  2.14731  0.047
O  O353  1  0.78424185  0.63956774  0.27509213  1  -1.143143  0.054497  -0.310034  -0.536149  0.02748  2.147312  0.047
O  O354  1  0.78424140  0.77509291  0.86043217  1  -1.143199  0.054497  -0.310049  -0.536196  0.02748  2.147323  0.047
O  O355  1  0.78424200  0.22490697  0.13956807  1  -1.14317  0.054501  -0.31007  -0.536232  0.027483  2.147227  0.047
O  O356  1  0.21575721  0.13956745  0.22490636  1  -1.143129  0.054499  -0.310071  -0.536246  0.027481  2.147235  0.047
O  O357  1  0.21575751  0.86043159  0.77509370  1  -1.143145  0.054501  -0.310053  -0.536189  0.027482  2.147275  0.047
O  O358  1  0.21575783  0.72490613  0.36043277  1  -1.143138  0.054499  -0.310086  -0.536265  0.027481  2.147263  0.047
O  O359  1  0.21575689  0.27509336  0.63956773  1  -1.143143  0.054501  -0.310046  -0.536145  0.027482  2.147214  0.047
O  O360  1  0.73720663  0.28877569  0.84296204  1  -1.162069  0.050833  -0.308355  -0.540932  0.025777  2.169576  0.044
O  O361  1  0.73720551  0.71122508  0.15703822  1  -1.16209  0.050834  -0.308352  -0.540933  0.025778  2.169668  0.044
O  O362  1  0.73720663  0.65703828  0.78877486  1  -1.162056  0.050835  -0.30834  -0.540915  0.025778  2.169596  0.044
O  O363  1  0.73720631  0.34296161  0.21122497  1  -1.162073  0.050834  -0.308344  -0.540905  0.025778  2.169612  0.044
O  O364  1  0.26279353  0.21122438  0.34296179  1  -1.162055  0.050838  -0.308349  -0.540907  0.02578  2.169555  0.044
O  O365  1  0.26279323  0.78877554  0.65703869  1  -1.162046  0.050838  -0.308339  -0.540882  0.02578  2.169583  0.044
O  O366  1  0.26279350  0.84296188  0.28877503  1  -1.162085  0.050832  -0.308351  -0.540924  0.025777  2.169666  0.044
O  O367  1  0.26279327  0.15703804  0.71122413  1  -1.162067  0.050834  -0.308356  -0.540929  0.025778  2.169593  0.044
O  O368  1  0.87240183  0.24945283  0.79445069  1  -1.148131  0.094583  -0.319666  -0.543311  0.049258  2.313259  0.075
O  O369  1  0.87240221  0.75054705  0.20554863  1  -1.148113  0.094581  -0.31965  -0.543278  0.049258  2.313283  0.075
O  O370  1  0.87240260  0.70554933  0.74945271  1  -1.148159  0.094582  -0.319679  -0.543318  0.049257  2.313254  0.075
O  O371  1  0.87240223  0.29445010  0.25054705  1  -1.148154  0.094583  -0.319633  -0.543253  0.049258  2.313132  0.075
O  O372  1  0.12759841  0.25054742  0.29445080  1  -1.148152  0.094583  -0.319665  -0.543279  0.049258  2.3133  0.075
O  O373  1  0.12759804  0.74945208  0.70554887  1  -1.148153  0.094581  -0.319672  -0.54327  0.049257  2.313291  0.075
O  O374  1  0.12759837  0.79445053  0.24945311  1  -1.148125  0.094586  -0.319668  -0.543296  0.04926  2.313254  0.075
O  O375  1  0.12759807  0.20554941  0.75054700  1  -1.148136  0.094582  -0.319668  -0.543296  0.049257  2.313246  0.075
