# generated using pymatgen
data_Cu3H34C40(N3O4)2
_symmetry_space_group_name_H-M   'P 1'
_cell_length_a   8.99913783
_cell_length_b   22.56032613
_cell_length_c   23.16145442
_cell_angle_alpha   89.99986589
_cell_angle_beta   90.00028498
_cell_angle_gamma   89.99979184
_symmetry_Int_Tables_number   1
_chemical_formula_structural   Cu3H34C40(N3O4)2
_chemical_formula_sum   'Cu12 H136 C160 N24 O32'
_cell_volume   4702.31917886
_cell_formula_units_Z   4
loop_
 _symmetry_equiv_pos_site_id
 _symmetry_equiv_pos_as_xyz
  1  'x, y, z'
loop_
 _atom_site_type_symbol
 _atom_site_label
 _atom_site_symmetry_multiplicity
 _atom_site_fract_x
 _atom_site_fract_y
 _atom_site_fract_z
 _atom_site_occupancy
 _atom_site_pbe_bader_charge
 _atom_site_pbe_bader_spin_density
 _atom_site_pbe_cm5_charge
 _atom_site_pbe_ddec_charge
 _atom_site_pbe_ddec_spin_density
 _atom_site_pbe_ddec_sum_bond_order
 _atom_site_pbe_magmom
Cu  Cu0  1  0.39735795  0.03268078  0.53134263  1  0.655438  0.00107  0.51605  0.326294  0.001348  2.240231  0.001
Cu  Cu1  1  0.10265120  0.96731879  0.03134548  1  0.655157  0.001068  0.515995  0.326264  0.001346  2.239892  0.001
Cu  Cu2  1  0.60264273  0.53268190  0.46865751  1  0.655387  0.00107  0.51602  0.326252  0.001348  2.240212  0.001
Cu  Cu3  1  0.89734888  0.46732299  0.96865195  1  0.655164  0.001069  0.515981  0.326311  0.001347  2.240019  0.001
Cu  Cu4  1  0.60265965  0.96732101  0.46865270  1  0.655823  0.00107  0.516004  0.326179  0.001348  2.240279  0.001
Cu  Cu5  1  0.89734307  0.03268122  0.96865331  1  0.655919  0.00107  0.516049  0.326257  0.001348  2.240326  0.001
Cu  Cu6  1  0.39734265  0.46732875  0.53135034  1  0.655639  0.001069  0.516032  0.326328  0.001347  2.240152  0.001
Cu  Cu7  1  0.10265428  0.53268146  0.03134597  1  0.656023  0.001068  0.516042  0.326249  0.001345  2.240325  0.001
Cu  Cu8  1  0.25861809  0.25000088  0.52674841  1  1.079745  0.570032  0.738268  0.758825  0.72961  2.309527  0.567
Cu  Cu9  1  0.24135989  0.74999915  0.02675288  1  1.07963  0.570066  0.738407  0.758984  0.729665  2.309841  0.567
Cu  Cu10  1  0.74137507  0.74999780  0.47325253  1  1.079673  0.570042  0.738298  0.758804  0.729622  2.30961  0.567
Cu  Cu11  1  0.75862438  0.24999954  0.97324935  1  1.079535  0.570027  0.738262  0.758922  0.729611  2.309268  0.567
H  H12  1  0.60012589  0.15390291  0.38298068  1  0.120563  0.000943  0.112589  0.119392  0.00052  0.990579  0.001
H  H13  1  0.55938979  0.96479253  0.61600955  1  0.127836  -9e-06  0.112887  0.096257  -1.1e-05  1.038523  0.0
H  H14  1  0.66865411  0.98480445  0.71328375  1  0.053758  -0.0  0.106484  0.114492  -0.0  0.986572  0.0
H  H15  1  0.54873618  0.16897062  0.69019318  1  0.115554  -3.7e-05  0.106995  0.122252  -4.6e-05  1.018454  0.0
H  H16  1  0.44698262  0.14190914  0.59474185  1  0.148822  -6e-05  0.115941  0.100714  -9.2e-05  1.036026  0.0
H  H17  1  0.70085255  0.13814550  0.77627734  1  0.043514  2.5e-05  0.095539  0.103239  1.8e-05  0.993653  0.0
H  H18  1  0.76839383  0.06461193  0.78152673  1  0.03209  1e-06  0.092751  0.095848  1e-06  0.993763  0.0
H  H19  1  0.44701636  0.10328844  0.80608182  1  0.026672  -1.2e-05  0.089247  0.086913  -1.8e-05  0.99167  0.0
H  H20  1  0.50937489  0.02936614  0.80614241  1  0.017986  1e-06  0.085434  0.072538  2e-06  1.000431  0.0
H  H21  1  0.61293155  0.12781091  0.88884748  1  0.05274  -4.1e-05  0.096206  0.108438  -5.3e-05  0.987482  0.0
H  H22  1  0.69726770  0.05737792  0.88467002  1  0.050617  1e-06  0.087314  0.079368  4e-06  1.041327  0.0
H  H23  1  0.19995327  0.09042141  0.01207533  1  0.150606  -1e-06  0.114538  0.094523  1e-06  1.035408  0.0
H  H24  1  0.39055281  0.13872928  0.94994143  1  0.03919  -2.1e-05  0.104013  0.11479  -6e-05  1.031049  0.0
H  H25  1  0.53199117  0.96395667  0.89773061  1  0.068859  -1e-06  0.109301  0.118222  -1e-06  0.981147  0.0
H  H26  1  0.33593077  0.92260804  0.96226225  1  0.117464  -2.3e-05  0.11802  0.100749  -8e-06  1.005811  0.0
H  H27  1  0.89987797  0.84609509  0.88297901  1  0.120846  0.000943  0.112597  0.119392  0.00052  0.990597  0.001
H  H28  1  0.94060957  0.03520744  0.11601259  1  0.127858  -9e-06  0.112938  0.096332  -1.1e-05  1.038574  0.0
H  H29  1  0.83134759  0.01519440  0.21328705  1  0.053721  -0.0  0.106464  0.11444  -0.0  0.986601  0.0
H  H30  1  0.95126190  0.83102962  0.19019400  1  0.115579  -3.7e-05  0.106988  0.122251  -4.6e-05  1.018461  0.0
H  H31  1  0.05301734  0.85809117  0.09474269  1  0.148868  -6e-05  0.11594  0.100682  -9.2e-05  1.035996  0.0
H  H32  1  0.79914773  0.86185454  0.27628038  1  0.043492  2.5e-05  0.095503  0.103217  1.8e-05  0.993646  0.0
H  H33  1  0.73160652  0.93538898  0.28152731  1  0.032081  1e-06  0.09275  0.09583  1e-06  0.993779  0.0
H  H34  1  0.05298628  0.89671402  0.30608128  1  0.026681  -1.2e-05  0.089226  0.086938  -1.8e-05  0.991644  0.0
H  H35  1  0.99062466  0.97063515  0.30614126  1  0.017933  1e-06  0.085449  0.072548  2e-06  1.000471  0.0
H  H36  1  0.88707460  0.87219062  0.38884765  1  0.052428  -4.1e-05  0.096207  0.108424  -5.3e-05  0.987554  0.0
H  H37  1  0.80273729  0.94262318  0.38467072  1  0.050667  1e-06  0.087309  0.079361  4e-06  1.041264  0.0
H  H38  1  0.30005231  0.90957955  0.51207763  1  0.150545  -1e-06  0.114544  0.094518  1e-06  1.035417  0.0
H  H39  1  0.10945277  0.86127239  0.44994237  1  0.038993  -2.1e-05  0.104028  0.114766  -6e-05  1.031101  0.0
H  H40  1  0.96801509  0.03604528  0.39773240  1  0.069172  -1e-06  0.109319  0.118255  -1e-06  0.981068  0.0
H  H41  1  0.16407163  0.07739227  0.46226508  1  0.117475  -2.3e-05  0.118015  0.100772  -8e-06  1.005805  0.0
H  H42  1  0.39987481  0.65390130  0.61701746  1  0.120489  0.000943  0.112619  0.119421  0.00052  0.990559  0.001
H  H43  1  0.44060920  0.46479126  0.38399047  1  0.127788  -9e-06  0.1129  0.096284  -1.1e-05  1.038519  0.0
H  H44  1  0.33134581  0.48480446  0.28671536  1  0.053747  -0.0  0.106483  0.114456  -0.0  0.986627  0.0
H  H45  1  0.45126549  0.66896924  0.30980751  1  0.115598  -3.7e-05  0.107006  0.122263  -4.6e-05  1.018469  0.0
H  H46  1  0.55302153  0.64190738  0.40525847  1  0.148793  -6e-05  0.115945  0.10069  -9.2e-05  1.036048  0.0
H  H47  1  0.29914718  0.63814587  0.22372256  1  0.043726  2.5e-05  0.095539  0.103232  1.8e-05  0.993671  0.0
H  H48  1  0.23160435  0.56461286  0.21847377  1  0.032022  1e-06  0.092719  0.095845  1e-06  0.993767  0.0
H  H49  1  0.55298369  0.60328719  0.19391902  1  0.026651  -1.2e-05  0.089249  0.086917  -1.8e-05  0.991672  0.0
H  H50  1  0.49062361  0.52936631  0.19385817  1  0.017976  1e-06  0.085434  0.072537  2e-06  1.000442  0.0
H  H51  1  0.38706938  0.62781187  0.11115201  1  0.05272  -4.1e-05  0.096226  0.108438  -5.3e-05  0.987484  0.0
H  H52  1  0.30273498  0.55737811  0.11532877  1  0.050603  1e-06  0.087315  0.079385  4e-06  1.041313  0.0
H  H53  1  0.80004690  0.59042365  0.98792425  1  0.150488  -1e-06  0.11457  0.094619  1e-06  1.03542  0.0
H  H54  1  0.60944914  0.63873140  0.05005933  1  0.039211  -2.1e-05  0.104028  0.114757  -6e-05  1.031059  0.0
H  H55  1  0.46801671  0.46395648  0.10226812  1  0.06892  -1e-06  0.109313  0.118222  -1e-06  0.981106  0.0
H  H56  1  0.66407416  0.42261038  0.03773398  1  0.117492  -2.3e-05  0.117953  0.100656  -8e-06  1.005802  0.0
H  H57  1  0.10012654  0.34609540  0.11701956  1  0.12088  0.000942  0.112583  0.119374  0.00052  0.99057  0.001
H  H58  1  0.05939220  0.53520880  0.88398582  1  0.127817  -9e-06  0.112898  0.096261  -1.1e-05  1.038525  0.0
H  H59  1  0.16865659  0.51519317  0.78671183  1  0.053588  -0.0  0.106505  0.114544  -0.0  0.986607  0.0
H  H60  1  0.04873942  0.33102922  0.80980719  1  0.115558  -3.7e-05  0.107003  0.122274  -4.6e-05  1.018443  0.0
H  H61  1  0.94698261  0.35809367  0.90525714  1  0.148919  -6e-05  0.115946  0.100689  -9.2e-05  1.036012  0.0
H  H62  1  0.20085664  0.36185324  0.72372074  1  0.043699  2.5e-05  0.095514  0.103198  1.8e-05  0.993664  0.0
H  H63  1  0.26839718  0.43538715  0.71847278  1  0.032182  1e-06  0.09272  0.095811  1e-06  0.993765  0.0
H  H64  1  0.94701777  0.39671260  0.69391976  1  0.02668  -1.2e-05  0.089236  0.086946  -1.8e-05  0.991651  0.0
H  H65  1  0.00937650  0.47063420  0.69386004  1  0.017956  1e-06  0.08544  0.072555  2e-06  1.000453  0.0
H  H66  1  0.11292634  0.37219061  0.61115258  1  0.052429  -4.1e-05  0.096213  0.108436  -5.3e-05  0.987536  0.0
H  H67  1  0.19726079  0.44262304  0.61532935  1  0.050683  1e-06  0.087326  0.079378  4e-06  1.0413  0.0
H  H68  1  0.69994940  0.40958031  0.48792251  1  0.15056  -1e-06  0.11454  0.094494  1e-06  1.035463  0.0
H  H69  1  0.89054938  0.36127184  0.55005745  1  0.039234  -2e-05  0.10404  0.114811  -6e-05  1.031043  0.0
H  H70  1  0.03198112  0.53604514  0.60227032  1  0.068976  -1e-06  0.109305  0.118201  -1e-06  0.981135  0.0
H  H71  1  0.83592532  0.57739244  0.53773582  1  0.117447  -2.3e-05  0.117988  0.100742  -8e-06  1.005815  0.0
H  H72  1  0.39987061  0.84609401  0.61701854  1  0.120885  0.000942  0.112587  0.119394  0.00052  0.990599  0.001
H  H73  1  0.44060560  0.03520793  0.38398318  1  0.127871  -9e-06  0.112944  0.096293  -1.1e-05  1.038561  0.0
H  H74  1  0.33134349  0.01519201  0.28670898  1  0.053576  -0.0  0.106546  0.114609  -0.0  0.986611  0.0
H  H75  1  0.45126920  0.83102807  0.30980646  1  0.115598  -3.7e-05  0.106984  0.122268  -4.6e-05  1.018428  0.0
H  H76  1  0.55302499  0.85809398  0.40525736  1  0.148875  -6e-05  0.115939  0.100692  -9.2e-05  1.035979  0.0
H  H77  1  0.29914394  0.86185097  0.22372015  1  0.043618  2.5e-05  0.095526  0.103168  1.8e-05  0.99374  0.0
H  H78  1  0.23160600  0.93538543  0.21847206  1  0.032356  1e-06  0.092732  0.095863  1e-06  0.993733  0.0
H  H79  1  0.55298347  0.89670803  0.19391653  1  0.026595  -1.2e-05  0.089239  0.086926  -1.8e-05  0.991637  0.0
H  H80  1  0.49062494  0.97062988  0.19385767  1  0.018098  1e-06  0.085415  0.072595  2e-06  1.000491  0.0
H  H81  1  0.38706716  0.87218689  0.11115000  1  0.052648  -4.1e-05  0.096227  0.10842  -5.3e-05  0.987571  0.0
H  H82  1  0.30272657  0.94261988  0.11533049  1  0.050573  1e-06  0.087304  0.079319  4e-06  1.041361  0.0
H  H83  1  0.80004656  0.90957905  0.98792561  1  0.150611  -1e-06  0.114546  0.094509  1e-06  1.035429  0.0
H  H84  1  0.60944035  0.86127073  0.05005778  1  0.039199  -2.1e-05  0.10403  0.1148  -6e-05  1.031027  0.0
H  H85  1  0.46800643  0.03604423  0.10227033  1  0.06881  -1e-06  0.109329  0.118294  -1e-06  0.981036  0.0
H  H86  1  0.66406906  0.07739286  0.03773912  1  0.117422  -2.3e-05  0.117994  0.100758  -8e-06  1.005822  0.0
H  H87  1  0.10012741  0.15390270  0.11701978  1  0.120677  0.000942  0.112601  0.119418  0.00052  0.990546  0.001
H  H88  1  0.05939025  0.96479213  0.88398662  1  0.127849  -9e-06  0.112919  0.096273  -1.1e-05  1.038577  0.0
H  H89  1  0.16865446  0.98480695  0.78671259  1  0.053707  -0.0  0.106483  0.11449  -0.0  0.986613  0.0
H  H90  1  0.04873126  0.16897128  0.80980608  1  0.115569  -3.7e-05  0.10699  0.122265  -4.6e-05  1.01842  0.0
H  H91  1  0.94697470  0.14190707  0.90525695  1  0.148833  -6e-05  0.11594  0.100702  -9.2e-05  1.035987  0.0
H  H92  1  0.20085321  0.13814814  0.72372186  1  0.04366  2.5e-05  0.095554  0.103259  1.8e-05  0.993616  0.0
H  H93  1  0.26839553  0.06461458  0.71847364  1  0.032028  1e-06  0.092715  0.095871  1e-06  0.993763  0.0
H  H94  1  0.94701577  0.10328954  0.69391621  1  0.026667  -1.2e-05  0.089244  0.086941  -1.8e-05  0.991608  0.0
H  H95  1  0.00937961  0.02936753  0.69385796  1  0.018044  1e-06  0.085416  0.072525  2e-06  1.000528  0.0
H  H96  1  0.11293634  0.12781205  0.61115200  1  0.052682  -4.1e-05  0.096253  0.108433  -5.3e-05  0.98757  0.0
H  H97  1  0.19727699  0.05737861  0.61533238  1  0.050519  1e-06  0.087289  0.079294  4e-06  1.041367  0.0
H  H98  1  0.69995752  0.09042446  0.48792762  1  0.15042  -1e-06  0.114569  0.094569  1e-06  1.035452  0.0
H  H99  1  0.89056484  0.13873028  0.55006029  1  0.039233  -2.1e-05  0.104046  0.114776  -6e-05  1.030968  0.0
H  H100  1  0.03199140  0.96395518  0.60227070  1  0.068805  -1e-06  0.109346  0.118308  -1e-06  0.981018  0.0
H  H101  1  0.83592708  0.92260908  0.53773931  1  0.117511  -2.3e-05  0.11799  0.100722  -8e-06  1.005758  0.0
H  H102  1  0.60012279  0.34609561  0.38298132  1  0.120854  0.000942  0.112594  0.119419  0.00052  0.990537  0.001
H  H103  1  0.55939840  0.53520876  0.61601695  1  0.127847  -9e-06  0.11294  0.096301  -1.1e-05  1.038618  0.0
H  H104  1  0.66866180  0.51519156  0.71329076  1  0.053527  -0.0  0.106535  0.114586  -0.0  0.986606  0.0
H  H105  1  0.54873656  0.33102856  0.69019516  1  0.115555  -3.7e-05  0.106981  0.122213  -4.6e-05  1.018498  0.0
H  H106  1  0.44698052  0.35809485  0.59474377  1  0.148917  -6e-05  0.115937  0.10069  -9.2e-05  1.035972  0.0
H  H107  1  0.70086153  0.36185104  0.77628140  1  0.043602  2.5e-05  0.095475  0.103142  1.8e-05  0.993715  0.0
H  H108  1  0.76839993  0.43538627  0.78152933  1  0.03256  1e-06  0.092699  0.095821  1e-06  0.993789  0.0
H  H109  1  0.44702058  0.39670928  0.80608192  1  0.026629  -1.2e-05  0.089269  0.086913  -1.8e-05  0.991676  0.0
H  H110  1  0.50937844  0.47063193  0.80614105  1  0.018061  1e-06  0.085431  0.072577  2e-06  1.000486  0.0
H  H111  1  0.61293489  0.37218814  0.88884850  1  0.052683  -4.1e-05  0.096254  0.108423  -5.3e-05  0.987603  0.0
H  H112  1  0.69727151  0.44262146  0.88466958  1  0.050587  1e-06  0.087307  0.079321  4e-06  1.041347  0.0
H  H113  1  0.19995960  0.40957637  0.01207453  1  0.15031  -1e-06  0.114572  0.094541  1e-06  1.03541  0.0
H  H114  1  0.39056180  0.36126906  0.94994031  1  0.039221  -2.1e-05  0.104017  0.11475  -6e-05  1.030984  0.0
H  H115  1  0.53198311  0.53604398  0.89772807  1  0.06879  -1e-06  0.109333  0.11827  -1e-06  0.981105  0.0
H  H116  1  0.33592455  0.57739007  0.96226135  1  0.117504  -2.3e-05  0.117966  0.100663  -8e-06  1.005794  0.0
H  H117  1  0.89987662  0.65390505  0.88298182  1  0.120824  0.000943  0.112583  0.119333  0.00052  0.990556  0.001
H  H118  1  0.94061429  0.46479255  0.11601555  1  0.127869  -9e-06  0.112916  0.096269  -1.1e-05  1.038556  0.0
H  H119  1  0.83134879  0.48480773  0.21328868  1  0.053724  -0.0  0.106478  0.114492  -0.0  0.986548  0.0
H  H120  1  0.95126708  0.66897212  0.19019202  1  0.115572  -3.7e-05  0.106991  0.122244  -4.6e-05  1.018404  0.0
H  H121  1  0.05303055  0.64190723  0.09474251  1  0.148842  -6e-05  0.115933  0.100717  -9.2e-05  1.03596  0.0
H  H122  1  0.79914319  0.63814899  0.27627847  1  0.043622  2.5e-05  0.09554  0.103221  1.8e-05  0.993683  0.0
H  H123  1  0.73160375  0.56461508  0.28152643  1  0.031945  1e-06  0.092721  0.095881  1e-06  0.993753  0.0
H  H124  1  0.05298095  0.60329052  0.30608291  1  0.026669  -1.2e-05  0.089231  0.086921  -1.8e-05  0.991661  0.0
H  H125  1  0.99062111  0.52936847  0.30614133  1  0.018066  1e-06  0.085431  0.072574  2e-06  1.000484  0.0
H  H126  1  0.88705904  0.62781295  0.38884706  1  0.052663  -4.1e-05  0.096244  0.108414  -5.3e-05  0.987624  0.0
H  H127  1  0.80272348  0.55737831  0.38466770  1  0.050529  1e-06  0.087295  0.079303  4e-06  1.041342  0.0
H  H128  1  0.30003820  0.59042902  0.51207325  1  0.150237  -1e-06  0.114552  0.094572  1e-06  1.03546  0.0
H  H129  1  0.10943044  0.63873305  0.44993874  1  0.039252  -2.1e-05  0.104005  0.114674  -6e-05  1.031068  0.0
H  H130  1  0.96801760  0.46395709  0.39772803  1  0.068811  -1e-06  0.109339  0.118232  -1e-06  0.981155  0.0
H  H131  1  0.16408118  0.42261290  0.46226210  1  0.117578  -2.3e-05  0.117965  0.100664  -8e-06  1.005747  0.0
H  H132  1  0.05445314  0.24999946  0.72690792  1  0.148857  0.001564  0.112302  0.122876  0.000866  1.020684  0.001
H  H133  1  0.79227584  0.24999941  0.69545120  1  0.129323  -3e-06  0.109821  0.112669  -2e-05  1.00743  0.0
H  H134  1  0.73196494  0.25000002  0.58780030  1  0.148169  0.001594  0.118629  0.135791  0.000948  0.981557  0.001
H  H135  1  0.69140725  0.24999858  0.33915698  1  0.083257  5.2e-05  0.114879  0.105979  -1e-06  0.970646  0.0
H  H136  1  0.44556294  0.74999964  0.22690804  1  0.148903  0.001564  0.112315  0.122834  0.000866  1.020775  0.001
H  H137  1  0.70773119  0.74999905  0.19544568  1  0.129341  -3e-06  0.109774  0.112558  -2e-05  1.007573  0.0
H  H138  1  0.76802517  0.74999958  0.08779490  1  0.148151  0.001594  0.118661  0.135863  0.000948  0.981481  0.001
H  H139  1  0.80859160  0.74999953  0.83915535  1  0.083227  5.2e-05  0.114869  0.105986  -1e-06  0.970638  0.0
H  H140  1  0.94554669  0.74999834  0.27309389  1  0.148905  0.001564  0.112333  0.122899  0.000866  1.020693  0.001
H  H141  1  0.20772510  0.74999884  0.30454974  1  0.129282  -3e-06  0.109776  0.112615  -2e-05  1.007487  0.0
H  H142  1  0.26803489  0.74999999  0.41220064  1  0.148081  0.001594  0.118647  0.135843  0.000948  0.98151  0.001
H  H143  1  0.30859035  0.74999656  0.66084223  1  0.083253  5.2e-05  0.114851  0.106013  -1e-06  0.970621  0.0
H  H144  1  0.55443466  0.25000037  0.77309117  1  0.148904  0.001564  0.112311  0.122891  0.000866  1.02078  0.001
H  H145  1  0.29226308  0.25000008  0.80455138  1  0.129194  -3e-06  0.109823  0.112682  -2e-05  1.007475  0.0
H  H146  1  0.23196243  0.24999955  0.91220302  1  0.148005  0.001594  0.118656  0.135835  0.000948  0.981362  0.001
H  H147  1  0.19140933  0.24999960  0.16084516  1  0.083178  5.2e-05  0.114865  0.105973  -1e-06  0.970717  0.0
C  C148  1  0.46210952  0.19841736  0.44432940  1  0.500344  -0.001076  0.119116  0.123898  -0.001432  3.930652  -0.001
C  C149  1  0.56177656  0.19689653  0.39822272  1  -0.069416  0.004024  -0.067892  -0.113218  0.002701  3.928862  0.003
C  C150  1  0.40864262  0.14262118  0.47373819  1  1.603726  0.001183  0.19579  0.52805  0.000807  4.243331  0.001
C  C151  1  0.56000985  0.00924870  0.63456949  1  0.493951  2.3e-05  0.031482  0.070954  1.5e-05  3.950945  0.0
C  C152  1  0.62074040  0.02118104  0.68839258  1  -0.06328  -1e-05  -0.092198  -0.194917  -1e-05  3.978616  0.0
C  C153  1  0.61850674  0.07895456  0.71087081  1  -0.060442  3.7e-05  0.008463  0.155597  2.2e-05  3.971756  0.0
C  C154  1  0.55652815  0.12302094  0.67581073  1  -0.115246  -5.2e-05  -0.086215  -0.18159  -5.9e-05  3.929568  0.0
C  C155  1  0.49790226  0.10834839  0.62216725  1  0.509526  -3.5e-05  0.037924  0.088171  -4e-05  3.898726  0.0
C  C156  1  0.66929748  0.09130932  0.77141756  1  0.001384  2.2e-05  -0.160266  -0.207818  1.2e-05  3.945732  0.0
C  C157  1  0.54504259  0.07534372  0.81431373  1  -0.006387  -0.0  -0.1583  -0.122846  -4e-06  3.917642  0.0
C  C158  1  0.59190524  0.08127615  0.87772213  1  -0.018961  -3.7e-05  -0.159978  -0.197659  -4.9e-05  3.928511  0.0
C  C159  1  0.27592128  0.06425522  0.98575565  1  0.389254  -1e-06  0.036814  0.080452  -1e-06  3.9472  0.0
C  C160  1  0.38200221  0.09061606  0.95062365  1  0.035407  -8e-06  -0.086188  -0.174966  -1.4e-05  3.926901  0.0
C  C161  1  0.47684903  0.05550839  0.91722173  1  0.022625  -2e-06  0.014118  0.171722  -1e-06  3.941924  0.0
C  C162  1  0.45927089  0.99390263  0.92156364  1  -0.087386  -1e-06  -0.088249  -0.189671  -1e-06  3.969761  0.0
C  C163  1  0.35110531  0.97027623  0.95727764  1  0.479319  -1.6e-05  0.03718  0.08549  -2.1e-05  3.939784  0.0
C  C164  1  0.03789376  0.80157723  0.94433188  1  0.50022  -0.001078  0.119032  0.12417  -0.001434  3.930509  -0.001
C  C165  1  0.93822860  0.80310143  0.89822382  1  -0.069391  0.004024  -0.067901  -0.113336  0.002702  3.928807  0.003
C  C166  1  0.09135882  0.85737422  0.97373848  1  1.603691  0.001183  0.195697  0.527894  0.000808  4.243396  0.001
C  C167  1  0.93998863  0.99075256  0.13457294  1  0.493812  2.3e-05  0.031354  0.070662  1.5e-05  3.951315  0.0
C  C168  1  0.87926099  0.97881832  0.18839422  1  -0.063232  -1e-05  -0.092134  -0.19474  -1e-05  3.978698  0.0
C  C169  1  0.88149049  0.92104430  0.21087085  1  -0.060435  3.7e-05  0.00849  0.155605  2.2e-05  3.971749  0.0
C  C170  1  0.94347085  0.87697889  0.17581142  1  -0.115089  -5.2e-05  -0.086245  -0.181711  -5.9e-05  3.929721  0.0
C  C171  1  0.00209471  0.89165186  0.12216921  1  0.509253  -3.5e-05  0.037976  0.088356  -4e-05  3.898623  0.0
C  C172  1  0.83070162  0.90869072  0.27141840  1  0.001397  2.2e-05  -0.160262  -0.207765  1.2e-05  3.945714  0.0
C  C173  1  0.95495928  0.92465755  0.31431218  1  -0.006384  -0.0  -0.1583  -0.122928  -4e-06  3.917699  0.0
C  C174  1  0.90810189  0.91872497  0.37772223  1  -0.018816  -3.7e-05  -0.159974  -0.197671  -4.9e-05  3.928525  0.0
C  C175  1  0.22408364  0.93574592  0.48575708  1  0.389762  -1e-06  0.036765  0.080432  -1e-06  3.947398  0.0
C  C176  1  0.11800226  0.90938472  0.45062579  1  0.035127  -8e-06  -0.086187  -0.174948  -1.4e-05  3.927224  0.0
C  C177  1  0.02315614  0.94449159  0.41722361  1  0.022957  -2e-06  0.014149  0.171832  -1e-06  3.941987  0.0
C  C178  1  0.04073544  0.00609911  0.42156553  1  -0.087807  -1e-06  -0.088186  -0.18967  -1e-06  3.969741  0.0
C  C179  1  0.14890036  0.02972409  0.45728098  1  0.479087  -1.5e-05  0.037065  0.085342  -2e-05  3.939945  0.0
C  C180  1  0.53789633  0.69841748  0.55567036  1  0.500443  -0.001077  0.119032  0.123826  -0.001433  3.9309  -0.001
C  C181  1  0.43822597  0.69689580  0.60177575  1  -0.069458  0.004024  -0.067954  -0.11334  0.002701  3.929007  0.003
C  C182  1  0.59136041  0.64262218  0.52626041  1  1.603636  0.001183  0.195899  0.528343  0.000807  4.243199  0.001
C  C183  1  0.43998994  0.50924675  0.36542984  1  0.493917  2.3e-05  0.031487  0.070967  1.5e-05  3.951087  0.0
C  C184  1  0.37926039  0.52118020  0.31160758  1  -0.063318  -1e-05  -0.09223  -0.19491  -1e-05  3.97882  0.0
C  C185  1  0.38149353  0.57895377  0.28912966  1  -0.060401  3.7e-05  0.008468  0.155587  2.2e-05  3.971667  0.0
C  C186  1  0.44347394  0.62301998  0.32418964  1  -0.115274  -5.2e-05  -0.086221  -0.181621  -5.9e-05  3.929606  0.0
C  C187  1  0.50209885  0.60834633  0.37783272  1  0.509651  -3.5e-05  0.038009  0.08833  -4e-05  3.898782  0.0
C  C188  1  0.33070378  0.59130920  0.22858158  1  0.001262  2.2e-05  -0.160279  -0.207869  1.3e-05  3.94576  0.0
C  C189  1  0.45495771  0.57534308  0.18568631  1  -0.006385  -1e-06  -0.158316  -0.122867  -5e-06  3.917753  0.0
C  C190  1  0.40809834  0.58127661  0.12227833  1  -0.018943  -3.7e-05  -0.159974  -0.197669  -4.9e-05  3.928459  0.0
C  C191  1  0.72408134  0.56425859  0.01424312  1  0.38933  -1e-06  0.036862  0.080467  -1e-06  3.947239  0.0
C  C192  1  0.61800017  0.59061773  0.04937593  1  0.035252  -8e-06  -0.086204  -0.174909  -1.4e-05  3.927042  0.0
C  C193  1  0.52315590  0.55551011  0.08277749  1  0.022715  -2e-06  0.014075  0.171731  -1e-06  3.941939  0.0
C  C194  1  0.54073450  0.49390328  0.07843502  1  -0.087488  -1e-06  -0.088154  -0.189637  -1e-06  3.969679  0.0
C  C195  1  0.64890030  0.47027858  0.04271892  1  0.479641  -1.6e-05  0.037164  0.085627  -2e-05  3.939797  0.0
C  C196  1  0.96211226  0.30157954  0.05567024  1  0.500392  -0.001077  0.119082  0.123945  -0.001433  3.930493  -0.001
C  C197  1  0.06177630  0.30310139  0.10177787  1  -0.069675  0.004023  -0.067856  -0.113183  0.002701  3.928779  0.003
C  C198  1  0.90864337  0.35737623  0.02626135  1  1.603567  0.001183  0.195732  0.528033  0.000807  4.24349  0.001
C  C199  1  0.06001346  0.49075335  0.86542572  1  0.493964  2.3e-05  0.031482  0.070872  1.5e-05  3.951046  0.0
C  C200  1  0.12074566  0.47881781  0.81160448  1  -0.063238  -1e-05  -0.09219  -0.194882  -1e-05  3.978754  0.0
C  C201  1  0.11851445  0.42104385  0.78912840  1  -0.060566  3.7e-05  0.008487  0.155568  2.2e-05  3.971774  0.0
C  C202  1  0.05653227  0.37697933  0.82418880  1  -0.114939  -5.2e-05  -0.086245  -0.181705  -5.9e-05  3.929706  0.0
C  C203  1  0.99790494  0.39165346  0.87783098  1  0.509283  -3.5e-05  0.037992  0.088377  -4e-05  3.898648  0.0
C  C204  1  0.16930121  0.40868990  0.72858089  1  0.001037  2.2e-05  -0.160257  -0.207712  1.2e-05  3.945634  0.0
C  C205  1  0.04504229  0.42465745  0.68568707  1  -0.006395  -0.0  -0.158314  -0.122995  -5e-06  3.917757  0.0
C  C206  1  0.09189863  0.41872496  0.62227832  1  -0.018947  -3.7e-05  -0.159973  -0.19763  -4.9e-05  3.928585  0.0
C  C207  1  0.77591673  0.43574562  0.51424258  1  0.389256  -0.0  0.036763  0.080438  -1e-06  3.94727  0.0
C  C208  1  0.88199945  0.40938507  0.54937565  1  0.035412  -8e-06  -0.086162  -0.174951  -1.4e-05  3.927075  0.0
C  C209  1  0.97684193  0.44449172  0.58277818  1  0.023047  -2e-06  0.01411  0.171779  -1e-06  3.942017  0.0
C  C210  1  0.95925993  0.50609945  0.57843640  1  -0.088117  -1e-06  -0.08816  -0.189632  -1e-06  3.969806  0.0
C  C211  1  0.85109591  0.52972423  0.54272089  1  0.479564  -1.6e-05  0.037052  0.085349  -2e-05  3.939989  0.0
C  C212  1  0.53789253  0.80157512  0.55567024  1  0.500365  -0.001078  0.118988  0.124023  -0.001434  3.930495  -0.001
C  C213  1  0.43822660  0.80310038  0.60177778  1  -0.069475  0.004024  -0.06785  -0.113299  0.002701  3.928973  0.003
C  C214  1  0.59136499  0.85737351  0.52626189  1  1.603823  0.001183  0.195633  0.527849  0.000807  4.243514  0.001
C  C215  1  0.43998886  0.99075221  0.36542627  1  0.493921  2.3e-05  0.031407  0.070808  1.5e-05  3.951134  0.0
C  C216  1  0.37925720  0.97881765  0.31160231  1  -0.063134  -1e-05  -0.092232  -0.194982  -1e-05  3.978707  0.0
C  C217  1  0.38149309  0.92104280  0.28912711  1  -0.060542  3.7e-05  0.00847  0.155614  2.2e-05  3.971677  0.0
C  C218  1  0.44347501  0.87697819  0.32418892  1  -0.115354  -5.2e-05  -0.086227  -0.181697  -5.9e-05  3.929603  0.0
C  C219  1  0.50210201  0.89165429  0.37783110  1  0.509471  -3.5e-05  0.037965  0.088344  -4e-05  3.898679  0.0
C  C220  1  0.33070012  0.90868715  0.22858079  1  0.001097  2.1e-05  -0.160253  -0.207732  1.2e-05  3.945627  0.0
C  C221  1  0.45495946  0.92465408  0.18568462  1  -0.006354  -0.0  -0.158307  -0.12302  -4e-06  3.917599  0.0
C  C222  1  0.40809237  0.91872209  0.12227622  1  -0.018913  -3.7e-05  -0.159964  -0.197519  -4.9e-05  3.928553  0.0
C  C223  1  0.72407632  0.93574612  0.01424443  1  0.389393  -1e-06  0.036836  0.080538  -1e-06  3.947091  0.0
C  C224  1  0.61799095  0.90938484  0.04937643  1  0.035398  -8e-06  -0.086189  -0.174911  -1.4e-05  3.92683  0.0
C  C225  1  0.52314525  0.94449074  0.08277748  1  0.022641  -2e-06  0.014098  0.171664  -1e-06  3.941957  0.0
C  C226  1  0.54073005  0.00609871  0.07843730  1  -0.087534  -1e-06  -0.08825  -0.189728  -1e-06  3.969621  0.0
C  C227  1  0.64889674  0.02972422  0.04272115  1  0.47958  -1.5e-05  0.037106  0.085396  -2e-05  3.939812  0.0
C  C228  1  0.96211162  0.19842057  0.05567079  1  0.500365  -0.001077  0.119023  0.12398  -0.001433  3.930456  -0.001
C  C229  1  0.06177567  0.19689725  0.10177842  1  -0.069532  0.004024  -0.067837  -0.113237  0.002701  3.928651  0.003
C  C230  1  0.90864323  0.14262313  0.02626160  1  1.603638  0.001183  0.195733  0.528065  0.000807  4.243465  0.001
C  C231  1  0.06000675  0.00924834  0.86542757  1  0.493871  2.3e-05  0.031452  0.070862  1.5e-05  3.951141  0.0
C  C232  1  0.12073995  0.02118125  0.81160457  1  -0.063169  -1e-05  -0.092178  -0.194796  -1e-05  3.978593  0.0
C  C233  1  0.11850711  0.07895704  0.78912966  1  -0.060656  3.7e-05  0.008415  0.155427  2.2e-05  3.971951  0.0
C  C234  1  0.05652342  0.12302157  0.82418952  1  -0.115281  -5.2e-05  -0.086189  -0.181592  -5.9e-05  3.929829  0.0
C  C235  1  0.99789623  0.10834594  0.87783216  1  0.50954  -3.5e-05  0.038  0.088394  -4e-05  3.898692  0.0
C  C236  1  0.16929932  0.09131151  0.72858255  1  0.001411  2.2e-05  -0.160278  -0.207866  1.2e-05  3.945647  0.0
C  C237  1  0.04504388  0.07534468  0.68568574  1  -0.006384  -0.0  -0.158302  -0.122947  -4e-06  3.917533  0.0
C  C238  1  0.09191350  0.08127682  0.62227741  1  -0.018925  -3.7e-05  -0.159986  -0.197484  -4.9e-05  3.928533  0.0
C  C239  1  0.77592619  0.06425675  0.51424602  1  0.389558  -0.0  0.036741  0.080389  -1e-06  3.947289  0.0
C  C240  1  0.88201201  0.09061663  0.54937861  1  0.035215  -8e-06  -0.086167  -0.174842  -1.4e-05  3.926578  0.0
C  C241  1  0.97685702  0.05550931  0.58277906  1  0.022712  -2e-06  0.014078  0.171624  -1e-06  3.941821  0.0
C  C242  1  0.95926994  0.99390135  0.57843887  1  -0.087518  -1e-06  -0.088264  -0.189747  -1e-06  3.969618  0.0
C  C243  1  0.85110169  0.97027725  0.54272255  1  0.479541  -1.5e-05  0.037168  0.085538  -2e-05  3.939691  0.0
C  C244  1  0.46211128  0.30157722  0.44433015  1  0.500324  -0.001077  0.118954  0.123889  -0.001433  3.930333  -0.001
C  C245  1  0.56177608  0.30309978  0.39822217  1  -0.069608  0.004023  -0.067825  -0.113231  0.002701  3.92877  0.003
C  C246  1  0.40863831  0.35737650  0.47373794  1  1.60382  0.001183  0.195794  0.528151  0.000807  4.243375  0.001
C  C247  1  0.56001878  0.49075326  0.63457369  1  0.493993  2.3e-05  0.031446  0.070798  1.5e-05  3.951018  0.0
C  C248  1  0.62075055  0.47881627  0.68839768  1  -0.063143  -1e-05  -0.092212  -0.195  -1e-05  3.978718  0.0
C  C249  1  0.61851518  0.42104225  0.71087344  1  -0.060503  3.7e-05  0.008553  0.155762  2.2e-05  3.971713  0.0
C  C250  1  0.55653367  0.37697870  0.67581216  1  -0.115083  -5.2e-05  -0.086202  -0.181611  -5.9e-05  3.929555  0.0
C  C251  1  0.49790320  0.39165502  0.62216995  1  0.509392  -3.5e-05  0.037959  0.088287  -4e-05  3.898526  0.0
C  C252  1  0.66930716  0.40868771  0.77142022  1  0.000628  2.2e-05  -0.160223  -0.207733  1.2e-05  3.945543  0.0
C  C253  1  0.54504434  0.42465472  0.81431506  1  -0.006363  -0.0  -0.158328  -0.122979  -4e-06  3.917587  0.0
C  C254  1  0.59190815  0.41872296  0.87772348  1  -0.018901  -3.7e-05  -0.159986  -0.197514  -4.9e-05  3.928589  0.0
C  C255  1  0.27592404  0.43574320  0.98575523  1  0.389604  -1e-06  0.036756  0.080441  -1e-06  3.947191  0.0
C  C256  1  0.38200744  0.40938317  0.95062242  1  0.034874  -8e-06  -0.086169  -0.17483  -1.4e-05  3.926881  0.0
C  C257  1  0.47684948  0.44448946  0.91722086  1  0.023001  -2e-06  0.014076  0.171678  -1e-06  3.942065  0.0
C  C258  1  0.45926421  0.50609718  0.92156160  1  -0.087394  -1e-06  -0.08827  -0.189832  -1e-06  3.969753  0.0
C  C259  1  0.35109842  0.52972188  0.95727771  1  0.479525  -1.5e-05  0.037122  0.085553  -2e-05  3.939809  0.0
C  C260  1  0.03789868  0.69842225  0.94433156  1  0.50024  -0.001078  0.119011  0.124225  -0.001434  3.930251  -0.001
C  C261  1  0.93823131  0.69689907  0.89822567  1  -0.069481  0.004023  -0.067886  -0.113241  0.002701  3.92876  0.003
C  C262  1  0.09136535  0.64262555  0.97374002  1  1.603856  0.001183  0.195619  0.527702  0.000807  4.243716  0.001
C  C263  1  0.93999637  0.50924756  0.13457392  1  0.493777  2.3e-05  0.031404  0.070787  1.5e-05  3.951179  0.0
C  C264  1  0.87926084  0.52118265  0.18839560  1  -0.063213  -1e-05  -0.092152  -0.194769  -1e-05  3.978566  0.0
C  C265  1  0.88149204  0.57895793  0.21087038  1  -0.060652  3.7e-05  0.00848  0.155504  2.2e-05  3.971994  0.0
C  C266  1  0.94347534  0.62302157  0.17580998  1  -0.115246  -5.2e-05  -0.086193  -0.181542  -5.9e-05  3.929855  0.0
C  C267  1  0.00210600  0.60834655  0.12216867  1  0.509461  -3.5e-05  0.037976  0.088269  -4e-05  3.898706  0.0
C  C268  1  0.83069973  0.59131277  0.27141746  1  0.001483  2.1e-05  -0.160284  -0.207872  1.2e-05  3.945711  0.0
C  C269  1  0.95495531  0.57534522  0.31431387  1  -0.006385  -0.0  -0.158295  -0.122948  -4e-06  3.917634  0.0
C  C270  1  0.90808675  0.58127727  0.37772219  1  -0.018744  -3.7e-05  -0.159988  -0.197517  -4.9e-05  3.928649  0.0
C  C271  1  0.22407199  0.56426104  0.48575405  1  0.389707  -1e-06  0.036788  0.080373  -1e-06  3.947211  0.0
C  C272  1  0.11798704  0.59061938  0.45062183  1  0.035017  -8e-06  -0.086135  -0.174693  -1.4e-05  3.926797  0.0
C  C273  1  0.02314568  0.55551140  0.41722017  1  0.022472  -2e-06  0.01413  0.171681  -1e-06  3.942074  0.0
C  C274  1  0.04073434  0.49390456  0.42156152  1  -0.087648  -1e-06  -0.088305  -0.189764  -1e-06  3.969844  0.0
C  C275  1  0.14890503  0.47028155  0.45727789  1  0.479975  -1.5e-05  0.037172  0.085631  -2e-05  3.939777  0.0
C  C276  1  0.13993077  0.24999995  0.63956979  1  0.479036  -0.001059  0.110791  0.09503  -0.001797  3.973075  -0.001
C  C277  1  0.02774696  0.24999954  0.68109255  1  -0.044396  0.004267  -0.068298  -0.117864  0.00294  3.902704  0.003
C  C278  1  0.87945621  0.24999938  0.66278624  1  -0.082623  -0.004161  -0.060399  -0.017587  -0.004768  3.906978  -0.002
C  C279  1  0.84600819  0.25000036  0.60382877  1  -0.005303  0.003976  -0.066087  -0.126768  0.002812  3.913445  0.003
C  C280  1  0.96372921  0.25000032  0.56452522  1  0.489063  -0.002286  0.112178  0.096058  -0.003244  3.977704  -0.002
C  C281  1  0.30642124  0.24999804  0.65055674  1  1.605627  -2.1e-05  0.197634  0.525435  0.000124  4.270098  0.0
C  C282  1  0.95108759  0.24999908  0.49898744  1  1.600677  -0.001133  0.185128  0.51577  -0.000981  4.300857  -0.001
C  C283  1  0.61155872  0.24999815  0.37453076  1  0.090276  -0.003293  -0.058411  -0.012225  -0.003797  3.976524  -0.002
C  C284  1  0.36006420  0.75000025  0.13956673  1  0.479628  -0.001059  0.110951  0.09524  -0.001798  3.973538  -0.001
C  C285  1  0.47224632  0.75000012  0.18109013  1  -0.044272  0.004268  -0.068393  -0.117951  0.002941  3.902812  0.003
C  C286  1  0.62054708  0.74999915  0.16278487  1  -0.082535  -0.004163  -0.060395  -0.017453  -0.00477  3.906607  -0.002
C  C287  1  0.65398102  0.74999964  0.10382616  1  -0.005602  0.003976  -0.066235  -0.127028  0.002812  3.913441  0.003
C  C288  1  0.53625616  0.74999977  0.06452411  1  0.48947  -0.002286  0.112313  0.096108  -0.003244  3.977911  -0.002
C  C289  1  0.19357610  0.75000080  0.15055335  1  1.605722  -1.9e-05  0.197714  0.525477  0.000127  4.270138  0.0
C  C290  1  0.54887552  0.75000041  0.99898660  1  1.599956  -0.001129  0.185456  0.516781  -0.000976  4.300242  -0.001
C  C291  1  0.88844170  0.74999943  0.87453015  1  0.090207  -0.003294  -0.05841  -0.01229  -0.003799  3.976376  -0.002
C  C292  1  0.86006572  0.74999696  0.36043331  1  0.47936  -0.001059  0.110902  0.095266  -0.001799  3.973226  -0.001
C  C293  1  0.97225065  0.74999915  0.31890882  1  -0.044329  0.004268  -0.068383  -0.118003  0.00294  3.902812  0.003
C  C294  1  0.12054362  0.74999842  0.33721427  1  -0.082482  -0.004161  -0.060343  -0.017498  -0.004768  3.906709  -0.002
C  C295  1  0.15398831  0.74999876  0.39617390  1  -0.005148  0.003976  -0.066191  -0.126892  0.002812  3.9134  0.003
C  C296  1  0.03626395  0.74999836  0.43547572  1  0.489014  -0.002285  0.112176  0.095952  -0.003242  3.977906  -0.002
C  C297  1  0.69357526  0.74999798  0.34944852  1  1.605769  -2e-05  0.197651  0.525301  0.000126  4.26994  0.0
C  C298  1  0.04890891  0.74999783  0.50101220  1  1.600613  -0.001132  0.185139  0.515867  -0.000979  4.301027  -0.001
C  C299  1  0.38844000  0.74999787  0.62546888  1  0.090183  -0.003294  -0.058367  -0.012212  -0.003798  3.976445  -0.002
C  C300  1  0.63992563  0.25000065  0.86042860  1  0.479862  -0.001058  0.110768  0.095043  -0.001797  3.973292  -0.001
C  C301  1  0.52773906  0.25000034  0.81890778  1  -0.044367  0.004268  -0.068396  -0.117939  0.00294  3.902974  0.003
C  C302  1  0.37944386  0.24999998  0.83721435  1  -0.082635  -0.004161  -0.060361  -0.017719  -0.004768  3.906964  -0.002
C  C303  1  0.34600325  0.24999993  0.89617219  1  -0.005284  0.003976  -0.0661  -0.126596  0.002811  3.913126  0.003
C  C304  1  0.46373034  0.24999980  0.93547208  1  0.489105  -0.002286  0.112063  0.095673  -0.003243  3.97787  -0.002
C  C305  1  0.80641484  0.25000143  0.84944111  1  1.605896  -2.3e-05  0.197648  0.525586  0.000125  4.270119  0.0
C  C306  1  0.45109320  0.24999916  0.00101175  1  1.600758  -0.001133  0.185249  0.516158  -0.000981  4.300822  -0.001
C  C307  1  0.11156035  0.24999970  0.12547122  1  0.090459  -0.003293  -0.058433  -0.012269  -0.003798  3.976436  -0.002
N  N308  1  0.49715121  0.05210100  0.60154944  1  -1.225929  -1.7e-05  -0.380326  -0.212965  -1.8e-05  3.72487  0.0
N  N309  1  0.25870659  0.00482834  0.98885525  1  -1.214422  4.5e-05  -0.382077  -0.220284  3.1e-05  3.746347  0.0
N  N310  1  0.00284773  0.94790018  0.10155386  1  -1.225547  -1.7e-05  -0.380261  -0.212872  -1.8e-05  3.724785  0.0
N  N311  1  0.24130170  0.99517191  0.48885873  1  -1.214254  4.5e-05  -0.382079  -0.220305  3.1e-05  3.746516  0.0
N  N312  1  0.50284931  0.55209933  0.39844936  1  -1.225938  -1.7e-05  -0.380364  -0.213036  -1.8e-05  3.724937  0.0
N  N313  1  0.74129768  0.50483169  0.01114150  1  -1.214708  4.5e-05  -0.382116  -0.220515  3.1e-05  3.746607  0.0
N  N314  1  0.99715253  0.44790085  0.89844577  1  -1.225541  -1.7e-05  -0.380365  -0.213015  -1.8e-05  3.724904  0.0
N  N315  1  0.75869812  0.49517208  0.51114208  1  -1.214231  4.5e-05  -0.382023  -0.220202  3.1e-05  3.746444  0.0
N  N316  1  0.50285418  0.94790123  0.39844719  1  -1.225667  -1.7e-05  -0.38028  -0.212911  -1.8e-05  3.724916  0.0
N  N317  1  0.74129990  0.99517345  0.01114267  1  -1.21458  4.5e-05  -0.382049  -0.22032  3.1e-05  3.746322  0.0
N  N318  1  0.99714210  0.05209895  0.89844924  1  -1.225744  -1.7e-05  -0.380324  -0.213008  -1.8e-05  3.725042  0.0
N  N319  1  0.75870257  0.00482944  0.51114480  1  -1.214367  4.5e-05  -0.382047  -0.220329  3.1e-05  3.746537  0.0
N  N320  1  0.49714941  0.44790201  0.60155373  1  -1.225533  -1.7e-05  -0.38038  -0.212945  -1.8e-05  3.724629  0.0
N  N321  1  0.25869992  0.49517143  0.98885685  1  -1.214585  4.5e-05  -0.381987  -0.220275  3.1e-05  3.746492  0.0
N  N322  1  0.00285953  0.55210005  0.10155172  1  -1.225574  -1.7e-05  -0.380334  -0.212951  -1.8e-05  3.724985  0.0
N  N323  1  0.24130171  0.50483325  0.48885670  1  -1.214452  4.5e-05  -0.382066  -0.220413  3.1e-05  3.746675  0.0
N  N324  1  0.10450369  0.25000048  0.58332890  1  -1.252604  0.090939  -0.362536  -0.262943  0.060506  3.73839  0.078
N  N325  1  0.41238577  0.24999686  0.46609218  1  -1.219965  0.060268  -0.335122  -0.238106  0.040628  3.586356  0.05
N  N326  1  0.39548168  0.75000029  0.08332720  1  -1.253443  0.090956  -0.362583  -0.263091  0.060517  3.738698  0.078
N  N327  1  0.08761668  0.75000079  0.96609487  1  -1.220281  0.060269  -0.335097  -0.238207  0.040629  3.586365  0.05
N  N328  1  0.89549280  0.74999731  0.41667247  1  -1.253075  0.090946  -0.36247  -0.262912  0.060511  3.738484  0.078
N  N329  1  0.58761961  0.74999607  0.53390790  1  -1.220122  0.060269  -0.335152  -0.238091  0.040628  3.586517  0.05
N  N330  1  0.60450481  0.25000016  0.91666899  1  -1.253144  0.090938  -0.362402  -0.262798  0.060505  3.738327  0.078
N  N331  1  0.91238648  0.25000011  0.03390780  1  -1.219995  0.060267  -0.335096  -0.238095  0.040628  3.586208  0.05
O  O332  1  0.47028864  0.09431113  0.45828850  1  -1.179304  0.002157  -0.326785  -0.55167  0.001305  2.320152  0.002
O  O333  1  0.30992561  0.14745093  0.51242953  1  -1.169392  0.001869  -0.322474  -0.562064  0.000768  2.258056  0.003
O  O334  1  0.02971371  0.90568387  0.95828942  1  -1.179081  0.002155  -0.326718  -0.551633  0.001303  2.320216  0.002
O  O335  1  0.19007442  0.85254337  0.01243151  1  -1.169336  0.001868  -0.322465  -0.562104  0.000767  2.25814  0.003
O  O336  1  0.52971260  0.59431262  0.54170762  1  -1.179152  0.002156  -0.326768  -0.551762  0.001304  2.320196  0.002
O  O337  1  0.69007849  0.64745276  0.48756819  1  -1.169422  0.001871  -0.32248  -0.562147  0.000769  2.258056  0.003
O  O338  1  0.97028804  0.40568620  0.04171030  1  -1.179098  0.002156  -0.326761  -0.551721  0.001305  2.320165  0.002
O  O339  1  0.80992892  0.35254587  0.98756747  1  -1.169304  0.00187  -0.322426  -0.562059  0.000768  2.258094  0.003
O  O340  1  0.52972230  0.90568490  0.54170856  1  -1.179042  0.002157  -0.326632  -0.551529  0.001305  2.320169  0.002
O  O341  1  0.69007756  0.85254244  0.48756882  1  -1.169403  0.001872  -0.322452  -0.56205  0.000769  2.258279  0.003
O  O342  1  0.97028612  0.09431171  0.04170806  1  -1.179128  0.002157  -0.326799  -0.551757  0.001305  2.320248  0.002
O  O343  1  0.80992985  0.14745309  0.98756727  1  -1.169294  0.00187  -0.322421  -0.562104  0.000768  2.258134  0.003
O  O344  1  0.47028056  0.40568739  0.45829116  1  -1.179081  0.002158  -0.326747  -0.551758  0.001305  2.320224  0.002
O  O345  1  0.30992690  0.35254504  0.51243231  1  -1.169366  0.001871  -0.322497  -0.562156  0.000769  2.258161  0.003
O  O346  1  0.02972512  0.59431515  0.95829323  1  -1.178992  0.002154  -0.326592  -0.551494  0.001303  2.320421  0.002
O  O347  1  0.19007535  0.64745857  0.01243476  1  -1.169498  0.001868  -0.322466  -0.562057  0.000767  2.258283  0.003
O  O348  1  0.35238374  0.25000105  0.70161489  1  -1.174609  0.020498  -0.32358  -0.55125  0.012942  2.140166  0.017
O  O349  1  0.38747315  0.24999405  0.60464736  1  -1.120435  0.083153  -0.325306  -0.543883  0.05344  2.216152  0.076
O  O350  1  0.07734149  0.24999753  0.47224561  1  -1.090729  0.118865  -0.341419  -0.538747  0.075299  2.201361  0.108
O  O351  1  0.82556764  0.24999876  0.47649003  1  -1.158489  0.036864  -0.324867  -0.516332  0.023253  2.091137  0.031
O  O352  1  0.14761869  0.75000122  0.20161055  1  -1.17459  0.020492  -0.323655  -0.551275  0.012938  2.14013  0.017
O  O353  1  0.11253471  0.75000136  0.10464251  1  -1.120649  0.08314  -0.325374  -0.543937  0.05343  2.216404  0.076
O  O354  1  0.42261992  0.75000098  0.97225284  1  -1.089887  0.118849  -0.341388  -0.539012  0.075288  2.201523  0.108
O  O355  1  0.67438851  0.74999946  0.97648857  1  -1.158553  0.036856  -0.325239  -0.516983  0.023249  2.090718  0.031
O  O356  1  0.64761720  0.74999941  0.29839080  1  -1.174487  0.020497  -0.323586  -0.551177  0.012941  2.140072  0.017
O  O357  1  0.61253001  0.74999577  0.39535790  1  -1.120714  0.083141  -0.325373  -0.543857  0.053431  2.216103  0.076
O  O358  1  0.92265722  0.74999583  0.52775188  1  -1.090746  0.118853  -0.341401  -0.538762  0.075291  2.201467  0.108
O  O359  1  0.17442774  0.74999948  0.52350962  1  -1.158408  0.036867  -0.324891  -0.516353  0.023255  2.091139  0.031
O  O360  1  0.85237447  0.25000012  0.79838348  1  -1.174834  0.020496  -0.323638  -0.551339  0.012941  2.140168  0.017
O  O361  1  0.88746623  0.25000220  0.89535152  1  -1.120546  0.083153  -0.32525  -0.543936  0.053436  2.216252  0.076
O  O362  1  0.57734546  0.24999815  0.02775415  1  -1.090766  0.118869  -0.341445  -0.538884  0.075301  2.201311  0.108
O  O363  1  0.32557576  0.24999922  0.02351065  1  -1.158406  0.036873  -0.324946  -0.516506  0.023259  2.091085  0.031
