# generated using pymatgen
data_ZnH25C23(N3O2)2
_symmetry_space_group_name_H-M   'P 1'
_cell_length_a   15.83321320
_cell_length_b   17.33008543
_cell_length_c   18.08832699
_cell_angle_alpha   90.00019410
_cell_angle_beta   89.99987826
_cell_angle_gamma   90.00002676
_symmetry_Int_Tables_number   1
_chemical_formula_structural   ZnH25C23(N3O2)2
_chemical_formula_sum   'Zn8 H200 C184 N48 O32'
_cell_volume   4963.27299809
_cell_formula_units_Z   8
loop_
 _symmetry_equiv_pos_site_id
 _symmetry_equiv_pos_as_xyz
  1  'x, y, z'
loop_
 _atom_site_type_symbol
 _atom_site_label
 _atom_site_symmetry_multiplicity
 _atom_site_fract_x
 _atom_site_fract_y
 _atom_site_fract_z
 _atom_site_occupancy
 _atom_site_pbe_bader_charge
 _atom_site_pbe_bader_spin_density
 _atom_site_pbe_cm5_charge
 _atom_site_pbe_ddec_charge
 _atom_site_pbe_ddec_spin_density
 _atom_site_pbe_ddec_sum_bond_order
 _atom_site_pbe_magmom
Zn  Zn0  1  0.72132441  0.09510307  0.37887753  1  1.258871  0  0.72431  0.780181  0  2.474091  0
Zn  Zn1  1  0.77867800  0.40489470  0.87887557  1  1.258862  0  0.724305  0.780213  0  2.474017  0
Zn  Zn2  1  0.27867357  0.09510367  0.12112165  1  1.258969  0  0.724304  0.780169  0  2.474029  0
Zn  Zn3  1  0.22132272  0.40489470  0.62112478  1  1.258854  0  0.72427  0.780098  0  2.474175  0
Zn  Zn4  1  0.27867444  0.90489398  0.62112333  1  1.258939  0  0.724306  0.780188  0  2.474147  0
Zn  Zn5  1  0.22132274  0.59510754  0.12112363  1  1.258898  0  0.724311  0.780208  0  2.474053  0
Zn  Zn6  1  0.72132527  0.90489511  0.87887644  1  1.258906  0  0.724333  0.780184  0  2.474152  0
Zn  Zn7  1  0.77867676  0.59510292  0.37887552  1  1.258859  0  0.724272  0.780156  0  2.474099  0
H  H8  1  0.69885725  0.91608522  0.41195546  1  0.558836  0  0.301378  0.222535  0  1.081085  0
H  H9  1  0.80114470  0.58391408  0.91195242  1  0.558715  0  0.301389  0.222548  0  1.081141  0
H  H10  1  0.30114178  0.91608688  0.08804362  1  0.558857  0  0.301396  0.222567  0  1.081032  0
H  H11  1  0.19885547  0.58391338  0.58804851  1  0.558656  0  0.301385  0.22253  0  1.081143  0
H  H12  1  0.30114602  0.08390894  0.58804595  1  0.558808  0  0.301383  0.222482  0  1.081209  0
H  H13  1  0.19885351  0.41608643  0.08804733  1  0.55872  0  0.301356  0.222459  0  1.081216  0
H  H14  1  0.69885643  0.08391364  0.91195502  1  0.558759  0  0.301381  0.222534  0  1.081141  0
H  H15  1  0.80114400  0.41608656  0.41195345  1  0.558734  0  0.301398  0.222575  0  1.081125  0
H  H16  1  0.85794767  0.98499849  0.81269343  1  0.550872  0  0.315585  0.272787  0  1.002005  0
H  H17  1  0.64205452  0.51500046  0.31269251  1  0.550911  0  0.315608  0.272776  0  1.001981  0
H  H18  1  0.14205587  0.98500158  0.68730550  1  0.550885  0  0.315603  0.272794  0  1.00199  0
H  H19  1  0.35794178  0.51500075  0.18730859  1  0.550957  0  0.315617  0.272805  0  1.001977  0
H  H20  1  0.14205054  0.01500548  0.18730854  1  0.550892  0  0.315608  0.272758  0  1.001995  0
H  H21  1  0.35794432  0.48499948  0.68730835  1  0.550926  0  0.315596  0.272752  0  1.002035  0
H  H22  1  0.85794424  0.01499951  0.31269426  1  0.550927  0  0.315605  0.272786  0  1.001996  0
H  H23  1  0.64205454  0.48499918  0.81269392  1  0.5509  0  0.315613  0.272773  0  1.002011  0
H  H24  1  0.78475164  0.15423869  0.55070219  1  0.072964  0  0.096146  0.140072  0  1.009032  0
H  H25  1  0.71525219  0.34575907  0.05069889  1  0.072988  0  0.096116  0.140034  0  1.009082  0
H  H26  1  0.21524768  0.15423928  0.94929790  1  0.072935  0  0.09612  0.14002  0  1.009106  0
H  H27  1  0.28474465  0.34575968  0.44930166  1  0.073026  0  0.096115  0.14002  0  1.009152  0
H  H28  1  0.21524657  0.84575893  0.44929867  1  0.072892  0  0.096104  0.140002  0  1.009032  0
H  H29  1  0.28475676  0.65423683  0.94930086  1  0.07288  0  0.096144  0.140065  0  1.009045  0
H  H30  1  0.78474674  0.84575720  0.05069964  1  0.072996  0  0.096118  0.140031  0  1.009125  0
H  H31  1  0.71525230  0.65424314  0.55069975  1  0.072971  0  0.096124  0.140031  0  1.009092  0
H  H32  1  0.67381019  0.15579721  0.53742191  1  0.067692  0  0.09768  0.141854  0  1.00633  0
H  H33  1  0.82619368  0.34420455  0.03741674  1  0.067884  0  0.097677  0.141801  0  1.00633  0
H  H34  1  0.32618914  0.15579731  0.96257819  1  0.067717  0  0.097686  0.141838  0  1.006341  0
H  H35  1  0.17380379  0.34420285  0.46258326  1  0.06779  0  0.097657  0.141774  0  1.006296  0
H  H36  1  0.32618739  0.84419696  0.46257674  1  0.067538  0  0.097661  0.141818  0  1.006302  0
H  H37  1  0.17381590  0.65579827  0.96257915  1  0.067548  0  0.097684  0.141853  0  1.006351  0
H  H38  1  0.67380528  0.84420493  0.03741825  1  0.067691  0  0.09767  0.141812  0  1.006329  0
H  H39  1  0.82619379  0.65579593  0.53741816  1  0.067691  0  0.097686  0.141838  0  1.006298  0
H  H40  1  0.71661692  0.12509816  0.62378304  1  0.039869  0  0.096334  0.140681  0  0.99609  0
H  H41  1  0.78338610  0.37490102  0.12377915  1  0.039955  0  0.096296  0.14063  0  0.995995  0
H  H42  1  0.28338238  0.12509966  0.87621696  1  0.039854  0  0.096342  0.140717  0  0.996013  0
H  H43  1  0.21661139  0.37489904  0.37622149  1  0.039874  0  0.096259  0.14061  0  0.996008  0
H  H44  1  0.28338066  0.87489485  0.37621616  1  0.039831  0  0.096314  0.140667  0  0.996065  0
H  H45  1  0.21662285  0.62509776  0.87621949  1  0.039962  0  0.096309  0.140616  0  0.99612  0
H  H46  1  0.71661267  0.87490085  0.12377948  1  0.039935  0  0.096272  0.14062  0  0.995988  0
H  H47  1  0.78338556  0.62510205  0.62378047  1  0.039836  0  0.096251  0.140621  0  0.996  0
H  H48  1  0.73806711  0.79796073  0.48549659  1  0.06906  0  0.102763  0.149907  0  0.997429  0
H  H49  1  0.76193466  0.70203883  0.98549400  1  0.069049  0  0.102724  0.14989  0  0.997429  0
H  H50  1  0.26193186  0.79796210  0.01450378  1  0.069106  0  0.102743  0.149878  0  0.997419  0
H  H51  1  0.23806178  0.70203674  0.51450677  1  0.069032  0  0.102715  0.149926  0  0.997506  0
H  H52  1  0.26194436  0.20203344  0.51450427  1  0.069139  0  0.102718  0.149904  0  0.997484  0
H  H53  1  0.23805976  0.29796168  0.01450520  1  0.069022  0  0.102733  0.14993  0  0.997515  0
H  H54  1  0.73806383  0.20203725  0.98549542  1  0.069067  0  0.102701  0.149864  0  0.997453  0
H  H55  1  0.76193895  0.29796147  0.48549575  1  0.069071  0  0.102702  0.149859  0  0.997467  0
H  H56  1  0.79930917  0.81391291  0.56639127  1  0.056463  0  0.097807  0.139298  0  1.011576  0
H  H57  1  0.70069299  0.68608632  0.06638969  1  0.056538  0  0.09784  0.139331  0  1.011531  0
H  H58  1  0.20068860  0.81391285  0.93360821  1  0.056923  0  0.097805  0.139274  0  1.011536  0
H  H59  1  0.29930213  0.68608285  0.43361142  1  0.056423  0  0.097818  0.139395  0  1.011498  0
H  H60  1  0.20070294  0.18607894  0.43360904  1  0.056523  0  0.097845  0.139458  0  1.011473  0
H  H61  1  0.29930080  0.31391419  0.93361007  1  0.056409  0  0.097826  0.139391  0  1.011501  0
H  H62  1  0.79930582  0.18608477  0.06639099  1  0.056561  0  0.097808  0.13931  0  1.011469  0
H  H63  1  0.70069734  0.31391478  0.56639221  1  0.056612  0  0.097811  0.13934  0  1.011459  0
H  H64  1  0.68775568  0.80616279  0.57283364  1  0.042792  0  0.095831  0.135777  0  1.005519  0
H  H65  1  0.81224583  0.69383704  0.07283077  1  0.042796  0  0.095841  0.135782  0  1.005559  0
H  H66  1  0.31224272  0.80616334  0.92716692  1  0.042822  0  0.095845  0.135771  0  1.005545  0
H  H67  1  0.18774930  0.69383927  0.42717036  1  0.0428  0  0.095832  0.135793  0  1.005534  0
H  H68  1  0.31225643  0.19383483  0.42716667  1  0.042554  0  0.095821  0.135741  0  1.005637  0
H  H69  1  0.18774796  0.30616174  0.92716954  1  0.042754  0  0.095824  0.135774  0  1.005606  0
H  H70  1  0.68775171  0.19383775  0.07283228  1  0.042742  0  0.095827  0.135754  0  1.005544  0
H  H71  1  0.81225081  0.30616298  0.57283271  1  0.042664  0  0.095821  0.135752  0  1.005578  0
H  H72  1  0.91234906  0.09739332  0.69336139  1  0.065967  0  0.101641  0.147572  0  0.974862  0
H  H73  1  0.58765191  0.40260841  0.19336127  1  0.066039  0  0.101674  0.147611  0  0.974843  0
H  H74  1  0.08765466  0.09739508  0.80663908  1  0.065919  0  0.101659  0.147602  0  0.974903  0
H  H75  1  0.41234560  0.40260742  0.30664002  1  0.065874  0  0.101694  0.147677  0  0.974765  0
H  H76  1  0.08764979  0.90261065  0.30663837  1  0.065946  0  0.101709  0.147651  0  0.974829  0
H  H77  1  0.41234883  0.59739153  0.80663903  1  0.06602  0  0.101655  0.14759  0  0.974893  0
H  H78  1  0.91234545  0.90260543  0.19336289  1  0.065758  0  0.101642  0.147581  0  0.974808  0
H  H79  1  0.58765325  0.59739310  0.69336361  1  0.065796  0  0.101631  0.147603  0  0.974851  0
H  H80  1  0.96146732  0.00700136  0.67415544  1  0.080657  0  0.098028  0.149406  0  1.004467  0
H  H81  1  0.53852990  0.49299799  0.17415405  1  0.080596  0  0.098024  0.149379  0  1.004531  0
H  H82  1  0.03853193  0.00700547  0.82584528  1  0.080822  0  0.098039  0.149407  0  1.004468  0
H  H83  1  0.46146260  0.49299940  0.32584698  1  0.080837  0  0.098043  0.149423  0  1.004442  0
H  H84  1  0.03853342  0.99300261  0.32584542  1  0.080702  0  0.098015  0.149376  0  1.00448  0
H  H85  1  0.46146768  0.50700136  0.82584460  1  0.080751  0  0.098033  0.149417  0  1.004434  0
H  H86  1  0.96146692  0.99299446  0.17415557  1  0.080706  0  0.098047  0.149449  0  1.004537  0
H  H87  1  0.53853119  0.50700342  0.67415554  1  0.08065  0  0.098011  0.149395  0  1.004497  0
H  H88  1  0.89664861  0.05059305  0.60692381  1  0.08683  0  0.097836  0.142371  0  1.013105  0
H  H89  1  0.60335004  0.44940780  0.10692272  1  0.086811  0  0.097824  0.14235  0  1.013091  0
H  H90  1  0.10335445  0.05059512  0.89307539  1  0.086837  0  0.097873  0.14242  0  1.013162  0
H  H91  1  0.39664496  0.44940768  0.39307817  1  0.086769  0  0.097832  0.142421  0  1.013125  0
H  H92  1  0.10334771  0.94941150  0.39307649  1  0.086823  0  0.097807  0.142373  0  1.013133  0
H  H93  1  0.39665070  0.55059329  0.89307649  1  0.086811  0  0.097805  0.14234  0  1.013145  0
H  H94  1  0.89664692  0.94940366  0.10692491  1  0.086817  0  0.097861  0.142416  0  1.013077  0
H  H95  1  0.60335198  0.55059398  0.60692490  1  0.086844  0  0.097858  0.14242  0  1.013101  0
H  H96  1  0.57974899  0.90845744  0.74740007  1  0.039212  0  0.097112  0.1385  0  1.018085  0
H  H97  1  0.92025336  0.59154301  0.24740054  1  0.039168  0  0.09711  0.138523  0  1.018075  0
H  H98  1  0.42025135  0.90845684  0.75259750  1  0.039452  0  0.097134  0.138585  0  1.017991  0
H  H99  1  0.07974361  0.59155381  0.25260192  1  0.039111  0  0.097121  0.138521  0  1.018172  0
H  H100  1  0.42025933  0.09154480  0.25259636  1  0.038886  0  0.097116  0.138547  0  1.018059  0
H  H101  1  0.07974675  0.40845000  0.75260253  1  0.039319  0  0.097152  0.13857  0  1.018135  0
H  H102  1  0.57974749  0.09154425  0.24740060  1  0.039189  0  0.097125  0.138529  0  1.018007  0
H  H103  1  0.92025397  0.40845824  0.74739839  1  0.03896  0  0.097124  0.138513  0  1.018051  0
H  H104  1  0.59692376  0.90398932  0.65011853  1  0.059661  0  0.097136  0.139012  0  1.006794  0
H  H105  1  0.90308009  0.59601195  0.15011959  1  0.059765  0  0.09717  0.139062  0  1.0068  0
H  H106  1  0.40307658  0.90398790  0.84987958  1  0.059697  0  0.097156  0.139072  0  1.006754  0
H  H107  1  0.09692004  0.59602078  0.34988398  1  0.059636  0  0.097109  0.138955  0  1.006832  0
H  H108  1  0.40308140  0.09601177  0.34987901  1  0.059787  0  0.097163  0.139044  0  1.00679  0
H  H109  1  0.09692318  0.40398337  0.84988458  1  0.059642  0  0.097159  0.139046  0  1.006805  0
H  H110  1  0.59692227  0.09601261  0.15011907  1  0.059724  0  0.097156  0.139051  0  1.006783  0
H  H111  1  0.90307880  0.40399069  0.65011688  1  0.059682  0  0.097135  0.139044  0  1.006804  0
H  H112  1  0.63541996  0.82982823  0.70955892  1  0.070689  0  0.098802  0.144925  0  0.987148  0
H  H113  1  0.86457995  0.67016978  0.20955974  1  0.070723  0  0.098812  0.144955  0  0.987161  0
H  H114  1  0.36457718  0.82982831  0.79043895  1  0.07068  0  0.09877  0.144927  0  0.987188  0
H  H115  1  0.13542590  0.67017439  0.29044297  1  0.070529  0  0.09876  0.14485  0  0.987366  0
H  H116  1  0.36457698  0.17016767  0.29043807  1  0.070727  0  0.098787  0.144946  0  0.98717  0
H  H117  1  0.13542584  0.32982669  0.79044388  1  0.070592  0  0.098781  0.144891  0  0.987288  0
H  H118  1  0.63542166  0.17017105  0.20955859  1  0.070701  0  0.098795  0.144917  0  0.987185  0
H  H119  1  0.86458179  0.32982959  0.70955623  1  0.070748  0  0.098777  0.144858  0  0.987187  0
H  H120  1  0.90672705  0.26720450  0.43986338  1  0.106325  0  0.10148  0.102528  0  1.043836  0
H  H121  1  0.59327648  0.23279348  0.93986231  1  0.106378  0  0.101479  0.102492  0  1.043797  0
H  H122  1  0.09327228  0.26720654  0.06013637  1  0.106433  0  0.101472  0.102563  0  1.043776  0
H  H123  1  0.40672794  0.23278873  0.56013306  1  0.106435  0  0.101484  0.102576  0  1.043839  0
H  H124  1  0.09327811  0.73279659  0.56013638  1  0.106239  0  0.101456  0.1025  0  1.043866  0
H  H125  1  0.40672995  0.76720934  0.06013412  1  0.106489  0  0.101508  0.102615  0  1.043842  0
H  H126  1  0.90673225  0.73279628  0.93986283  1  0.106578  0  0.101502  0.102584  0  1.043801  0
H  H127  1  0.59327343  0.76720774  0.43986227  1  0.106401  0  0.101469  0.102528  0  1.043753  0
H  H128  1  0.00497759  0.33384637  0.52811627  1  0.084387  0  0.102033  0.107471  0  1.010165  0
H  H129  1  0.49502208  0.16615167  0.02811352  1  0.084324  0  0.102037  0.107464  0  1.01013  0
H  H130  1  0.99502246  0.33384737  0.97188331  1  0.084364  0  0.102057  0.107506  0  1.010116  0
H  H131  1  0.50498036  0.16615304  0.47187871  1  0.084305  0  0.102063  0.107512  0  1.010119  0
H  H132  1  0.99502504  0.66615183  0.47188625  1  0.084333  0  0.102051  0.107486  0  1.010129  0
H  H133  1  0.50498624  0.83384595  0.97188347  1  0.084396  0  0.102039  0.107503  0  1.010124  0
H  H134  1  0.00498712  0.66615891  0.02811203  1  0.084503  0  0.102018  0.107514  0  1.010252  0
H  H135  1  0.49501975  0.83384863  0.52811441  1  0.084329  0  0.102042  0.107468  0  1.010131  0
H  H136  1  0.11269470  0.11509801  0.58808487  1  0.103054  0  0.103044  0.107887  0  1.014487  0
H  H137  1  0.38730672  0.38489794  0.08808691  1  0.103109  0  0.103015  0.107778  0  1.014549  0
H  H138  1  0.88730334  0.11509933  0.91191399  1  0.103055  0  0.103029  0.107855  0  1.01452  0
H  H139  1  0.61269520  0.38490260  0.41191598  1  0.103083  0  0.103024  0.10783  0  1.014446  0
H  H140  1  0.88730414  0.88489730  0.41191377  1  0.103215  0  0.10303  0.107819  0  1.014504  0
H  H141  1  0.61269654  0.61509796  0.91191450  1  0.103017  0  0.103027  0.107853  0  1.014504  0
H  H142  1  0.11269550  0.88490811  0.08808466  1  0.102961  0  0.103053  0.107856  0  1.014448  0
H  H143  1  0.38730617  0.61509965  0.58808598  1  0.1031  0  0.103018  0.107807  0  1.014487  0
H  H144  1  0.02175305  0.04995678  0.49477274  1  0.054958  0  0.101922  0.101014  0  1.04999  0
H  H145  1  0.47825054  0.45004119  0.99477775  1  0.055135  0  0.101929  0.101001  0  1.04995  0
H  H146  1  0.97824238  0.04995900  0.00522961  1  0.055162  0  0.101921  0.100982  0  1.050042  0
H  H147  1  0.52175209  0.45004148  0.50523160  1  0.055099  0  0.101917  0.100988  0  1.04999  0
H  H148  1  0.97824579  0.95004258  0.50522425  1  0.055169  0  0.101916  0.101006  0  1.049954  0
H  H149  1  0.52175146  0.54995644  0.00522201  1  0.054983  0  0.101915  0.101019  0  1.049961  0
H  H150  1  0.02175015  0.95004728  0.99477401  1  0.054887  0  0.101923  0.101072  0  1.049992  0
H  H151  1  0.47824928  0.54995845  0.49477368  1  0.054943  0  0.101924  0.101011  0  1.050017  0
H  H152  1  0.72993189  0.78571236  0.31370788  1  0.563666  0  0.315304  0.279964  0  1.007337  0
H  H153  1  0.77006715  0.71428602  0.81370311  1  0.563755  0  0.315324  0.279872  0  1.007587  0
H  H154  1  0.27006645  0.78571261  0.18629741  1  0.563683  0  0.315315  0.279845  0  1.007606  0
H  H155  1  0.22993183  0.71429030  0.68629714  1  0.563799  0  0.315331  0.279937  0  1.007449  0
H  H156  1  0.27006633  0.21428642  0.68629519  1  0.563758  0  0.315351  0.279943  0  1.007426  0
H  H157  1  0.22993296  0.28570988  0.18629443  1  0.563776  0  0.315303  0.27986  0  1.007484  0
H  H158  1  0.72993113  0.21429021  0.81370345  1  0.563796  0  0.31533  0.279907  0  1.007477  0
H  H159  1  0.77006638  0.28571252  0.31370151  1  0.56368  0  0.315325  0.279836  0  1.007612  0
H  H160  1  0.68139542  0.70059716  0.19981390  1  0.033123  0  0.096169  0.135475  0  1.009431  0
H  H161  1  0.81860452  0.79940139  0.69981429  1  0.032993  0  0.096176  0.135494  0  1.009423  0
H  H162  1  0.31860413  0.70059437  0.30018725  1  0.033089  0  0.096191  0.13558  0  1.009371  0
H  H163  1  0.18139703  0.79940374  0.80018624  1  0.033071  0  0.096195  0.135566  0  1.009342  0
H  H164  1  0.31860279  0.29940047  0.80018586  1  0.033076  0  0.096197  0.135566  0  1.009379  0
H  H165  1  0.18139938  0.20059912  0.30018878  1  0.033116  0  0.096207  0.135617  0  1.009331  0
H  H166  1  0.68139850  0.29940210  0.69981360  1  0.033042  0  0.096199  0.135573  0  1.009277  0
H  H167  1  0.81860434  0.20059504  0.19981240  1  0.033078  0  0.096187  0.135562  0  1.009381  0
H  H168  1  0.58077029  0.72239385  0.16027803  1  0.057515  0  0.095021  0.136164  0  1.009021  0
H  H169  1  0.91922974  0.77760861  0.66027595  1  0.057496  0  0.095012  0.136131  0  1.00903  0
H  H170  1  0.41922864  0.72239067  0.33972374  1  0.057482  0  0.095034  0.136201  0  1.009076  0
H  H171  1  0.08077243  0.77761221  0.83972561  1  0.05743  0  0.095064  0.136205  0  1.008957  0
H  H172  1  0.41922729  0.27760724  0.83972338  1  0.057537  0  0.09504  0.136158  0  1.009065  0
H  H173  1  0.08077605  0.22239190  0.33972656  1  0.057489  0  0.095054  0.136193  0  1.00908  0
H  H174  1  0.58077399  0.27760985  0.66027380  1  0.057495  0  0.095041  0.136152  0  1.009039  0
H  H175  1  0.91922894  0.22239003  0.16027469  1  0.057473  0  0.095061  0.136198  0  1.00904  0
H  H176  1  0.58807129  0.66377339  0.24035278  1  0.04643  0  0.095967  0.139552  0  0.990345  0
H  H177  1  0.91192792  0.83622531  0.74035367  1  0.046431  0  0.095961  0.139539  0  0.990392  0
H  H178  1  0.41192761  0.66377281  0.25964715  1  0.046123  0  0.095976  0.139586  0  0.99035  0
H  H179  1  0.08807365  0.83622690  0.75964699  1  0.046179  0  0.095959  0.139576  0  0.990403  0
H  H180  1  0.41192629  0.33622712  0.75964808  1  0.04614  0  0.09596  0.139539  0  0.990421  0
H  H181  1  0.08807661  0.16377174  0.25965162  1  0.046184  0  0.095926  0.13946  0  0.990425  0
H  H182  1  0.58807502  0.33622828  0.74035094  1  0.046249  0  0.095961  0.139513  0  0.990416  0
H  H183  1  0.91192835  0.16377131  0.24035056  1  0.046091  0  0.09599  0.139564  0  0.990367  0
H  H184  1  0.52566941  0.95403827  0.41693182  1  0.024925  0  0.095202  0.136333  0  0.987425  0
H  H185  1  0.97432748  0.54596220  0.91693110  1  0.024936  0  0.095215  0.136322  0  0.987458  0
H  H186  1  0.47432964  0.95403651  0.08307236  1  0.024841  0  0.095189  0.136318  0  0.987463  0
H  H187  1  0.02567205  0.54596257  0.58307248  1  0.02484  0  0.095179  0.1363  0  0.987507  0
H  H188  1  0.47432943  0.04596224  0.58306848  1  0.024926  0  0.095216  0.136306  0  0.987436  0
H  H189  1  0.02566884  0.45403542  0.08307086  1  0.024814  0  0.09518  0.136295  0  0.987485  0
H  H190  1  0.52566731  0.04596688  0.91693016  1  0.024768  0  0.095178  0.136285  0  0.987508  0
H  H191  1  0.97432932  0.45403794  0.41692672  1  0.024866  0  0.095173  0.13628  0  0.987496  0
H  H192  1  0.45427022  0.95157535  0.34101331  1  0.062107  0  0.094487  0.137504  0  1.003949  0
H  H193  1  0.04572831  0.54842349  0.84101340  1  0.062138  0  0.094493  0.137505  0  1.00398  0
H  H194  1  0.54572882  0.95157505  0.15899087  1  0.062321  0  0.094486  0.137498  0  1.003963  0
H  H195  1  0.95427185  0.54842451  0.65899074  1  0.062339  0  0.094487  0.137488  0  1.00399  0
H  H196  1  0.54572988  0.04842401  0.65898644  1  0.062537  0  0.094459  0.137468  0  1.003961  0
H  H197  1  0.95426927  0.45157183  0.15899078  1  0.062295  0  0.09448  0.137488  0  1.00392  0
H  H198  1  0.45426749  0.04842950  0.84101220  1  0.062695  0  0.094472  0.137455  0  1.003909  0
H  H199  1  0.04572889  0.45157542  0.34100791  1  0.062302  0  0.094481  0.137491  0  1.003961  0
H  H200  1  0.54497678  0.01186101  0.33834534  1  0.036312  0  0.090336  0.126587  0  1.028592  0
H  H201  1  0.95502257  0.48813719  0.83834499  1  0.036321  0  0.090346  0.126601  0  1.028505  0
H  H202  1  0.45502242  0.01186068  0.16165855  1  0.036456  0  0.090346  0.126592  0  1.02858  0
H  H203  1  0.04497819  0.48813784  0.66165841  1  0.036523  0  0.090364  0.1266  0  1.028541  0
H  H204  1  0.45502333  0.98813892  0.66165386  1  0.036327  0  0.090343  0.126578  0  1.028572  0
H  H205  1  0.04497564  0.51185813  0.16165808  1  0.03648  0  0.090343  0.126558  0  1.028661  0
H  H206  1  0.54497264  0.98814271  0.83834397  1  0.03655  0  0.090334  0.126534  0  1.028604  0
H  H207  1  0.95502192  0.51186094  0.33834080  1  0.036526  0  0.090359  0.126589  0  1.028589  0
C  C208  1  0.72564612  0.12378473  0.56360444  1  -0.042074  0  -0.235765  -0.429798  0  3.952416  0
C  C209  1  0.77435642  0.37621539  0.06360113  1  -0.04212  0  -0.235661  -0.429574  0  3.952196  0
C  C210  1  0.27435256  0.12378529  0.93639445  1  -0.042082  0  -0.235777  -0.429786  0  3.952374  0
C  C211  1  0.22564170  0.37621304  0.43639897  1  -0.042029  0  -0.235594  -0.429487  0  3.952207  0
C  C212  1  0.27435209  0.87621001  0.43639421  1  -0.041766  0  -0.235671  -0.429583  0  3.952058  0
C  C213  1  0.22565063  0.62378570  0.93639697  1  -0.041961  0  -0.235738  -0.429682  0  3.952281  0
C  C214  1  0.72564250  0.87621407  0.06360143  1  -0.041966  0  -0.235634  -0.429594  0  3.952262  0
C  C215  1  0.77435651  0.62378574  0.56360244  1  -0.042069  0  -0.235642  -0.429632  0  3.952196  0
C  C216  1  0.72727246  0.04235750  0.53706730  1  0.441581  0  0.099018  0.21106  0  4.007239  0
C  C217  1  0.77272825  0.45764252  0.03706481  1  0.441799  0  0.098892  0.210814  0  4.007426  0
C  C218  1  0.27272618  0.04235758  0.96293188  1  0.441571  0  0.099004  0.211033  0  4.007287  0
C  C219  1  0.22726865  0.45764143  0.46293500  1  0.44176  0  0.0989  0.210812  0  4.007313  0
C  C220  1  0.27272891  0.95763897  0.46293079  1  0.441661  0  0.099033  0.210955  0  4.007172  0
C  C221  1  0.22727312  0.54235741  0.96293439  1  0.442082  0  0.098959  0.210895  0  4.007199  0
C  C222  1  0.72727267  0.95764178  0.03706622  1  0.441653  0  0.098941  0.210903  0  4.007297  0
C  C223  1  0.77272704  0.54235735  0.53706697  1  0.441579  0  0.098939  0.210922  0  4.00727  0
C  C224  1  0.74028138  0.97449320  0.57874928  1  0.055272  0  -0.035782  -0.144666  0  4.071345  0
C  C225  1  0.75971949  0.52550665  0.07874706  1  0.054975  0  -0.035744  -0.144563  0  4.071284  0
C  C226  1  0.25971837  0.97449370  0.92125017  1  0.055149  0  -0.035787  -0.144668  0  4.07141  0
C  C227  1  0.24027366  0.52550657  0.42125186  1  0.055029  0  -0.03572  -0.144541  0  4.07115  0
C  C228  1  0.25972631  0.02550327  0.42124882  1  0.055007  0  -0.035801  -0.14472  0  4.071504  0
C  C229  1  0.24027872  0.47449213  0.92125269  1  0.054946  0  -0.035766  -0.144588  0  4.071347  0
C  C230  1  0.74027921  0.02550565  0.07874848  1  0.054984  0  -0.035803  -0.144626  0  4.071395  0
C  C231  1  0.75972013  0.47449452  0.57874900  1  0.055253  0  -0.035794  -0.144682  0  4.071477  0
C  C232  1  0.73298158  0.91332896  0.52811266  1  0.43471  0  0.107795  0.212929  0  3.971684  0
C  C233  1  0.76702004  0.58667130  0.02811063  1  0.434694  0  0.107765  0.21292  0  3.971597  0
C  C234  1  0.26701687  0.91333022  0.97188658  1  0.434699  0  0.107798  0.2129  0  3.971668  0
C  C235  1  0.23297440  0.58667081  0.47188960  1  0.43471  0  0.107745  0.212942  0  3.971576  0
C  C236  1  0.26702927  0.08666636  0.47188599  1  0.434625  0  0.107957  0.213195  0  3.971585  0
C  C237  1  0.23297501  0.41332921  0.97188857  1  0.434759  0  0.107795  0.212983  0  3.971717  0
C  C238  1  0.73297818  0.08666972  0.02811206  1  0.434793  0  0.107855  0.213013  0  3.971428  0
C  C239  1  0.76702255  0.41333028  0.52811292  1  0.434779  0  0.107833  0.212969  0  3.971551  0
C  C240  1  0.73974833  0.82839287  0.53860437  1  -0.049469  0  -0.231386  -0.431074  0  3.955547  0
C  C241  1  0.76025326  0.67160684  0.03860152  1  -0.049513  0  -0.231399  -0.431103  0  3.955632  0
C  C242  1  0.26025008  0.82839409  0.96139571  1  -0.049966  0  -0.231393  -0.431008  0  3.955449  0
C  C243  1  0.23974122  0.67160633  0.46139954  1  -0.049303  0  -0.231353  -0.431253  0  3.955676  0
C  C244  1  0.26026504  0.17160360  0.46139594  1  -0.049172  0  -0.231475  -0.431379  0  3.955542  0
C  C245  1  0.23973990  0.32839309  0.96139879  1  -0.049294  0  -0.231371  -0.431236  0  3.955742  0
C  C246  1  0.73974498  0.17160584  0.03860294  1  -0.04946  0  -0.231339  -0.431048  0  3.955437  0
C  C247  1  0.76025825  0.32839361  0.53860353  1  -0.049448  0  -0.231374  -0.431129  0  3.955506  0
C  C248  1  0.90348795  0.04106060  0.66649315  1  -0.079193  0  -0.230977  -0.430288  0  3.950351  0
C  C249  1  0.59651118  0.45894334  0.16649209  1  -0.079233  0  -0.230982  -0.430259  0  3.950426  0
C  C250  1  0.09651384  0.04106245  0.83350658  1  -0.079189  0  -0.231036  -0.430377  0  3.950536  0
C  C251  1  0.40348320  0.45894244  0.33350938  1  -0.079028  0  -0.231009  -0.430469  0  3.950432  0
C  C252  1  0.09651278  0.95894626  0.33350882  1  -0.079111  0  -0.230977  -0.430313  0  3.95051  0
C  C253  1  0.40348703  0.54105948  0.83350821  1  -0.079194  0  -0.23097  -0.430287  0  3.950432  0
C  C254  1  0.90348753  0.95893921  0.16649428  1  -0.07901  0  -0.231014  -0.430379  0  3.950436  0
C  C255  1  0.59651312  0.54105980  0.66649314  1  -0.079044  0  -0.230966  -0.430374  0  3.95044  0
C  C256  1  0.82772628  0.00034820  0.69537974  1  0.416542  0  0.113585  0.223267  0  3.962501  0
C  C257  1  0.67227278  0.49965469  0.19537757  1  0.41633  0  0.113498  0.223102  0  3.962766  0
C  C258  1  0.17227423  0.00034883  0.80461820  1  0.416639  0  0.113624  0.223322  0  3.962463  0
C  C259  1  0.32772161  0.49965250  0.30462182  1  0.416272  0  0.113572  0.223234  0  3.962678  0
C  C260  1  0.17227509  0.99965520  0.30462223  1  0.416423  0  0.113502  0.223078  0  3.962825  0
C  C261  1  0.32772543  0.50034698  0.80462218  1  0.416313  0  0.113517  0.223087  0  3.96277  0
C  C262  1  0.82772588  0.99965284  0.19537990  1  0.416569  0  0.113578  0.223225  0  3.962598  0
C  C263  1  0.67227470  0.50034628  0.69537904  1  0.41635  0  0.113552  0.223143  0  3.962668  0
C  C264  1  0.75735299  0.97003059  0.65781737  1  0.005823  0  -0.031373  -0.136892  0  4.054616  0
C  C265  1  0.74264579  0.52997013  0.15781576  1  0.006094  0  -0.031392  -0.136886  0  4.054763  0
C  C266  1  0.24264612  0.97002965  0.84218150  1  0.005869  0  -0.031441  -0.136962  0  4.054618  0
C  C267  1  0.25734862  0.52997035  0.34218484  1  0.006094  0  -0.031371  -0.136894  0  4.054589  0
C  C268  1  0.24264965  0.02996877  0.34218183  1  0.006077  0  -0.031365  -0.136762  0  4.054612  0
C  C269  1  0.25735242  0.47003038  0.84218455  1  0.006074  0  -0.031368  -0.136829  0  4.054666  0
C  C270  1  0.75735335  0.02996971  0.15781714  1  0.005879  0  -0.031408  -0.136957  0  4.05469  0
C  C271  1  0.74264643  0.47002901  0.65781657  1  0.006097  0  -0.031374  -0.136742  0  4.054598  0
C  C272  1  0.70609294  0.93553863  0.71271299  1  0.48775  0  0.104014  0.214513  0  4.011814  0
C  C273  1  0.79390886  0.56445939  0.21271194  1  0.487644  0  0.103992  0.214519  0  4.011798  0
C  C274  1  0.29390678  0.93554041  0.78728633  1  0.487738  0  0.104057  0.214536  0  4.011667  0
C  C275  1  0.20608810  0.56446286  0.28728932  1  0.487573  0  0.103966  0.214505  0  4.011762  0
C  C276  1  0.29391221  0.06445726  0.28728511  1  0.487616  0  0.103955  0.214415  0  4.011743  0
C  C277  1  0.20609062  0.43553881  0.78728947  1  0.487583  0  0.103999  0.214553  0  4.01194  0
C  C278  1  0.70609143  0.06446010  0.21271287  1  0.487689  0  0.104027  0.21458  0  4.011749  0
C  C279  1  0.79390759  0.43553938  0.71271154  1  0.48761  0  0.10397  0.214458  0  4.011869  0
C  C280  1  0.62520159  0.89243956  0.70429983  1  -0.053132  0  -0.233061  -0.432934  0  3.961338  0
C  C281  1  0.87480086  0.60755958  0.20430044  1  -0.053215  0  -0.233045  -0.433012  0  3.961288  0
C  C282  1  0.37479811  0.89243967  0.79569824  1  -0.053549  0  -0.233086  -0.433129  0  3.961296  0
C  C283  1  0.12519991  0.60756882  0.29570152  1  -0.053103  0  -0.233013  -0.432858  0  3.961411  0
C  C284  1  0.37480167  0.10755979  0.29569605  1  -0.053138  0  -0.233059  -0.433039  0  3.961245  0
C  C285  1  0.12520177  0.39243516  0.79570208  1  -0.053128  0  -0.233106  -0.433055  0  3.96154  0
C  C286  1  0.62520010  0.10756026  0.20429986  1  -0.053175  0  -0.233041  -0.432974  0  3.961202  0
C  C287  1  0.87480020  0.39244208  0.70429768  1  -0.053121  0  -0.232987  -0.432875  0  3.961307  0
C  C288  1  0.89464800  0.11420405  0.41403820  1  1.566882  0  0.206911  0.56767  0  4.211258  0
C  C289  1  0.60535559  0.38579326  0.91403982  1  1.566874  0  0.206953  0.567727  0  4.211033  0
C  C290  1  0.10534999  0.11420734  0.08596326  1  1.566908  0  0.206931  0.567662  0  4.21135  0
C  C291  1  0.39464575  0.38578975  0.58596379  1  1.566751  0  0.207043  0.567778  0  4.210763  0
C  C292  1  0.10535084  0.88579588  0.58596101  1  1.567255  0  0.206903  0.567713  0  4.211174  0
C  C293  1  0.39464578  0.61421013  0.08596159  1  1.566815  0  0.207038  0.56778  0  4.210806  0
C  C294  1  0.89464759  0.88579605  0.91403870  1  1.567097  0  0.206895  0.56769  0  4.211254  0
C  C295  1  0.60535372  0.61420614  0.41403873  1  1.566949  0  0.206948  0.56773  0  4.211085  0
C  C296  1  0.95731243  0.15429051  0.46279617  1  -0.073138  0  -0.017694  -0.034387  0  3.980436  0
C  C297  1  0.54268915  0.34570698  0.96279612  1  -0.073067  0  -0.017696  -0.034424  0  3.980358  0
C  C298  1  0.04268432  0.15429360  0.03720542  1  -0.073242  0  -0.017633  -0.03432  0  3.980383  0
C  C299  1  0.45731217  0.34570390  0.53720460  1  -0.072975  0  -0.01774  -0.034382  0  3.980416  0
C  C300  1  0.04268578  0.84570885  0.53720359  1  -0.073218  0  -0.017711  -0.034437  0  3.980467  0
C  C301  1  0.45731349  0.65429469  0.03720087  1  -0.072967  0  -0.01768  -0.034224  0  3.980313  0
C  C302  1  0.95731516  0.84571095  0.96279544  1  -0.072772  0  -0.017706  -0.034391  0  3.98046  0
C  C303  1  0.54268667  0.65429373  0.46279515  1  -0.073186  0  -0.017719  -0.034441  0  3.980429  0
C  C304  1  0.95259072  0.23457807  0.47200224  1  -0.092045  0  -0.089393  -0.105252  0  3.993902  0
C  C305  1  0.54740957  0.26541830  0.97200192  1  -0.092144  0  -0.089395  -0.105195  0  3.993925  0
C  C306  1  0.04740733  0.23458113  0.02799850  1  -0.092148  0  -0.089466  -0.105377  0  3.994021  0
C  C307  1  0.45259170  0.26541749  0.52799632  1  -0.092141  0  -0.089489  -0.105473  0  3.99407  0
C  C308  1  0.04741065  0.76542071  0.52799807  1  -0.092023  0  -0.089359  -0.105215  0  3.993857  0
C  C309  1  0.45259243  0.73457933  0.02799673  1  -0.092168  0  -0.089483  -0.105492  0  3.994044  0
C  C310  1  0.95259467  0.76542457  0.97199904  1  -0.092546  0  -0.089342  -0.105132  0  3.993891  0
C  C311  1  0.54740777  0.73458186  0.47200066  1  -0.09215  0  -0.089421  -0.105268  0  3.993818  0
C  C312  1  0.00625275  0.27139081  0.52142511  1  -0.085065  0  -0.090544  -0.104205  0  3.994459  0
C  C313  1  0.49374631  0.22860663  0.02142312  1  -0.084972  0  -0.09056  -0.104249  0  3.994559  0
C  C314  1  0.99374664  0.27139183  0.97857537  1  -0.085083  0  -0.090528  -0.10419  0  3.994541  0
C  C315  1  0.50625364  0.22860687  0.47857208  1  -0.085057  0  -0.090484  -0.104172  0  3.994416  0
C  C316  1  0.99374736  0.72860739  0.47857575  1  -0.085118  0  -0.090569  -0.104268  0  3.994431  0
C  C317  1  0.50625506  0.77139157  0.97857332  1  -0.085046  0  -0.090493  -0.104241  0  3.99433  0
C  C318  1  0.00625789  0.72861157  0.02142273  1  -0.085438  0  -0.090594  -0.104469  0  3.994586  0
C  C319  1  0.49374458  0.77139307  0.52142270  1  -0.08494  0  -0.090499  -0.104176  0  3.994445  0
C  C320  1  0.06810557  0.14827839  0.55503382  1  -0.008191  0  -0.081872  -0.0859  0  3.96498  0
C  C321  1  0.43189467  0.35171744  0.05503511  1  -0.007975  0  -0.081824  -0.085686  0  3.964942  0
C  C322  1  0.93189312  0.14827984  0.94496681  1  -0.00812  0  -0.081873  -0.085791  0  3.965059  0
C  C323  1  0.56810470  0.35171989  0.44496712  1  -0.007987  0  -0.081827  -0.085771  0  3.96507  0
C  C324  1  0.93189264  0.85171692  0.44496593  1  -0.007988  0  -0.081871  -0.08572  0  3.964889  0
C  C325  1  0.56810544  0.64827903  0.94496409  1  -0.008203  0  -0.08184  -0.085829  0  3.965044  0
C  C326  1  0.06810509  0.85172702  0.05503405  1  -0.007927  0  -0.081845  -0.085786  0  3.964966  0
C  C327  1  0.43189477  0.64828178  0.55503319  1  -0.007903  0  -0.081904  -0.085847  0  3.964909  0
C  C328  1  0.01690755  0.11188320  0.50311635  1  -0.009918  0  -0.084355  -0.098838  0  3.97044  0
C  C329  1  0.48309471  0.38811303  0.00311877  1  -0.009975  0  -0.084348  -0.098847  0  3.970414  0
C  C330  1  0.98308923  0.11188601  0.99688582  1  -0.009871  0  -0.084332  -0.098838  0  3.970541  0
C  C331  1  0.51690784  0.38811333  0.49688469  1  -0.009986  0  -0.084309  -0.098808  0  3.970483  0
C  C332  1  0.98309193  0.88811385  0.49688341  1  -0.010087  0  -0.084338  -0.09886  0  3.970452  0
C  C333  1  0.51690603  0.61188287  0.99688154  1  -0.009935  0  -0.084343  -0.09889  0  3.970281  0
C  C334  1  0.01690709  0.88812142  0.00311559  1  -0.010038  0  -0.084368  -0.098951  0  3.97054  0
C  C335  1  0.48309353  0.61188545  0.50311507  1  -0.010035  0  -0.084285  -0.098795  0  3.970432  0
C  C336  1  0.12165814  0.26882726  0.61665990  1  1.560645  0  0.208953  0.581847  0  4.217749  0
C  C337  1  0.37834131  0.23116879  0.11665371  1  1.560256  0  0.208975  0.581785  0  4.217546  0
C  C338  1  0.87834377  0.26882847  0.88334168  1  1.560658  0  0.208909  0.581784  0  4.217597  0
C  C339  1  0.62165484  0.23117797  0.38333873  1  1.56044  0  0.208894  0.581801  0  4.217382  0
C  C340  1  0.87834070  0.73116806  0.38334649  1  1.560332  0  0.208862  0.581689  0  4.217585  0
C  C341  1  0.62165563  0.76882364  0.88334107  1  1.560423  0  0.20896  0.581855  0  4.21737  0
C  C342  1  0.12165444  0.73117897  0.11665752  1  1.560442  0  0.208907  0.581749  0  4.217509  0
C  C343  1  0.37834274  0.76883004  0.61665715  1  1.5602  0  0.208908  0.581752  0  4.21768  0
C  C344  1  0.06310343  0.22833456  0.56442343  1  0.018101  0  -0.020647  -0.044902  0  3.987793  0
C  C345  1  0.43689552  0.27166246  0.06442114  1  0.018223  0  -0.020653  -0.04488  0  3.987786  0
C  C346  1  0.93689467  0.22833541  0.93557580  1  0.018058  0  -0.020605  -0.04489  0  3.987839  0
C  C347  1  0.56310445  0.27166833  0.43557530  1  0.017994  0  -0.020658  -0.044852  0  3.987868  0
C  C348  1  0.93689667  0.77166133  0.43557853  1  0.018384  0  -0.020645  -0.044889  0  3.987768  0
C  C349  1  0.56310459  0.72832998  0.93557309  1  0.017968  0  -0.02069  -0.04487  0  3.987888  0
C  C350  1  0.06310607  0.77167376  0.06442230  1  0.01846  0  -0.020628  -0.044792  0  3.987727  0
C  C351  1  0.43689313  0.72833795  0.56442224  1  0.018255  0  -0.020658  -0.044832  0  3.987809  0
C  C352  1  0.61534438  0.71442457  0.21239171  1  -0.016841  0  -0.231527  -0.416854  0  3.961044  0
C  C353  1  0.88465616  0.78557576  0.71239193  1  -0.016525  0  -0.231512  -0.416787  0  3.961168  0
C  C354  1  0.38465517  0.71442234  0.28761060  1  -0.016279  0  -0.231568  -0.417005  0  3.961115  0
C  C355  1  0.11534539  0.78557804  0.78760911  1  -0.016286  0  -0.231604  -0.417034  0  3.961054  0
C  C356  1  0.38465320  0.28557594  0.78760805  1  -0.016545  0  -0.231564  -0.416911  0  3.961229  0
C  C357  1  0.11534837  0.21442417  0.28761280  1  -0.016371  0  -0.231573  -0.416913  0  3.961157  0
C  C358  1  0.61534746  0.28557644  0.71239026  1  -0.016334  0  -0.231588  -0.416893  0  3.961041  0
C  C359  1  0.88465472  0.21442074  0.21239009  1  -0.016355  0  -0.23163  -0.416979  0  3.961054  0
C  C360  1  0.60836977  0.78469378  0.25928118  1  0.382387  0  0.098525  0.197102  0  3.994235  0
C  C361  1  0.89163192  0.71530556  0.75927895  1  0.381854  0  0.098414  0.1969  0  3.994316  0
C  C362  1  0.39162983  0.78469139  0.24072190  1  0.382135  0  0.098486  0.197015  0  3.994137  0
C  C363  1  0.10836958  0.71530709  0.74072352  1  0.382259  0  0.098522  0.197105  0  3.99423  0
C  C364  1  0.39162971  0.21530673  0.74071912  1  0.382337  0  0.098453  0.197011  0  3.994329  0
C  C365  1  0.10837071  0.28469264  0.24072301  1  0.382274  0  0.098481  0.196926  0  3.994197  0
C  C366  1  0.60836838  0.21530797  0.75927785  1  0.382207  0  0.098448  0.196958  0  3.994245  0
C  C367  1  0.89163116  0.28469111  0.25927789  1  0.382394  0  0.098406  0.196922  0  3.994135  0
C  C368  1  0.54071073  0.83599128  0.26896382  1  0.079788  0  -0.040654  -0.148876  0  4.086757  0
C  C369  1  0.95928904  0.66400810  0.76896240  1  0.080078  0  -0.040588  -0.148746  0  4.086633  0
C  C370  1  0.45928826  0.83599004  0.23103999  1  0.034796  0  -0.040663  -0.148876  0  4.08655  0
C  C371  1  0.04071370  0.66400899  0.73104101  1  0.034789  0  -0.040702  -0.1489  0  4.08668  0
C  C372  1  0.45928812  0.16401039  0.73103760  1  0.079777  0  -0.040583  -0.148805  0  4.086645  0
C  C373  1  0.04071233  0.33598953  0.23104012  1  0.034655  0  -0.040679  -0.148876  0  4.086677  0
C  C374  1  0.54071121  0.16401105  0.76896032  1  0.034508  0  -0.040659  -0.148873  0  4.086776  0
C  C375  1  0.95928893  0.33598921  0.26896095  1  0.079981  0  -0.040595  -0.148808  0  4.086601  0
C  C376  1  0.56903910  0.88993168  0.32244257  1  0.42777  0  0.089758  0.189487  0  4.038203  0
C  C377  1  0.93095928  0.61006731  0.82244103  1  0.427961  0  0.089714  0.189368  0  4.038  0
C  C378  1  0.43095865  0.88993139  0.17756086  1  0.4279  0  0.089709  0.189404  0  4.038104  0
C  C379  1  0.06904218  0.61006745  0.67756165  1  0.427907  0  0.0897  0.189317  0  4.038001  0
C  C380  1  0.43096037  0.11006941  0.67755829  1  0.427822  0  0.089726  0.189436  0  4.037973  0
C  C381  1  0.06904083  0.38992916  0.17755928  1  0.428069  0  0.089751  0.189408  0  4.038145  0
C  C382  1  0.56903830  0.11007143  0.82244110  1  0.4279  0  0.089707  0.189318  0  4.038108  0
C  C383  1  0.93095919  0.38993076  0.32243865  1  0.42803  0  0.089697  0.189338  0  4.038058  0
C  C384  1  0.52120545  0.95524300  0.35629825  1  -0.031178  0  -0.235169  -0.415379  0  3.958059  0
C  C385  1  0.97879348  0.54475668  0.85629807  1  -0.031352  0  -0.235207  -0.415375  0  3.958036  0
C  C386  1  0.47879297  0.95524146  0.14370539  1  -0.031613  0  -0.235181  -0.415371  0  3.958126  0
C  C387  1  0.02120668  0.54475783  0.64370495  1  -0.031695  0  -0.235193  -0.41534  0  3.958126  0
C  C388  1  0.47879529  0.04475751  0.64370150  1  -0.031595  0  -0.235165  -0.41529  0  3.958018  0
C  C389  1  0.02120663  0.45524037  0.14370500  1  -0.031588  0  -0.235167  -0.415319  0  3.958181  0
C  C390  1  0.52120398  0.04476078  0.85629713  1  -0.0319  0  -0.235118  -0.415181  0  3.958095  0
C  C391  1  0.97879406  0.45524210  0.35629425  1  -0.031688  0  -0.235171  -0.415296  0  3.958119  0
N  N392  1  0.71374907  0.02316301  0.46566599  1  -0.795239  0  -0.269406  -0.252445  0  3.494994  0
N  N393  1  0.78625187  0.47683737  0.96566315  1  -0.79529  0  -0.26933  -0.252324  0  3.494968  0
N  N394  1  0.28625014  0.02316273  0.03433352  1  -0.795207  0  -0.269347  -0.252344  0  3.495017  0
N  N395  1  0.21374699  0.47683707  0.53433744  1  -0.795319  0  -0.269302  -0.252233  0  3.49513  0
N  N396  1  0.28625230  0.97683173  0.53433321  1  -0.795339  0  -0.269423  -0.252423  0  3.495438  0
N  N397  1  0.21374824  0.52316429  0.03433661  1  -0.795363  0  -0.269334  -0.252351  0  3.495005  0
N  N398  1  0.71374871  0.97683720  0.96566458  1  -0.795276  0  -0.269328  -0.252311  0  3.494978  0
N  N399  1  0.78625122  0.52316344  0.46566452  1  -0.795253  0  -0.269343  -0.252352  0  3.494883  0
N  N400  1  0.71823671  0.94516019  0.46140285  1  -0.840852  0  -0.275582  -0.130964  0  3.693692  0
N  N401  1  0.78176512  0.55483987  0.96139975  1  -0.84091  0  -0.275618  -0.13105  0  3.693618  0
N  N402  1  0.28176296  0.94516108  0.03859688  1  -0.840838  0  -0.275612  -0.131014  0  3.693784  0
N  N403  1  0.21823188  0.55483842  0.53860109  1  -0.840962  0  -0.275621  -0.131054  0  3.693872  0
N  N404  1  0.28177224  0.05483340  0.53859690  1  -0.84079  0  -0.275663  -0.13102  0  3.694333  0
N  N405  1  0.21823120  0.44516180  0.03859945  1  -0.840948  0  -0.275599  -0.13097  0  3.693864  0
N  N406  1  0.71823398  0.05483886  0.96140121  1  -0.840983  0  -0.275655  -0.131081  0  3.693785  0
N  N407  1  0.78176696  0.44516036  0.46140143  1  -0.840941  0  -0.275606  -0.130994  0  3.693678  0
N  N408  1  0.74315294  0.94525942  0.77891976  1  -0.786262  0  -0.275254  -0.257398  0  3.569551  0
N  N409  1  0.75684997  0.55473825  0.27891875  1  -0.786236  0  -0.275257  -0.257456  0  3.569476  0
N  N410  1  0.25684869  0.94526210  0.72107849  1  -0.786373  0  -0.275247  -0.257352  0  3.569426  0
N  N411  1  0.24314761  0.55473920  0.22108193  1  -0.786299  0  -0.275211  -0.257407  0  3.56977  0
N  N412  1  0.25685033  0.05473820  0.22107944  1  -0.786394  0  -0.275248  -0.257393  0  3.569522  0
N  N413  1  0.24314951  0.44526053  0.72108211  1  -0.786217  0  -0.275213  -0.25739  0  3.569555  0
N  N414  1  0.74315016  0.05473841  0.27892016  1  -0.786279  0  -0.275291  -0.257487  0  3.56962  0
N  N415  1  0.75684933  0.44525901  0.77891893  1  -0.786281  0  -0.275267  -0.257473  0  3.569591  0
N  N416  1  0.81610783  0.98454024  0.76768820  1  -0.859079  0  -0.281463  -0.147975  0  3.674386  0
N  N417  1  0.68389321  0.51546028  0.26768610  1  -0.85907  0  -0.281379  -0.147759  0  3.674295  0
N  N418  1  0.18389381  0.98454178  0.73231017  1  -0.859153  0  -0.281515  -0.148027  0  3.67437  0
N  N419  1  0.31610183  0.51545956  0.23231280  1  -0.858971  0  -0.28147  -0.147903  0  3.674526  0
N  N420  1  0.18389291  0.01546200  0.23231266  1  -0.858989  0  -0.281394  -0.147789  0  3.674298  0
N  N421  1  0.31610500  0.48454023  0.73231366  1  -0.859054  0  -0.28142  -0.147784  0  3.67436  0
N  N422  1  0.81610503  0.01545931  0.26768792  1  -0.859058  0  -0.281435  -0.147876  0  3.674346  0
N  N423  1  0.68389449  0.48453922  0.76768751  1  -0.859003  0  -0.281433  -0.147817  0  3.674357  0
N  N424  1  0.67107019  0.80985127  0.30391769  1  -0.844931  0  -0.282503  -0.143994  0  3.707693  0
N  N425  1  0.82892823  0.69014938  0.80391494  1  -0.84491  0  -0.282493  -0.1439  0  3.707736  0
N  N426  1  0.32892815  0.80984928  0.19608382  1  -0.845179  0  -0.282556  -0.143971  0  3.707844  0
N  N427  1  0.17107011  0.69015020  0.69608634  1  -0.844982  0  -0.282522  -0.144029  0  3.707838  0
N  N428  1  0.32892991  0.19014808  0.69608317  1  -0.844992  0  -0.282518  -0.144021  0  3.70794  0
N  N429  1  0.17107188  0.30984940  0.19608426  1  -0.844975  0  -0.282459  -0.143795  0  3.707696  0
N  N430  1  0.67107069  0.19015123  0.80391538  1  -0.844801  0  -0.282442  -0.143839  0  3.707624  0
N  N431  1  0.82892747  0.30984916  0.30391452  1  -0.844896  0  -0.282484  -0.143845  0  3.707806  0
N  N432  1  0.64863631  0.87329707  0.34285895  1  -0.747425  0  -0.243726  -0.253894  0  3.306651  0
N  N433  1  0.85136139  0.62670198  0.84285706  1  -0.747418  0  -0.24368  -0.253763  0  3.306402  0
N  N434  1  0.35136270  0.87329668  0.15714332  1  -0.747404  0  -0.243638  -0.253729  0  3.306463  0
N  N435  1  0.14863755  0.62670324  0.65714402  1  -0.747738  0  -0.243643  -0.253692  0  3.306428  0
N  N436  1  0.35136253  0.12670228  0.65714191  1  -0.747356  0  -0.243705  -0.253797  0  3.306477  0
N  N437  1  0.14863682  0.37329449  0.15714214  1  -0.74784  0  -0.243718  -0.25379  0  3.306649  0
N  N438  1  0.64863551  0.12670556  0.84285809  1  -0.747763  0  -0.243708  -0.253768  0  3.306406  0
N  N439  1  0.85136130  0.37329670  0.34285518  1  -0.747736  0  -0.243629  -0.253712  0  3.30641  0
O  O440  1  0.82602771  0.15281837  0.40268957  1  -1.177098  0  -0.333245  -0.557772  0  2.352231  0
O  O441  1  0.67397590  0.34717891  0.90269204  1  -1.177244  0  -0.333283  -0.557814  0  2.352295  0
O  O442  1  0.17397093  0.15282000  0.09730870  1  -1.177312  0  -0.333256  -0.557765  0  2.352423  0
O  O443  1  0.32602416  0.34717598  0.59730979  1  -1.177333  0  -0.333301  -0.557775  0  2.352268  0
O  O444  1  0.17397176  0.84718157  0.59730798  1  -1.177425  0  -0.3332  -0.557742  0  2.352235  0
O  O445  1  0.32602421  0.65282449  0.09730826  1  -1.177325  0  -0.333321  -0.557838  0  2.352242  0
O  O446  1  0.82602729  0.84717994  0.90269327  1  -1.177323  0  -0.333234  -0.557781  0  2.352199  0
O  O447  1  0.67397658  0.65282106  0.40269384  1  -1.177206  0  -0.33327  -0.557797  0  2.352277  0
O  O448  1  0.91000497  0.04728628  0.38983020  1  -1.186207  0  -0.317377  -0.555351  0  2.171166  0
O  O449  1  0.58999867  0.45271152  0.88983206  1  -1.186081  0  -0.317414  -0.555407  0  2.170904  0
O  O450  1  0.08999046  0.04728850  0.11017326  1  -1.185983  0  -0.317392  -0.555361  0  2.171047  0
O  O451  1  0.41000270  0.45270926  0.61017176  1  -1.185961  0  -0.317425  -0.555435  0  2.170699  0
O  O452  1  0.08999577  0.95271423  0.61016790  1  -1.186215  0  -0.317394  -0.555377  0  2.171133  0
O  O453  1  0.41000333  0.54729303  0.11017101  1  -1.185966  0  -0.317408  -0.555423  0  2.170759  0
O  O454  1  0.91000144  0.95271432  0.88982982  1  -1.186173  0  -0.317365  -0.555389  0  2.171234  0
O  O455  1  0.58999804  0.54728894  0.38983020  1  -1.186071  0  -0.317403  -0.555424  0  2.171006  0
O  O456  1  0.12017900  0.34348066  0.61092041  1  -1.166081  0  -0.344876  -0.573497  0  2.38205  0
O  O457  1  0.37981858  0.15651768  0.11091784  1  -1.166153  0  -0.344878  -0.573447  0  2.382076  0
O  O458  1  0.87982106  0.34347958  0.88907920  1  -1.166293  0  -0.344859  -0.573475  0  2.38213  0
O  O459  1  0.62018764  0.15652746  0.38907048  1  -1.165991  0  -0.344844  -0.573393  0  2.382023  0
O  O460  1  0.87982300  0.65651524  0.38908266  1  -1.166204  0  -0.344859  -0.573426  0  2.382004  0
O  O461  1  0.62018658  0.84347360  0.88907307  1  -1.166081  0  -0.344842  -0.573391  0  2.382082  0
O  O462  1  0.12018474  0.65652843  0.11092221  1  -1.166294  0  -0.344852  -0.573381  0  2.382124  0
O  O463  1  0.37981941  0.84348171  0.61091711  1  -1.166141  0  -0.344849  -0.573443  0  2.382039  0
O  O464  1  0.16776685  0.23098390  0.65969970  1  -1.204502  0  -0.324237  -0.559649  0  2.174322  0
O  O465  1  0.33222492  0.26901518  0.15969262  1  -1.204344  0  -0.324237  -0.55966  0  2.173998  0
O  O466  1  0.83222936  0.23098321  0.84030009  1  -1.204372  0  -0.324256  -0.559696  0  2.173939  0
O  O467  1  0.66776872  0.26903288  0.34029607  1  -1.204361  0  -0.324284  -0.559758  0  2.17379  0
O  O468  1  0.83222378  0.76901084  0.34031111  1  -1.204358  0  -0.324145  -0.5596  0  2.174121  0
O  O469  1  0.66777329  0.73097090  0.84029774  1  -1.2043  0  -0.324322  -0.559785  0  2.173758  0
O  O470  1  0.16776822  0.76902942  0.15970409  1  -1.204253  0  -0.32428  -0.559716  0  2.173779  0
O  O471  1  0.33223138  0.73098725  0.65969926  1  -1.204406  0  -0.324222  -0.55966  0  2.17407  0
