# generated using pymatgen
data_Co3H48C62(NO7)2
_symmetry_space_group_name_H-M   'P 1'
_cell_length_a   13.04169268
_cell_length_b   25.40199930
_cell_length_c   25.40207565
_cell_angle_alpha   119.99706261
_cell_angle_beta   89.99669290
_cell_angle_gamma   90.00326655
_symmetry_Int_Tables_number   1
_chemical_formula_structural   Co3H48C62(NO7)2
_chemical_formula_sum   'Co9 H144 C186 N6 O42'
_cell_volume   7288.10383415
_cell_formula_units_Z   3
loop_
 _symmetry_equiv_pos_site_id
 _symmetry_equiv_pos_as_xyz
  1  'x, y, z'
loop_
 _atom_site_type_symbol
 _atom_site_label
 _atom_site_symmetry_multiplicity
 _atom_site_fract_x
 _atom_site_fract_y
 _atom_site_fract_z
 _atom_site_occupancy
 _atom_site_pbe_bader_charge
 _atom_site_pbe_bader_spin_density
 _atom_site_pbe_cm5_charge
 _atom_site_pbe_ddec_charge
 _atom_site_pbe_ddec_spin_density
 _atom_site_pbe_ddec_sum_bond_order
 _atom_site_pbe_magmom
Co  Co0  1  0.80987237  0.72293550  0.60988822  1  1.280279  2.578673  0.660656  0.977681  2.769929  2.425673  2.537
Co  Co1  1  0.14305197  0.88696890  0.27696972  1  1.277607  2.579015  0.66083  0.978003  2.769055  2.423728  2.537
Co  Co2  1  0.47652249  0.39006604  0.11302074  1  1.277282  2.578761  0.6608  0.977981  2.77129  2.425843  2.537
Co  Co3  1  0.19012575  0.60988884  0.72293521  1  1.280403  2.578668  0.660673  0.977698  2.769933  2.425691  2.537
Co  Co4  1  0.85694933  0.27697030  0.88696754  1  1.277623  2.579004  0.660804  0.977924  2.769049  2.424013  2.537
Co  Co5  1  0.52347236  0.11302278  0.39007019  1  1.277285  2.578749  0.660779  0.977853  2.771289  2.425979  2.537
Co  Co6  1  0.99999877  0.68486578  0.68486668  1  1.402841  2.649831  0.682617  1.125042  2.884352  2.325421  2.638
Co  Co7  1  0.33326991  0.99997534  0.31511075  1  1.401113  2.650177  0.682644  1.124925  2.884721  2.324494  2.638
Co  Co8  1  0.66671365  0.31510890  0.99997216  1  1.401345  2.650173  0.682613  1.124917  2.884738  2.324487  2.638
H  H9  1  0.58465468  0.74979326  0.75894683  1  0.068139  0.000488  0.103381  0.10479  0.000196  1.017211  0.0
H  H10  1  0.51895670  0.73297463  0.84151762  1  0.060191  0.000136  0.100714  0.101615  5.9e-05  1.005893  0.0
H  H11  1  0.76983782  0.60953996  0.80882808  1  0.034949  3e-05  0.099988  0.099137  2e-05  1.00987  0.0
H  H12  1  0.83246717  0.62566431  0.72579580  1  0.097337  6.3e-05  0.109641  0.12241  -0.000144  1.013566  0.0
H  H13  1  0.81017342  0.42878062  0.86950243  1  0.094816  0.000394  0.104258  0.11068  7.6e-05  0.998822  0.0
H  H14  1  0.76205595  0.52614681  0.87463084  1  0.039708  8.3e-05  0.097271  0.095421  3.3e-05  1.01375  0.0
H  H15  1  0.48218240  0.53009004  0.96690145  1  0.049024  0.000153  0.095936  0.091783  6.2e-05  1.017938  0.0
H  H16  1  0.53180661  0.43257585  0.96099044  1  0.092063  0.000103  0.109842  0.119233  -5.2e-05  0.984345  0.0
H  H17  1  0.27963876  0.76020486  0.13400124  1  0.100414  0.000159  0.099341  0.103212  -7.4e-05  1.0185  0.0
H  H18  1  0.37042754  0.68063672  0.04266705  1  0.009987  0.000178  0.093053  0.090314  8.7e-05  1.02206  0.0
H  H19  1  0.55323082  0.81950825  0.03787996  1  0.046957  0.000183  0.099504  0.09898  8.3e-05  1.005467  0.0
H  H20  1  0.46233462  0.89843739  0.12986889  1  0.135861  0.000297  0.109808  0.116638  0.000115  0.983602  0.0
H  H21  1  0.65682174  0.56728781  0.83660390  1  0.078808  8e-06  0.101504  0.101995  -1.1e-05  1.024631  0.0
H  H22  1  0.52184709  0.63268985  0.01267943  1  0.086603  -0.0  0.097848  0.096712  -2e-05  1.041012  0.0
H  H23  1  0.54160582  0.75019834  0.93636159  1  0.032527  1.4e-05  0.101164  0.100577  -2e-06  1.021697  0.0
H  H24  1  0.60354416  0.86524873  0.64027671  1  0.078742  0.000494  0.097205  0.150037  0.000167  1.032783  0.0
H  H25  1  0.72908146  0.88221696  0.67206845  1  0.063658  -0.000109  0.108075  0.164374  -0.000178  0.972205  0.0
H  H26  1  0.66652290  0.81438143  0.65892890  1  0.092435  0.000914  0.107708  0.169865  0.000338  1.007624  0.0
H  H27  1  0.62850388  0.89653803  0.53889417  1  0.055987  0.000309  0.10255  0.114384  0.000107  1.007337  0.0
H  H28  1  0.75791793  0.92284404  0.55365862  1  0.045885  0.000985  0.105047  0.11126  0.000401  0.983326  0.0
H  H29  1  0.68242139  0.92345724  0.61242134  1  0.11919  1.8e-05  0.109754  0.123777  -1.9e-05  1.023753  0.0
H  H30  1  0.80826181  0.76043309  0.47583230  1  0.125967  0.000211  0.119438  0.143554  -3.9e-05  0.991031  0.0
H  H31  1  0.84015097  0.83084351  0.47919241  1  0.046454  0.000208  0.106222  0.111936  7.5e-05  0.983307  0.0
H  H32  1  0.71888268  0.79597278  0.44973812  1  0.054035  0.00046  0.108302  0.118213  0.000175  0.972916  0.0
H  H33  1  0.91762115  0.00926496  0.25032604  1  0.072742  0.000482  0.103311  0.104613  0.000196  1.017377  0.0
H  H34  1  0.85218867  0.10868145  0.26705755  1  0.061435  0.000136  0.100423  0.10113  6e-05  1.005726  0.0
H  H35  1  0.10315593  0.19931205  0.39045715  1  0.044567  3e-05  0.100161  0.099569  2.1e-05  1.00947  0.0
H  H36  1  0.16562251  0.10012478  0.37434041  1  0.115245  6.9e-05  0.109655  0.122491  -0.000143  1.013859  0.0
H  H37  1  0.14319079  0.44083809  0.57134872  1  0.097658  0.000392  0.104298  0.111137  7.5e-05  0.998818  0.0
H  H38  1  0.09546882  0.34861303  0.47386123  1  0.077078  8.3e-05  0.096919  0.09511  3.4e-05  1.013661  0.0
H  H39  1  0.81534752  0.43667097  0.46982590  1  0.024932  0.000156  0.095926  0.091657  6.2e-05  1.018457  0.0
H  H40  1  0.86471112  0.52832282  0.56737564  1  0.119752  0.000101  0.109782  0.119287  -5.2e-05  0.984946  0.0
H  H41  1  0.61298601  0.37383296  0.23973563  1  0.068456  0.000165  0.099273  0.103001  -7.4e-05  1.018495  0.0
H  H42  1  0.70343461  0.36190575  0.31931789  1  0.021513  0.000176  0.093049  0.09048  8.7e-05  1.022552  0.0
H  H43  1  0.88619446  0.21822944  0.18046633  1  0.05361  0.000181  0.099623  0.099448  8.3e-05  1.005812  0.0
H  H44  1  0.79549361  0.23134277  0.10152608  1  0.093741  0.000294  0.109697  0.116496  0.000115  0.983562  0.0
H  H45  1  0.99013510  0.26934058  0.43267581  1  0.044405  5e-06  0.101145  0.10171  -1.1e-05  1.024182  0.0
H  H46  1  0.85488795  0.37995959  0.36728166  1  0.047322  -5e-06  0.097887  0.096755  -2e-05  1.040423  0.0
H  H47  1  0.87504758  0.18616570  0.24975112  1  0.031314  1.3e-05  0.101261  0.100311  -2e-06  1.022018  0.0
H  H48  1  0.93702354  0.77497983  0.13462415  1  0.077936  0.000497  0.097055  0.150139  0.000168  1.032879  0.0
H  H49  1  0.06265569  0.78975003  0.11771841  1  0.066576  -0.000107  0.108049  0.164406  -0.000178  0.97321  0.0
H  H50  1  0.00003191  0.84447532  0.18549752  1  0.135656  0.000873  0.107942  0.169977  0.000341  1.008052  0.0
H  H51  1  0.96181455  0.64230054  0.10339835  1  0.067127  0.000305  0.102572  0.113691  0.000106  1.008195  0.0
H  H52  1  0.09127885  0.63079296  0.07717005  1  0.039271  0.000986  0.105013  0.111383  0.000399  0.983317  0.0
H  H53  1  0.01582182  0.68894892  0.07655201  1  0.072009  2.1e-05  0.109844  0.124981  -1.8e-05  1.022196  0.0
H  H54  1  0.14137220  0.71536559  0.23962544  1  0.131672  0.000214  0.11946  0.143425  -3.9e-05  0.991185  0.0
H  H55  1  0.17328624  0.64830488  0.16924265  1  0.045953  0.000206  0.106257  0.112062  7.4e-05  0.982826  0.0
H  H56  1  0.05197517  0.65373653  0.20408231  1  0.050734  0.000458  0.108342  0.118428  0.000174  0.972919  0.0
H  H57  1  0.25097107  0.24104927  0.99089250  1  0.111742  0.000471  0.103523  0.104957  0.000196  1.01706  0.0
H  H58  1  0.18526281  0.15850196  0.89149642  1  0.052395  0.000137  0.10068  0.101825  5.9e-05  1.005615  0.0
H  H59  1  0.43622105  0.19117187  0.80077024  1  0.05893  2.9e-05  0.100168  0.099469  2.1e-05  1.010374  0.0
H  H60  1  0.49889293  0.27415030  0.89993518  1  0.10354  7.2e-05  0.10977  0.122847  -0.000143  1.013177  0.0
H  H61  1  0.47666237  0.13051223  0.55927673  1  0.097686  0.000395  0.104057  0.11048  7.5e-05  0.998739  0.0
H  H62  1  0.42861175  0.12535207  0.65150686  1  0.032718  8.4e-05  0.097252  0.095465  3.3e-05  1.014007  0.0
H  H63  1  0.14873151  0.03308141  0.56322216  1  0.044103  0.000154  0.096002  0.092  6.2e-05  1.018117  0.0
H  H64  1  0.19837855  0.03893096  0.47158909  1  0.103266  0.000102  0.109755  0.11963  -5.2e-05  0.984792  0.0
H  H65  1  0.94618839  0.86595876  0.62622810  1  0.085924  0.000163  0.099358  0.103648  -7.4e-05  1.01886  0.0
H  H66  1  0.03679859  0.95737175  0.63805243  1  0.058809  0.000173  0.093107  0.090307  8.7e-05  1.022202  0.0
H  H67  1  0.21960600  0.96219457  0.78171062  1  0.060858  0.000182  0.099435  0.098752  8.3e-05  1.00604  0.0
H  H68  1  0.12887719  0.87014572  0.76861410  1  0.089985  0.000301  0.10965  0.116389  0.000116  0.983598  0.0
H  H69  1  0.32338763  0.16338828  0.73072604  1  0.081799  8e-06  0.101324  0.102215  -1.1e-05  1.023907  0.0
H  H70  1  0.18828314  0.98735266  0.62005751  1  0.055027  -5e-06  0.097659  0.096396  -2e-05  1.040878  0.0
H  H71  1  0.20796985  0.06366256  0.81387929  1  0.076526  1.8e-05  0.10113  0.100295  -2e-06  1.022373  0.0
H  H72  1  0.27009728  0.35972974  0.22503549  1  0.067208  0.000494  0.097464  0.150381  0.000166  1.031877  0.0
H  H73  1  0.39561226  0.32791175  0.21018125  1  0.06315  -0.000109  0.108103  0.164313  -0.000179  0.972655  0.0
H  H74  1  0.33304137  0.34105520  0.15549675  1  0.085342  0.000914  0.107939  0.169954  0.000335  1.007501  0.0
H  H75  1  0.29512977  0.46109833  0.35766914  1  0.037349  0.00031  0.102767  0.11417  0.000106  1.007153  0.0
H  H76  1  0.42456626  0.44634671  0.36918953  1  0.01731  0.000992  0.104765  0.111328  0.0004  0.98279  0.0
H  H77  1  0.34907223  0.38757759  0.31105750  1  0.067517  2.1e-05  0.109898  0.123934  -1.9e-05  1.023931  0.0
H  H78  1  0.47484336  0.52415405  0.28457878  1  0.130332  0.000216  0.119748  0.143955  -3.9e-05  0.990815  0.0
H  H79  1  0.50674707  0.52081085  0.35163429  1  0.043303  0.000207  0.106257  0.112345  7.4e-05  0.983735  0.0
H  H80  1  0.38546567  0.55025961  0.34621891  1  0.0476  0.000459  0.108369  0.118675  0.000174  0.97276  0.0
H  H81  1  0.41534716  0.75894588  0.74979196  1  0.067906  0.000488  0.103415  0.10479  0.000196  1.017217  0.0
H  H82  1  0.48104739  0.84151568  0.73297173  1  0.060166  0.000136  0.100724  0.101661  5.9e-05  1.0059  0.0
H  H83  1  0.23016637  0.80882781  0.60953769  1  0.035097  3e-05  0.099945  0.099087  2e-05  1.009848  0.0
H  H84  1  0.16753554  0.72579654  0.62566363  1  0.097387  6.3e-05  0.109655  0.122423  -0.000144  1.013596  0.0
H  H85  1  0.18982626  0.86950281  0.42878469  1  0.094783  0.000394  0.104274  0.11063  7.6e-05  0.998818  0.0
H  H86  1  0.23794672  0.87463289  0.52615099  1  0.039826  8.3e-05  0.097318  0.095462  3.3e-05  1.013669  0.0
H  H87  1  0.51782097  0.96690034  0.53008904  1  0.048954  0.000153  0.095921  0.091773  6.2e-05  1.017928  0.0
H  H88  1  0.46819377  0.96098889  0.43257509  1  0.092078  0.000103  0.109849  0.119257  -5.2e-05  0.984326  0.0
H  H89  1  0.72035965  0.13400314  0.76020218  1  0.099853  0.000159  0.099316  0.103121  -7.4e-05  1.018533  0.0
H  H90  1  0.62956792  0.04266882  0.68063653  1  0.009808  0.000178  0.093063  0.090296  8.7e-05  1.022094  0.0
H  H91  1  0.44676992  0.03788223  0.81950920  1  0.046729  0.000183  0.099523  0.098961  8.3e-05  1.005397  0.0
H  H92  1  0.53766830  0.12987168  0.89843625  1  0.135893  0.000297  0.109812  0.116639  0.000115  0.983686  0.0
H  H93  1  0.34318553  0.83660507  0.56728838  1  0.079034  8e-06  0.101514  0.102019  -1.1e-05  1.024637  0.0
H  H94  1  0.47815149  0.01268207  0.63269295  1  0.086607  -0.0  0.097798  0.09661  -2e-05  1.04111  0.0
H  H95  1  0.45839359  0.93636285  0.75019980  1  0.032519  1.4e-05  0.101185  0.100631  -2e-06  1.021676  0.0
H  H96  1  0.39645461  0.64027827  0.86524904  1  0.07873  0.000494  0.097198  0.150004  0.000167  1.032811  0.0
H  H97  1  0.27091727  0.67206993  0.88221754  1  0.063624  -0.000109  0.108056  0.16433  -0.000178  0.972185  0.0
H  H98  1  0.33347665  0.65893027  0.81438160  1  0.092438  0.000913  0.107703  0.169859  0.000338  1.007676  0.0
H  H99  1  0.37149723  0.53889489  0.89653762  1  0.05597  0.000309  0.102517  0.114331  0.000107  1.007407  0.0
H  H100  1  0.24208315  0.55365894  0.92284406  1  0.045774  0.000985  0.105038  0.111206  0.000401  0.983259  0.0
H  H101  1  0.31757966  0.61242232  0.92345689  1  0.119134  1.8e-05  0.109745  0.123759  -1.9e-05  1.023825  0.0
H  H102  1  0.19173868  0.47583304  0.76043402  1  0.125943  0.000211  0.119437  0.143544  -3.9e-05  0.991052  0.0
H  H103  1  0.15985023  0.47919309  0.83084333  1  0.046473  0.000208  0.106237  0.111958  7.5e-05  0.983324  0.0
H  H104  1  0.28111703  0.44973832  0.79597223  1  0.054039  0.00046  0.108308  0.118202  0.000175  0.972929  0.0
H  H105  1  0.08236774  0.25032249  0.00926082  1  0.072712  0.000482  0.103311  0.10459  0.000197  1.017379  0.0
H  H106  1  0.14780396  0.26705514  0.10867641  1  0.061375  0.000136  0.100507  0.101206  6e-05  1.00575  0.0
H  H107  1  0.89684040  0.39045816  0.19930954  1  0.044513  3e-05  0.10016  0.099628  2.1e-05  1.009431  0.0
H  H108  1  0.83437006  0.37433886  0.10012222  1  0.114912  6.9e-05  0.109688  0.122526  -0.000143  1.013839  0.0
H  H109  1  0.85680601  0.57134831  0.44084059  1  0.097679  0.000392  0.104268  0.111076  7.5e-05  0.998863  0.0
H  H110  1  0.90452735  0.47386135  0.34861416  1  0.077159  8.3e-05  0.096911  0.095113  3.4e-05  1.013663  0.0
H  H111  1  0.18465089  0.46982592  0.43667138  1  0.024951  0.000156  0.095931  0.091655  6.2e-05  1.018475  0.0
H  H112  1  0.13528640  0.56737418  0.52832320  1  0.119874  0.000101  0.109759  0.119307  -5.2e-05  0.984838  0.0
H  H113  1  0.38701337  0.23973917  0.37383657  1  0.06839  0.000165  0.0993  0.103025  -7.4e-05  1.018424  0.0
H  H114  1  0.29656472  0.31931983  0.36190763  1  0.021449  0.000176  0.093036  0.090507  8.7e-05  1.022562  0.0
H  H115  1  0.11381120  0.18046566  0.21823017  1  0.053717  0.000181  0.099591  0.099378  8.3e-05  1.005895  0.0
H  H116  1  0.20451209  0.10152637  0.23134507  1  0.093444  0.000294  0.109692  0.116444  0.000115  0.983484  0.0
H  H117  1  0.00986191  0.43267682  0.26934012  1  0.044334  5e-06  0.101082  0.101643  -1.1e-05  1.024225  0.0
H  H118  1  0.14511210  0.36728276  0.37995868  1  0.047234  -5e-06  0.097891  0.096794  -2e-05  1.040297  0.0
H  H119  1  0.12494885  0.24975113  0.18616477  1  0.031301  1.3e-05  0.101242  0.100282  -2e-06  1.022043  0.0
H  H120  1  0.06297180  0.13462826  0.77498478  1  0.078279  0.000497  0.097075  0.150135  0.000168  1.03288  0.0
H  H121  1  0.93734042  0.11772227  0.78975519  1  0.066619  -0.000107  0.108074  0.164459  -0.000178  0.973141  0.0
H  H122  1  0.99996335  0.18550169  0.84448100  1  0.135479  0.000873  0.107884  0.169898  0.000341  1.008191  0.0
H  H123  1  0.03818473  0.10340307  0.64230552  1  0.067172  0.000305  0.102586  0.11371  0.000106  1.008142  0.0
H  H124  1  0.90871816  0.07717329  0.63079791  1  0.039378  0.000987  0.104976  0.111312  0.0004  0.983377  0.0
H  H125  1  0.98417745  0.07655612  0.68895416  1  0.071771  2.1e-05  0.109843  0.124955  -1.8e-05  1.022362  0.0
H  H126  1  0.85862848  0.23962947  0.71536946  1  0.131531  0.000214  0.119466  0.143411  -3.9e-05  0.99115  0.0
H  H127  1  0.82671377  0.16924609  0.64830934  1  0.046529  0.000206  0.10623  0.111972  7.4e-05  0.9828  0.0
H  H128  1  0.94802711  0.20408414  0.65374112  1  0.05077  0.000458  0.108312  0.118393  0.000174  0.972924  0.0
H  H129  1  0.74902789  0.99089513  0.24105254  1  0.111677  0.000471  0.103519  0.104961  0.000196  1.017057  0.0
H  H130  1  0.81473704  0.89150044  0.15850290  1  0.052402  0.000137  0.100684  0.101811  5.9e-05  1.005691  0.0
H  H131  1  0.56377807  0.80077363  0.19117367  1  0.059199  2.9e-05  0.100137  0.09939  2.1e-05  1.010486  0.0
H  H132  1  0.50110606  0.89993917  0.27415323  1  0.103525  7.2e-05  0.109735  0.122798  -0.000143  1.013233  0.0
H  H133  1  0.52334079  0.55927592  0.13051087  1  0.097751  0.000394  0.104047  0.110461  7.5e-05  0.998724  0.0
H  H134  1  0.57139212  0.65150691  0.12535277  1  0.032348  8.4e-05  0.097261  0.096439  3.3e-05  1.012938  0.0
H  H135  1  0.85127401  0.56322555  0.03308173  1  0.044057  0.000154  0.095977  0.091918  6.2e-05  1.018143  0.0
H  H136  1  0.80162856  0.47158966  0.03892725  1  0.103124  0.000102  0.109734  0.119555  -5.2e-05  0.98477  0.0
H  H137  1  0.05381268  0.62622821  0.86595990  1  0.085921  0.000163  0.099364  0.103645  -7.4e-05  1.018863  0.0
H  H138  1  0.96320242  0.63805291  0.95737215  1  0.058792  0.000173  0.093083  0.090256  8.7e-05  1.022302  0.0
H  H139  1  0.78039414  0.78171112  0.96219514  1  0.060859  0.000182  0.099421  0.09873  8.3e-05  1.006037  0.0
H  H140  1  0.87112455  0.76861385  0.87014666  1  0.090008  0.0003  0.109697  0.116456  0.000116  0.983643  0.0
H  H141  1  0.67661232  0.73072838  0.16338921  1  0.081655  8e-06  0.101289  0.10214  -1.1e-05  1.023903  0.0
H  H142  1  0.81171786  0.62005808  0.98735359  1  0.055084  -5e-06  0.097678  0.096452  -2e-05  1.040842  0.0
H  H143  1  0.79203242  0.81388032  0.06366268  1  0.076475  1.8e-05  0.101127  0.100272  -2e-06  1.022362  0.0
H  H144  1  0.72989752  0.22503131  0.35972979  1  0.067482  0.000494  0.097476  0.150395  0.000166  1.031842  0.0
H  H145  1  0.60438257  0.21017843  0.32791142  1  0.063146  -0.000109  0.108092  0.164342  -0.000179  0.97257  0.0
H  H146  1  0.66695195  0.15549304  0.34105452  1  0.085285  0.000913  0.107898  0.169902  0.000335  1.007565  0.0
H  H147  1  0.70487100  0.35766450  0.46110062  1  0.037012  0.00031  0.102771  0.114203  0.000106  1.007271  0.0
H  H148  1  0.57543681  0.36918756  0.44634895  1  0.017405  0.000993  0.104754  0.111322  0.0004  0.982856  0.0
H  H149  1  0.65093092  0.31105476  0.38757975  1  0.067592  2.1e-05  0.109869  0.123948  -1.9e-05  1.023934  0.0
H  H150  1  0.52515818  0.28457572  0.52415566  1  0.130189  0.000215  0.119766  0.143928  -3.9e-05  0.990799  0.0
H  H151  1  0.49325290  0.35163089  0.52081245  1  0.043503  0.000207  0.106256  0.112296  7.4e-05  0.983738  0.0
H  H152  1  0.61453504  0.34621596  0.55025889  1  0.047616  0.000459  0.108412  0.118686  0.000174  0.972729  0.0
C  C153  1  0.75308331  0.70055152  0.69048512  1  1.483111  -0.003327  0.212621  0.58662  -0.005355  4.146741  -0.002
C  C154  1  0.71261134  0.68931357  0.73810971  1  0.034251  0.002558  -0.015591  -0.029881  0.001051  3.983348  0.002
C  C155  1  0.62423077  0.71930760  0.77070240  1  0.005803  -0.000637  -0.082378  -0.088425  -0.001043  3.986136  0.0
C  C156  1  0.58854746  0.70997117  0.81697502  1  -0.070366  0.000915  -0.092464  -0.135855  0.000353  3.987366  0.001
C  C157  1  0.63992120  0.67002355  0.83129652  1  -0.025898  -0.002186  -0.005553  0.069906  -0.002406  3.996672  -0.001
C  C158  1  0.72736252  0.63934608  0.79728990  1  -0.053807  0.000563  -0.089205  -0.129071  0.000146  3.981047  0.001
C  C159  1  0.76378728  0.64874761  0.75133875  1  0.002614  -0.000801  -0.07643  -0.074335  -0.001293  3.945505  0.0
C  C160  1  0.70683429  0.36886978  0.91538638  1  1.547004  0.002858  0.217287  0.592943  0.001344  4.170398  0.002
C  C161  1  0.67346908  0.42470060  0.91447253  1  -0.044436  0.007707  -0.019616  -0.035312  0.003932  3.97028  0.006
C  C162  1  0.73769979  0.45104431  0.88973190  1  -0.024363  0.00101  -0.087183  -0.090801  0.000211  3.996171  0.001
C  C163  1  0.71017784  0.50520515  0.89257515  1  -0.030446  0.000168  -0.09732  -0.142723  -1.8e-05  4.005209  0.0
C  C164  1  0.61792226  0.53485784  0.92042083  1  -0.055027  -0.000375  -0.008237  0.067851  -0.000446  4.002937  0.0
C  C165  1  0.55388092  0.50786527  0.94485533  1  -0.096795  0.000533  -0.093787  -0.138708  0.000227  3.998982  0.0
C  C166  1  0.58083699  0.45332626  0.94161712  1  0.042299  0.000836  -0.080559  -0.081008  0.000249  3.972226  0.001
C  C167  1  0.31194154  0.88042771  0.19429779  1  1.566217  -0.004004  0.22066  0.601631  -0.005152  4.157986  -0.003
C  C168  1  0.36461327  0.83430550  0.13723208  1  -0.102552  0.011146  -0.018498  -0.035984  0.005738  3.9614  0.009
C  C169  1  0.33951404  0.77262890  0.11230677  1  0.006911  -0.001236  -0.092451  -0.097271  -0.001612  4.009078  -0.001
C  C170  1  0.39097938  0.72838652  0.06151848  1  -0.012706  0.001015  -0.10217  -0.150214  0.000419  4.023163  0.001
C  C171  1  0.46831000  0.74425200  0.03336487  1  -0.026742  -0.002635  -0.008191  0.072251  -0.00289  3.998906  -0.002
C  C172  1  0.49185271  0.80624208  0.05807275  1  -0.077252  0.001092  -0.091003  -0.132915  0.000435  3.97709  0.001
C  C173  1  0.44145085  0.85064679  0.10957656  1  -0.032494  -0.000924  -0.079071  -0.080468  -0.001463  3.976888  0.0
C  C174  1  0.60516470  0.66028373  0.88108235  1  -0.067971  0.000275  -0.007307  0.076438  4.3e-05  4.03627  0.0
C  C175  1  0.62182526  0.60402959  0.87741703  1  -0.016784  -0.001419  -0.090617  -0.182629  -0.001551  3.936745  -0.001
C  C176  1  0.59216330  0.59326775  0.92422697  1  -0.017716  0.000219  -0.011532  0.071683  4.5e-05  4.045446  0.0
C  C177  1  0.54156147  0.63965326  0.97489867  1  -0.124041  -0.001438  -0.090819  -0.185384  -0.001566  3.944062  -0.001
C  C178  1  0.55553582  0.70617499  0.93274351  1  -0.036782  -0.001313  -0.089097  -0.18424  -0.001431  3.938682  -0.001
C  C179  1  0.52231915  0.69625521  0.97962781  1  0.033019  0.00029  -0.008974  0.073992  4.4e-05  4.027336  0.0
C  C180  1  0.72399211  0.81001549  0.57864260  1  1.333129  0.003251  0.250421  0.518282  0.002227  4.020352  0.003
C  C181  1  0.67774579  0.84530957  0.64110163  1  -0.075541  0.002222  -0.23632  -0.519368  0.00116  3.905652  0.002
C  C182  1  0.69879637  0.89822898  0.56372895  1  0.237818  0.000691  -0.128874  -0.274914  0.000492  3.925976  0.0
C  C183  1  0.77823624  0.80399417  0.48378146  1  0.239687  0.000339  -0.127077  -0.27054  0.000154  3.910469  0.0
C  C184  1  0.08622332  0.98996807  0.29941660  1  1.485711  -0.003332  0.212125  0.585908  -0.005419  4.146717  -0.002
C  C185  1  0.04571089  0.04884472  0.31073014  1  -0.009363  0.002623  -0.015941  -0.029964  0.001069  3.983299  0.002
C  C186  1  0.95731218  0.05146796  0.28076283  1  0.042492  -0.000653  -0.081846  -0.087753  -0.001063  3.984903  0.0
C  C187  1  0.92175188  0.10708396  0.29006173  1  -0.100876  0.000917  -0.092455  -0.135277  0.000356  3.986317  0.001
C  C188  1  0.97322373  0.16131806  0.32996237  1  -0.043569  -0.002206  -0.005409  0.069225  -0.002427  3.996688  -0.001
C  C189  1  0.06063935  0.15797171  0.36065988  1  -0.041674  0.000573  -0.089469  -0.129838  0.000152  3.981825  0.001
C  C190  1  0.09694574  0.10261474  0.35127043  1  0.023056  -0.000846  -0.076584  -0.074546  -0.001308  3.948593  0.0
C  C191  1  0.03969599  0.54648859  0.63120611  1  1.560777  0.002772  0.216888  0.592169  0.001398  4.169998  0.002
C  C192  1  0.00637899  0.48973952  0.57535741  1  -0.011794  0.007715  -0.01934  -0.034503  0.00394  3.969315  0.006
C  C193  1  0.07073738  0.43872049  0.54902299  1  -0.041014  0.001025  -0.08758  -0.092306  0.000218  3.996518  0.001
C  C194  1  0.04340907  0.38741414  0.49479526  1  -0.094908  0.000168  -0.096482  -0.141431  -1.8e-05  4.00376  0.0
C  C195  1  0.95116167  0.38555707  0.46511350  1  -0.06426  -0.000364  -0.008257  0.068117  -0.000436  4.002252  0.0
C  C196  1  0.88700416  0.43692198  0.49210428  1  0.013665  0.000523  -0.093972  -0.138485  0.000226  3.999294  0.0
C  C197  1  0.91378804  0.48822670  0.54667768  1  -0.065977  0.000866  -0.080681  -0.081828  0.000258  3.973519  0.001
C  C198  1  0.64544228  0.31396061  0.11955185  1  1.570349  -0.004117  0.220637  0.600774  -0.005199  4.15893  -0.003
C  C199  1  0.69793073  0.30293466  0.16565514  1  -0.062822  0.011138  -0.017883  -0.035609  0.00574  3.962465  0.009
C  C200  1  0.67273395  0.33965418  0.22731541  1  0.001496  -0.001208  -0.091816  -0.09554  -0.001624  4.00787  -0.001
C  C201  1  0.72404422  0.33304457  0.27157371  1  -0.101704  0.001013  -0.102191  -0.150764  0.00042  4.024398  0.001
C  C202  1  0.80134934  0.28902410  0.25571963  1  -0.048642  -0.002646  -0.008344  0.071931  -0.002911  4.000962  -0.002
C  C203  1  0.82488451  0.25171549  0.19373123  1  -0.01504  0.001094  -0.090764  -0.133065  0.000438  3.977011  0.001
C  C204  1  0.77460636  0.25885046  0.14931368  1  0.026986  -0.000958  -0.079782  -0.081021  -0.001475  3.976183  0.0
C  C205  1  0.93856381  0.22082969  0.33966118  1  0.010005  0.000279  -0.007861  0.076642  4.4e-05  4.036023  0.0
C  C206  1  0.95518718  0.27341597  0.39592274  1  0.00954  -0.001422  -0.089628  -0.181517  -0.001558  3.93474  -0.001
C  C207  1  0.92547277  0.33097445  0.40668896  1  -0.025439  0.000222  -0.011702  0.070578  4.6e-05  4.045289  0.0
C  C208  1  0.87474141  0.33523139  0.36031618  1  -0.067841  -0.001442  -0.09102  -0.18485  -0.001575  3.944374  -0.001
C  C209  1  0.88889218  0.22657021  0.29377780  1  -0.056329  -0.001316  -0.088417  -0.1832  -0.001436  3.938264  -0.001
C  C210  1  0.85550801  0.28335049  0.30371771  1  -0.008331  0.000293  -0.009461  0.072885  4.4e-05  4.029788  0.0
C  C211  1  0.05731065  0.76858615  0.18996147  1  1.391854  0.003319  0.249904  0.517454  0.002208  4.022479  0.003
C  C212  1  0.01122120  0.79572312  0.15460368  1  -0.14254  0.002286  -0.2364  -0.520036  0.00117  3.90798  0.002
C  C213  1  0.03212680  0.66545655  0.10176449  1  0.278509  0.000693  -0.129026  -0.275355  0.000494  3.924701  0.0
C  C214  1  0.11137120  0.67975020  0.19606018  1  0.243529  0.000338  -0.127169  -0.27098  0.000155  3.910989  0.0
C  C215  1  0.41966002  0.30944143  0.01008407  1  1.511011  -0.003278  0.212293  0.585665  -0.005341  4.147876  -0.002
C  C216  1  0.37902302  0.26185703  0.95125179  1  -0.043197  0.002607  -0.0156  -0.029515  0.00106  3.982898  0.002
C  C217  1  0.29056734  0.22930486  0.94865710  1  -0.078668  -0.000644  -0.082268  -0.088485  -0.001048  3.984485  0.0
C  C218  1  0.25486625  0.18304798  0.89304719  1  -0.028111  0.000916  -0.092073  -0.135844  0.000354  3.986736  0.001
C  C219  1  0.30626597  0.16872167  0.83877900  1  -0.025559  -0.002194  -0.005523  0.070327  -0.002409  3.996829  -0.001
C  C220  1  0.39373945  0.20271004  0.84211124  1  -0.001123  0.000578  -0.089792  -0.130482  0.000148  3.984447  0.001
C  C221  1  0.43017358  0.24862700  0.89745485  1  -0.029569  -0.000841  -0.076614  -0.074754  -0.001292  3.947791  0.0
C  C222  1  0.37325818  0.08460991  0.45348793  1  1.549719  0.002896  0.216965  0.593438  0.001368  4.169476  0.002
C  C223  1  0.33993191  0.08553634  0.51025652  1  -0.010585  0.007707  -0.019551  -0.035813  0.003937  3.969385  0.006
C  C224  1  0.40418818  0.11029065  0.56132494  1  -0.063366  0.001026  -0.087595  -0.09106  0.000218  3.995661  0.001
C  C225  1  0.37669407  0.10743180  0.61264532  1  -0.009661  0.000167  -0.097211  -0.142511  -2e-05  4.006168  0.0
C  C226  1  0.28444902  0.07958752  0.61447310  1  -0.086527  -0.000355  -0.008089  0.068064  -0.000429  4.002828  0.0
C  C227  1  0.22040442  0.05513165  0.56305034  1  -0.001407  0.000525  -0.093768  -0.138572  0.000226  3.999331  0.0
C  C228  1  0.24733497  0.05835776  0.51173903  1  -0.039711  0.000863  -0.080132  -0.081382  0.000262  3.973542  0.001
C  C229  1  0.97865062  0.80563103  0.68608938  1  1.562032  -0.004082  0.220412  0.599683  -0.005205  4.159863  -0.003
C  C230  1  0.03118260  0.86275176  0.69709135  1  -0.002785  0.01107  -0.018536  -0.034368  0.005741  3.960806  0.009
C  C231  1  0.00600834  0.88768521  0.66035878  1  -0.090817  -0.001215  -0.092548  -0.098449  -0.00163  4.009648  -0.001
C  C232  1  0.05738143  0.93851481  0.66693473  1  -0.014902  0.001021  -0.101339  -0.149035  0.00042  4.024167  0.001
C  C233  1  0.13467723  0.96668712  0.71095336  1  -0.031585  -0.002659  -0.008622  0.07123  -0.002919  3.999777  -0.002
C  C234  1  0.15824892  0.94198532  0.74824945  1  -0.081896  0.0011  -0.090521  -0.132409  0.000438  3.977205  0.001
C  C235  1  0.10795084  0.89044851  0.74112811  1  -0.018387  -0.000909  -0.079528  -0.081155  -0.001478  3.97696  -0.001
C  C236  1  0.27158624  0.11892959  0.77924931  1  -0.01968  0.00028  -0.007517  0.077244  4.4e-05  4.036049  0.0
C  C237  1  0.28834260  0.12258423  0.72665526  1  -0.080969  -0.001426  -0.089951  -0.182969  -0.001555  3.93638  -0.001
C  C238  1  0.25868374  0.07578515  0.66908157  1  -0.014608  0.000221  -0.011943  0.070867  4.6e-05  4.044998  0.0
C  C239  1  0.20801443  0.02512816  0.66479883  1  -0.041419  -0.001437  -0.090281  -0.184498  -0.00157  3.942478  -0.001
C  C240  1  0.22192526  0.06728486  0.77348060  1  -0.072785  -0.001316  -0.089057  -0.184873  -0.001433  3.939037  -0.001
C  C241  1  0.18872694  0.02040776  0.71667539  1  -0.005801  0.000289  -0.009239  0.075027  4.4e-05  4.026301  0.0
C  C242  1  0.39059314  0.42133335  0.23137786  1  1.338277  0.003314  0.250751  0.519002  0.002209  4.019959  0.003
C  C243  1  0.34430042  0.35889288  0.20424673  1  -0.079781  0.002221  -0.236975  -0.520209  0.001156  3.905399  0.001
C  C244  1  0.36542425  0.43626916  0.33451921  1  0.327674  0.000682  -0.129129  -0.275225  0.000494  3.925119  0.0
C  C245  1  0.44482871  0.51621600  0.32020066  1  0.246058  0.000337  -0.127611  -0.272221  0.000154  3.912138  0.0
C  C246  1  0.24691706  0.69048688  0.70055225  1  1.482619  -0.003327  0.212643  0.586656  -0.005355  4.14649  -0.002
C  C247  1  0.28738825  0.73811094  0.68931279  1  0.034847  0.002558  -0.015617  -0.029863  0.001051  3.983366  0.002
C  C248  1  0.37577107  0.77070142  0.71930583  1  0.005381  -0.000636  -0.082403  -0.088402  -0.001042  3.986058  0.0
C  C249  1  0.41145666  0.81697422  0.70996952  1  -0.070126  0.000915  -0.09254  -0.136032  0.000353  3.987374  0.001
C  C250  1  0.36008140  0.83129571  0.67002149  1  -0.02653  -0.002186  -0.005592  0.06983  -0.002406  3.996736  -0.001
C  C251  1  0.27264167  0.79729040  0.63934591  1  -0.05318  0.000563  -0.089184  -0.129038  0.000146  3.981173  0.001
C  C252  1  0.23621463  0.75133827  0.64874653  1  0.002417  -0.000801  -0.076393  -0.074339  -0.001294  3.945734  0.0
C  C253  1  0.29316923  0.91539218  0.36887294  1  1.547272  0.002859  0.217372  0.592958  0.001346  4.170549  0.002
C  C254  1  0.32653210  0.91447345  0.42470196  1  -0.045062  0.007706  -0.01966  -0.035413  0.003932  3.97035  0.006
C  C255  1  0.26229908  0.88973320  0.45104740  1  -0.023645  0.001009  -0.087221  -0.090689  0.00021  3.996044  0.001
C  C256  1  0.28982330  0.89257685  0.50520671  1  -0.030525  0.000169  -0.097368  -0.142822  -1.7e-05  4.005115  0.0
C  C257  1  0.38208037  0.92042324  0.53485863  1  -0.055107  -0.000375  -0.008135  0.068025  -0.000446  4.002633  0.0
C  C258  1  0.44612018  0.94485561  0.50786530  1  -0.096708  0.000533  -0.093821  -0.138762  0.000227  3.999008  0.0
C  C259  1  0.41916185  0.94161711  0.45332612  1  0.042242  0.000836  -0.08057  -0.081064  0.000249  3.9724  0.001
C  C260  1  0.68805982  0.19430116  0.88042795  1  1.565791  -0.004001  0.220618  0.601565  -0.005151  4.157977  -0.003
C  C261  1  0.63538663  0.13723365  0.83430279  1  -0.102196  0.011148  -0.018426  -0.035872  0.005739  3.961151  0.009
C  C262  1  0.66048208  0.11230824  0.77262808  1  0.007671  -0.001236  -0.09249  -0.097321  -0.001612  4.009216  -0.001
C  C263  1  0.60901834  0.06152007  0.72838556  1  -0.012822  0.001016  -0.1021  -0.150018  0.000419  4.023247  0.001
C  C264  1  0.53169080  0.03336803  0.74425399  1  -0.026763  -0.002635  -0.008166  0.072179  -0.00289  3.999091  -0.002
C  C265  1  0.50814802  0.05807595  0.80624304  1  -0.077071  0.001092  -0.091069  -0.132852  0.000435  3.977114  0.001
C  C266  1  0.55854599  0.10957823  0.85064692  1  -0.032556  -0.000924  -0.079098  -0.080566  -0.001463  3.976801  0.0
C  C267  1  0.39484017  0.88108321  0.66028507  1  -0.068621  0.000275  -0.007271  0.076679  4.4e-05  4.036146  0.0
C  C268  1  0.37817812  0.87741709  0.60402890  1  -0.016145  -0.001419  -0.09056  -0.182625  -0.001551  3.93658  -0.001
C  C269  1  0.40784006  0.92422976  0.59327017  1  -0.018012  0.000219  -0.011616  0.071564  4.5e-05  4.045389  0.0
C  C270  1  0.45843722  0.97490076  0.63965478  1  -0.124235  -0.001438  -0.090731  -0.185152  -0.001565  3.944048  -0.001
C  C271  1  0.44446362  0.93274368  0.70617544  1  -0.036572  -0.001313  -0.089144  -0.184434  -0.001431  3.938893  -0.001
C  C272  1  0.47768027  0.97962925  0.69625550  1  0.033115  0.000291  -0.008973  0.073925  4.4e-05  4.027375  0.0
C  C273  1  0.27600750  0.57864407  0.81001594  1  1.333142  0.00325  0.250457  0.518252  0.002227  4.02053  0.003
C  C274  1  0.32225375  0.64110281  0.84531044  1  -0.075532  0.002223  -0.236311  -0.519274  0.001159  3.905671  0.002
C  C275  1  0.30120626  0.56372854  0.89822831  1  0.237996  0.000691  -0.128846  -0.274798  0.000492  3.925872  0.0
C  C276  1  0.22176344  0.48378095  0.80399374  1  0.239649  0.000339  -0.127096  -0.270535  0.000154  3.9105  0.0
C  C277  1  0.91377943  0.29941236  0.98996392  1  1.482557  -0.003323  0.212111  0.585875  -0.005411  4.146496  -0.002
C  C278  1  0.95428176  0.31072716  0.04884186  1  -0.007376  0.002617  -0.016029  -0.030019  0.001066  3.983202  0.002
C  C279  1  0.04267742  0.28075881  0.05146503  1  0.042371  -0.00065  -0.081814  -0.087651  -0.001059  3.985139  0.0
C  C280  1  0.07824304  0.29005808  0.10708036  1  -0.10028  0.000915  -0.092593  -0.135482  0.000355  3.986421  0.001
C  C281  1  0.02676806  0.32996184  0.16131602  1  -0.043723  -0.002204  -0.005364  0.069426  -0.002424  3.996637  -0.001
C  C282  1  0.93935702  0.36065823  0.15797032  1  -0.041933  0.000573  -0.089576  -0.130099  0.000152  3.982135  0.001
C  C283  1  0.90304377  0.35126797  0.10261131  1  0.02399  -0.000845  -0.076405  -0.074327  -0.001307  3.948221  0.0
C  C284  1  0.96030146  0.63120491  0.54648997  1  1.560677  0.002773  0.216895  0.592185  0.001398  4.169955  0.002
C  C285  1  0.99361855  0.57535586  0.48974123  1  -0.011536  0.007715  -0.019332  -0.034619  0.00394  3.96926  0.006
C  C286  1  0.92925944  0.54902208  0.43872254  1  -0.040104  0.001025  -0.087538  -0.092151  0.000218  3.996482  0.001
C  C287  1  0.95658782  0.49479547  0.38741661  1  -0.095894  0.000168  -0.096524  -0.141525  -1.8e-05  4.003819  0.0
C  C288  1  0.04883908  0.46511349  0.38555710  1  -0.064427  -0.000364  -0.008232  0.06815  -0.000436  4.0022  0.0
C  C289  1  0.11299424  0.49210300  0.43692151  1  0.01367  0.000523  -0.093959  -0.138511  0.000226  3.999303  0.0
C  C290  1  0.08620952  0.54667647  0.48822699  1  -0.066557  0.000866  -0.080642  -0.081752  0.000258  3.973375  0.001
C  C291  1  0.35455568  0.11954973  0.31396483  1  1.570682  -0.004125  0.220611  0.600699  -0.005205  4.159185  -0.003
C  C292  1  0.30206798  0.16565499  0.30293806  1  -0.062721  0.01114  -0.017892  -0.035793  0.00574  3.962456  0.009
C  C293  1  0.32726622  0.22731696  0.33965681  1  0.001083  -0.001208  -0.091799  -0.095482  -0.001625  4.007879  -0.001
C  C294  1  0.27595593  0.27157514  0.33304608  1  -0.101676  0.001013  -0.102195  -0.150861  0.00042  4.024423  0.001
C  C295  1  0.19865161  0.25571921  0.28902297  1  -0.048693  -0.002647  -0.008332  0.072006  -0.002912  4.000851  -0.002
C  C296  1  0.17511958  0.19373131  0.25171688  1  -0.015242  0.001094  -0.09081  -0.133163  0.000438  3.977133  0.001
C  C297  1  0.22539699  0.14931450  0.25885312  1  0.027552  -0.000959  -0.079695  -0.080714  -0.001476  3.97585  0.0
C  C298  1  0.06143483  0.33966111  0.22082843  1  0.009977  0.000279  -0.007852  0.076661  4.4e-05  4.036071  0.0
C  C299  1  0.04481062  0.39592325  0.27341417  1  0.009717  -0.001421  -0.089634  -0.181582  -0.001558  3.934799  -0.001
C  C300  1  0.07452575  0.40668933  0.33097328  1  -0.025616  0.000222  -0.01166  0.070672  4.6e-05  4.045335  0.0
C  C301  1  0.12525791  0.36031662  0.33522901  1  -0.067187  -0.001441  -0.090996  -0.184853  -0.001574  3.944386  -0.001
C  C302  1  0.11110572  0.29377774  0.22656860  1  -0.056222  -0.001315  -0.088502  -0.183307  -0.001435  3.938429  -0.001
C  C303  1  0.14449292  0.30371757  0.28334865  1  -0.008369  0.000292  -0.009437  0.072899  4.4e-05  4.029739  0.0
C  C304  1  0.94268619  0.18996595  0.76859046  1  1.392125  0.003321  0.249732  0.517107  0.002211  4.022549  0.003
C  C305  1  0.98877411  0.15460727  0.79572792  1  -0.142727  0.002288  -0.236383  -0.519961  0.00117  3.908019  0.002
C  C306  1  0.96786941  0.10176954  0.66546272  1  0.278651  0.000693  -0.128973  -0.275293  0.000494  3.925103  0.0
C  C307  1  0.88862876  0.19606381  0.67975519  1  0.243107  0.000338  -0.127092  -0.270817  0.000155  3.910671  0.0
C  C308  1  0.58033803  0.01008341  0.30944416  1  1.511172  -0.003267  0.212177  0.585384  -0.005327  4.148495  -0.002
C  C309  1  0.62098285  0.95125753  0.26186164  1  -0.043724  0.002606  -0.015653  -0.029377  0.001059  3.982861  0.002
C  C310  1  0.70943241  0.94866230  0.22930855  1  -0.078454  -0.00064  -0.082272  -0.088482  -0.001044  3.984425  0.0
C  C311  1  0.74513205  0.89305136  0.18304947  1  -0.028177  0.000915  -0.092073  -0.135891  0.000353  3.986692  0.001
C  C312  1  0.69373467  0.83878120  0.16872178  1  -0.025608  -0.002189  -0.005551  0.070274  -0.002404  3.996735  -0.001
C  C313  1  0.60625963  0.84211476  0.20271186  1  -0.00087  0.000577  -0.089698  -0.130274  0.000147  3.984401  0.001
C  C314  1  0.56982850  0.89745969  0.24862994  1  -0.02982  -0.000837  -0.07658  -0.074844  -0.001288  3.947718  0.0
C  C315  1  0.62675198  0.45348338  0.08460241  1  1.549459  0.002902  0.216978  0.593601  0.001371  4.169642  0.002
C  C316  1  0.66007284  0.51025466  0.08553276  1  -0.010374  0.007707  -0.019583  -0.035963  0.003937  3.969518  0.006
C  C317  1  0.59581576  0.56132336  0.11028857  1  -0.063298  0.001026  -0.087559  -0.090939  0.000219  3.995931  0.001
C  C318  1  0.62330907  0.61264630  0.10743218  1  -0.009342  0.000167  -0.097242  -0.143469  -1.9e-05  4.006081  0.0
C  C319  1  0.71555413  0.61447473  0.07958815  1  -0.086174  -0.000354  -0.00813  0.068025  -0.000428  4.00315  0.0
C  C320  1  0.77959725  0.56305225  0.05513180  1  -0.001629  0.000525  -0.093743  -0.138527  0.000226  3.999239  0.0
C  C321  1  0.75266827  0.51173861  0.05835522  1  -0.039561  0.000864  -0.080121  -0.081242  0.000263  3.97339  0.001
C  C322  1  0.02134816  0.68608913  0.80563091  1  1.562082  -0.004084  0.220443  0.599756  -0.005208  4.159754  -0.003
C  C323  1  0.96881996  0.69709096  0.86275318  1  -0.002753  0.01107  -0.018505  -0.034324  0.005741  3.960785  0.009
C  C324  1  0.99399270  0.66035965  0.88768654  1  -0.090911  -0.001215  -0.092546  -0.098462  -0.001631  4.009878  -0.001
C  C325  1  0.94262187  0.66693476  0.93851519  1  -0.014931  0.001021  -0.101331  -0.148991  0.000421  4.024377  0.001
C  C326  1  0.86532678  0.71095330  0.96668773  1  -0.031608  -0.002659  -0.008622  0.071254  -0.00292  3.999621  -0.002
C  C327  1  0.84175355  0.74825029  0.94198543  1  -0.081876  0.001099  -0.090511  -0.13241  0.000437  3.977231  0.001
C  C328  1  0.89204938  0.74112956  0.89044981  1  -0.01841  -0.000909  -0.079564  -0.081201  -0.001477  3.977085  -0.001
C  C329  1  0.72841371  0.77925159  0.11892954  1  -0.019733  0.00028  -0.007405  0.077398  4.4e-05  4.035986  0.0
C  C330  1  0.71165815  0.72665765  0.12258532  1  -0.080819  -0.001424  -0.089958  -0.182979  -0.001553  3.936377  -0.001
C  C331  1  0.74131708  0.66908562  0.07578764  1  -0.014558  0.000221  -0.011878  0.070933  4.6e-05  4.045118  0.0
C  C332  1  0.79198643  0.66480114  0.02512948  1  -0.04146  -0.001435  -0.090329  -0.184669  -0.001569  3.942622  -0.001
C  C333  1  0.77807549  0.77348298  0.06728731  1  -0.072889  -0.001314  -0.089047  -0.184827  -0.001431  3.939075  -0.001
C  C334  1  0.81127235  0.71667723  0.02040988  1  -0.005662  0.000289  -0.00926  0.074996  4.4e-05  4.026351  0.0
C  C335  1  0.60940314  0.23137488  0.42133354  1  1.338351  0.003314  0.250741  0.518856  0.002209  4.020159  0.003
C  C336  1  0.65569592  0.20424380  0.35889240  1  -0.080282  0.002222  -0.236948  -0.520148  0.001156  3.905235  0.001
C  C337  1  0.63457962  0.33451710  0.43627135  1  0.327964  0.000682  -0.129151  -0.275352  0.000494  3.925408  0.0
C  C338  1  0.55517129  0.32019718  0.51621669  1  0.245911  0.000337  -0.12762  -0.272065  0.000154  3.912084  0.0
N  N339  1  0.73541966  0.83727038  0.54489579  1  -1.175415  0.009906  -0.279239  -0.006796  0.004803  3.621487  0.008
N  N340  1  0.06864090  0.70757837  0.16275179  1  -1.224099  0.00987  -0.279074  -0.006139  0.004785  3.621082  0.008
N  N341  1  0.40200651  0.45509748  0.29237900  1  -1.165397  0.009882  -0.279089  -0.006344  0.004792  3.620436  0.008
N  N342  1  0.26458073  0.54489590  0.83726947  1  -1.175386  0.009907  -0.27922  -0.006754  0.004803  3.621511  0.008
N  N343  1  0.93135676  0.16275335  0.70758267  1  -1.224241  0.009873  -0.279211  -0.006145  0.004787  3.621198  0.008
N  N344  1  0.59799124  0.29237692  0.45509930  1  -1.16537  0.009884  -0.279093  -0.006355  0.004793  3.620549  0.008
O  O345  1  0.69684330  0.72344865  0.66537505  1  -1.121389  0.090326  -0.319997  -0.559449  0.046225  2.210937  0.071
O  O346  1  0.84557619  0.68669954  0.67181830  1  -1.164705  0.107828  -0.302524  -0.592513  0.056448  2.529242  0.094
O  O347  1  0.79764471  0.34978401  0.89437555  1  -1.136677  0.102543  -0.323867  -0.564751  0.052321  2.367787  0.08
O  O348  1  0.64612724  0.34486037  0.93621262  1  -1.165688  0.049344  -0.307632  -0.579014  0.025329  2.355678  0.041
O  O349  1  0.23135580  0.85998395  0.20744475  1  -1.153219  0.089743  -0.328238  -0.589642  0.045581  2.437812  0.072
O  O350  1  0.34988951  0.93306321  0.22483230  1  -1.154352  0.069017  -0.297425  -0.55637  0.035834  2.344335  0.061
O  O351  1  0.75220134  0.75543370  0.55725579  1  -1.159282  0.054151  -0.301595  -0.524846  0.02769  2.329816  0.04
O  O352  1  0.03000684  0.94195416  0.27651331  1  -1.145418  0.09038  -0.319374  -0.558721  0.046179  2.210802  0.071
O  O353  1  0.17875628  0.98515107  0.31319224  1  -1.154344  0.107706  -0.302521  -0.592123  0.056385  2.527965  0.094
O  O354  1  0.13044836  0.54449169  0.65032204  1  -1.139229  0.102607  -0.323889  -0.564757  0.052358  2.368361  0.08
O  O355  1  0.97907367  0.59135361  0.65515665  1  -1.173012  0.049508  -0.306926  -0.577736  0.025371  2.355021  0.041
O  O356  1  0.56504777  0.34769912  0.14004052  1  -1.158538  0.089873  -0.328762  -0.58993  0.045566  2.438579  0.072
O  O357  1  0.68332943  0.29178600  0.06689493  1  -1.150183  0.06922  -0.29719  -0.55543  0.035842  2.344131  0.061
O  O358  1  0.08549825  0.80180130  0.24453609  1  -1.151248  0.054041  -0.301387  -0.524563  0.027664  2.331363  0.04
O  O359  1  0.36352949  0.33458178  0.05813612  1  -1.138843  0.090282  -0.319399  -0.558541  0.046199  2.211736  0.071
O  O360  1  0.51217945  0.32803534  0.01480064  1  -1.158562  0.107582  -0.302858  -0.592439  0.05642  2.527652  0.094
O  O361  1  0.46408564  0.10560702  0.45541555  1  -1.137485  0.102618  -0.323711  -0.565076  0.052319  2.368024  0.08
O  O362  1  0.31253583  0.06378430  0.40866828  1  -1.164667  0.04928  -0.307266  -0.578683  0.025311  2.355088  0.041
O  O363  1  0.89820747  0.79241712  0.65238796  1  -1.161858  0.089865  -0.328338  -0.589107  0.045549  2.43789  0.072
O  O364  1  0.01655170  0.77512435  0.70823430  1  -1.141056  0.069211  -0.297018  -0.555425  0.035859  2.345212  0.061
O  O365  1  0.41887550  0.44268818  0.19817112  1  -1.14378  0.054113  -0.301749  -0.525167  0.027626  2.330891  0.04
O  O366  1  0.30315478  0.66537596  0.72344990  1  -1.121357  0.090326  -0.320022  -0.559489  0.046225  2.210965  0.071
O  O367  1  0.15442344  0.67182044  0.68670071  1  -1.164696  0.107829  -0.30252  -0.592465  0.056449  2.529053  0.094
O  O368  1  0.20235347  0.89438020  0.34978837  1  -1.137032  0.102552  -0.32394  -0.564772  0.052324  2.36752  0.08
O  O369  1  0.35386401  0.93621881  0.34486257  1  -1.165588  0.049351  -0.307594  -0.578931  0.025331  2.355978  0.041
O  O370  1  0.76864403  0.20744532  0.85998005  1  -1.153117  0.089755  -0.328174  -0.589526  0.045588  2.437742  0.072
O  O371  1  0.65011946  0.22483193  0.93306000  1  -1.154378  0.069033  -0.297414  -0.556278  0.035843  2.344434  0.061
O  O372  1  0.24779756  0.55725730  0.75543433  1  -1.159258  0.054153  -0.301626  -0.52489  0.027692  2.329867  0.04
O  O373  1  0.96999442  0.27650906  0.94195013  1  -1.144861  0.09039  -0.319441  -0.558733  0.046186  2.210679  0.071
O  O374  1  0.82124570  0.31319016  0.98514178  1  -1.154388  0.107686  -0.302419  -0.592128  0.056373  2.527737  0.094
O  O375  1  0.86954985  0.65032197  0.54449370  1  -1.139209  0.102608  -0.323886  -0.564713  0.052358  2.368397  0.08
O  O376  1  0.02092604  0.65515642  0.59135536  1  -1.173017  0.04951  -0.306944  -0.57777  0.025373  2.354975  0.041
O  O377  1  0.43495093  0.14004199  0.34770274  1  -1.158446  0.089884  -0.328629  -0.589808  0.045572  2.43869  0.072
O  O378  1  0.31668315  0.06689219  0.29179066  1  -1.150229  0.069253  -0.297307  -0.555406  0.035863  2.344418  0.061
O  O379  1  0.91450237  0.24453972  0.80180504  1  -1.151523  0.05404  -0.301145  -0.524235  0.027661  2.331454  0.04
O  O380  1  0.63647233  0.05813503  0.33458347  1  -1.138803  0.090303  -0.319402  -0.558501  0.04621  2.211646  0.071
O  O381  1  0.48782548  0.01480029  0.32803697  1  -1.158542  0.107552  -0.302715  -0.592173  0.056401  2.527819  0.094
O  O382  1  0.53592374  0.45540997  0.10560207  1  -1.137134  0.102619  -0.323816  -0.5653  0.052323  2.367957  0.08
O  O383  1  0.68746747  0.40866403  0.06377631  1  -1.164926  0.049299  -0.30715  -0.578593  0.025323  2.355302  0.041
O  O384  1  0.10179364  0.65238797  0.79241735  1  -1.161907  0.089877  -0.328354  -0.589135  0.045551  2.437862  0.072
O  O385  1  0.98344478  0.70823260  0.77512371  1  -1.141098  0.069211  -0.297055  -0.555492  0.03586  2.345235  0.061
O  O386  1  0.58112309  0.19817203  0.44269047  1  -1.143613  0.054111  -0.30174  -0.525072  0.027625  2.331123  0.04
