# generated using pymatgen
data_Co5H28C37N5O19
_symmetry_space_group_name_H-M   'P 1'
_cell_length_a   11.09811323
_cell_length_b   18.66000423
_cell_length_c   21.75971262
_cell_angle_alpha   93.29348104
_cell_angle_beta   89.98557353
_cell_angle_gamma   107.30971812
_symmetry_Int_Tables_number   1
_chemical_formula_structural   Co5H28C37N5O19
_chemical_formula_sum   'Co20 H112 C148 N20 O76'
_cell_volume   4294.37506699
_cell_formula_units_Z   4
loop_
 _symmetry_equiv_pos_site_id
 _symmetry_equiv_pos_as_xyz
  1  'x, y, z'
loop_
 _atom_site_type_symbol
 _atom_site_label
 _atom_site_symmetry_multiplicity
 _atom_site_fract_x
 _atom_site_fract_y
 _atom_site_fract_z
 _atom_site_occupancy
 _atom_site_pbe_bader_charge
 _atom_site_pbe_bader_spin_density
 _atom_site_pbe_cm5_charge
 _atom_site_pbe_ddec_charge
 _atom_site_pbe_ddec_spin_density
 _atom_site_pbe_ddec_sum_bond_order
 _atom_site_pbe_magmom
Co  Co0  1  0.40078976  0.65173519  0.23959217  1  1.279705  2.61965  0.649212  0.978472  2.842432  2.413053  2.602
Co  Co1  1  0.74869480  0.34812081  0.26049157  1  1.281411  2.619125  0.649065  0.978565  2.841586  2.414432  2.602
Co  Co2  1  0.59920572  0.34826157  0.76041069  1  1.279746  2.619673  0.649276  0.978561  2.842494  2.413504  2.602
Co  Co3  1  0.25130276  0.65187649  0.73950672  1  1.281047  2.619125  0.649081  0.978617  2.841545  2.414444  2.602
Co  Co4  1  0.60987563  0.80066890  0.17556540  1  1.295899  2.634382  0.622888  1.040722  2.851464  2.347675  2.619
Co  Co5  1  0.80896166  0.19920095  0.32445771  1  1.297466  2.63433  0.623006  1.04093  2.850318  2.349792  2.619
Co  Co6  1  0.39013270  0.19933913  0.82444350  1  1.295982  2.634335  0.62294  1.040739  2.8514  2.347791  2.619
Co  Co7  1  0.19104260  0.80080254  0.67554132  1  1.29738  2.634364  0.623064  1.041097  2.850375  2.349765  2.619
Co  Co8  1  0.55565665  0.24870235  0.36325616  1  1.260728  2.57994  0.65902  0.952568  2.773534  2.415091  2.544
Co  Co9  1  0.30708876  0.75115481  0.13678339  1  1.262172  2.580271  0.659496  0.953083  2.773849  2.415132  2.545
Co  Co10  1  0.44433506  0.75129949  0.63675015  1  1.260887  2.579912  0.658959  0.95249  2.773544  2.415011  2.544
Co  Co11  1  0.69290710  0.24884811  0.86321379  1  1.262225  2.580222  0.659531  0.952978  2.773813  2.415984  2.545
Co  Co12  1  0.98588547  0.72460374  0.56294261  1  1.250395  2.590911  0.644501  0.982657  2.764122  2.426203  2.542
Co  Co13  1  0.26125687  0.27541318  0.93703952  1  1.251691  2.590714  0.644516  0.98272  2.762947  2.425814  2.542
Co  Co14  1  0.01412125  0.27539927  0.43707617  1  1.250084  2.590938  0.644463  0.982519  2.764061  2.42659  2.542
Co  Co15  1  0.73875654  0.72457618  0.06294323  1  1.251547  2.590773  0.644606  0.982915  2.763007  2.425583  2.542
Co  Co16  1  0.17080651  0.85394854  0.50185421  1  1.238579  2.576384  0.62895  0.907842  2.792652  2.425444  2.562
Co  Co17  1  0.31686903  0.14604523  0.99812511  1  1.238385  2.576466  0.629045  0.908608  2.792547  2.424031  2.562
Co  Co18  1  0.82918792  0.14605333  0.49816038  1  1.238593  2.576377  0.628961  0.907925  2.792654  2.425192  2.562
Co  Co19  1  0.68312281  0.85396043  0.00185702  1  1.238052  2.576463  0.628923  0.908419  2.792511  2.423383  2.562
H  H20  1  0.47270363  0.67549344  0.13175863  1  0.634948  0.000287  0.2856  0.373609  0.00098  0.98009  0.002
H  H21  1  0.79699628  0.32436138  0.36827144  1  0.632041  0.000296  0.285545  0.374076  0.000981  0.979466  0.002
H  H22  1  0.52730243  0.32451006  0.86824270  1  0.634761  0.000289  0.285611  0.373654  0.000981  0.980019  0.002
H  H23  1  0.20299554  0.67563706  0.63173058  1  0.631976  0.000296  0.285541  0.374065  0.000981  0.979475  0.002
H  H24  1  0.54487623  0.77379427  0.06748881  1  0.630168  0.001265  0.281305  0.362777  0.001532  0.994442  0.004
H  H25  1  0.77106373  0.22617174  0.43251820  1  0.634734  0.001198  0.281341  0.36281  0.001529  0.994708  0.004
H  H26  1  0.45513841  0.22620474  0.93251554  1  0.630752  0.00126  0.281287  0.362753  0.001534  0.994603  0.004
H  H27  1  0.22893727  0.77383065  0.56748676  1  0.635357  0.001195  0.281306  0.362691  0.001529  0.994985  0.004
H  H28  1  0.84111425  0.84213190  0.19720035  1  0.646002  -0.000571  0.315985  0.404293  -0.000766  0.898296  0.0
H  H29  1  0.99893881  0.15790009  0.30272671  1  0.641486  -0.00058  0.315966  0.40448  -0.000768  0.899129  0.0
H  H30  1  0.15889391  0.15787218  0.80280514  1  0.645906  -0.000571  0.315965  0.404291  -0.000766  0.898311  0.0
H  H31  1  0.00106032  0.84210395  0.69726868  1  0.641462  -0.00058  0.315992  0.404501  -0.000767  0.899178  0.0
H  H32  1  0.78513199  0.90083099  0.22943504  1  0.628132  -0.000527  0.320289  0.405446  -0.000608  0.881916  0.0
H  H33  1  0.88441329  0.09915870  0.27041176  1  0.651187  -0.000523  0.320333  0.405534  -0.00061  0.881151  0.0
H  H34  1  0.21487707  0.09917310  0.77057184  1  0.62819  -0.000527  0.3203  0.40553  -0.000608  0.881719  0.0
H  H35  1  0.11558572  0.90084870  0.72958240  1  0.65129  -0.000523  0.320219  0.405307  -0.00061  0.881184  0.0
H  H36  1  0.09991472  0.85426594  0.39186717  1  0.440334  -0.000794  0.316382  0.311468  -0.00084  0.908328  0.0
H  H37  1  0.24542458  0.14561431  0.10810253  1  0.450361  -0.000794  0.316806  0.312355  -0.000843  0.9081  0.0
H  H38  1  0.90008594  0.14573758  0.60813830  1  0.44034  -0.000794  0.316421  0.311555  -0.00084  0.908344  0.0
H  H39  1  0.75457899  0.85439138  0.89188603  1  0.450447  -0.000794  0.316819  0.312349  -0.000844  0.908011  0.0
H  H40  1  0.13101140  0.94480463  0.41507452  1  0.426681  -0.000173  0.305662  0.291627  -0.000201  0.939448  0.0
H  H41  1  0.18591715  0.05510158  0.08484488  1  0.425166  -0.000155  0.305607  0.292383  -0.000197  0.93892  0.0
H  H42  1  0.86898961  0.05519776  0.58493135  1  0.426739  -0.000173  0.305595  0.291592  -0.000201  0.93941  0.0
H  H43  1  0.81408371  0.94490410  0.91514093  1  0.425187  -0.000154  0.305641  0.292328  -0.000196  0.938965  0.0
H  H44  1  0.71397168  0.45403198  0.33485841  1  0.439146  -0.000834  0.300721  0.289067  -0.000885  0.952084  0.0
H  H45  1  0.25997548  0.54578551  0.16530089  1  0.448384  -0.000831  0.300676  0.289107  -0.000887  0.951385  0.0
H  H46  1  0.28602420  0.54596197  0.66514478  1  0.439179  -0.000834  0.300703  0.289108  -0.000885  0.952068  0.0
H  H47  1  0.74002298  0.45420278  0.83469284  1  0.44806  -0.000832  0.300673  0.289186  -0.000887  0.951373  0.0
H  H48  1  0.86259850  0.45556426  0.34854250  1  0.477715  -0.000309  0.290299  0.289765  -0.000408  1.003597  0.0
H  H49  1  0.40704516  0.54425916  0.15150818  1  0.475593  -0.000299  0.290815  0.290287  -0.000408  1.004496  0.0
H  H50  1  0.13739552  0.54443137  0.65145985  1  0.477659  -0.000309  0.290309  0.289854  -0.000408  1.003519  0.0
H  H51  1  0.59295144  0.45573081  0.84848471  1  0.4753  -0.000299  0.290752  0.290234  -0.000408  1.004415  0.0
H  H52  1  0.13551520  0.94977403  0.58888244  1  0.435622  -0.000162  0.30699  0.305223  -0.000502  0.918333  0.0
H  H53  1  0.18585982  0.05028964  0.91104132  1  0.442404  -0.00017  0.306847  0.30464  -0.0005  0.919526  0.0
H  H54  1  0.86448406  0.05022669  0.41112520  1  0.435646  -0.000161  0.306958  0.3052  -0.000502  0.918338  0.0
H  H55  1  0.81414375  0.94972509  0.08895640  1  0.442456  -0.000172  0.306883  0.304615  -0.000499  0.919665  0.0
H  H56  1  0.28051683  0.94418575  0.59526315  1  0.500971  -9.5e-05  0.296946  0.303842  -0.00026  0.982292  0.0
H  H57  1  0.33646631  0.05588373  0.90465814  1  0.499012  -9.8e-05  0.297303  0.304788  -0.000264  0.981529  0.0
H  H58  1  0.71948328  0.05581666  0.40474456  1  0.500713  -9.6e-05  0.296969  0.3039  -0.00026  0.982147  0.0
H  H59  1  0.66354059  0.94413044  0.09534094  1  0.499121  -9.9e-05  0.297373  0.304694  -0.000264  0.981447  0.0
H  H60  1  0.47506554  0.65718385  0.34914640  1  0.447858  -0.000597  0.320091  0.317159  -0.000815  0.903666  0.0
H  H61  1  0.81758753  0.34285777  0.15092397  1  0.455384  -0.000596  0.319599  0.315954  -0.000814  0.904177  0.0
H  H62  1  0.52493946  0.34281573  0.65086027  1  0.447875  -0.000597  0.320113  0.317177  -0.000815  0.903787  0.0
H  H63  1  0.18241707  0.65713558  0.84907138  1  0.455652  -0.000596  0.319591  0.315999  -0.000815  0.90432  0.0
H  H64  1  0.44814653  0.56648227  0.32658105  1  0.43282  -0.000568  0.309568  0.299139  -0.000684  0.933  0.0
H  H65  1  0.88130637  0.43351953  0.17362115  1  0.433633  -0.00054  0.309728  0.299362  -0.000683  0.933152  0.0
H  H66  1  0.55185680  0.43351395  0.67342822  1  0.431316  -0.000568  0.309612  0.299202  -0.000684  0.932918  0.0
H  H67  1  0.11869580  0.56647439  0.82637422  1  0.433514  -0.00054  0.309754  0.299468  -0.000683  0.933118  0.0
H  H68  1  0.60867866  0.96759239  0.29861254  1  0.076654  0.000588  0.102653  0.110338  0.000161  1.015941  0.0
H  H69  1  0.64067548  0.03232372  0.20138674  1  0.077917  0.000593  0.102545  0.109937  0.000165  1.016028  0.0
H  H70  1  0.39132189  0.03241450  0.70139263  1  0.076573  0.000588  0.102641  0.110248  0.000162  1.01611  0.0
H  H71  1  0.35931813  0.96768369  0.79860834  1  0.077541  0.000594  0.102578  0.10999  0.000165  1.016217  0.0
H  H72  1  0.31423479  0.03906325  0.38772956  1  0.089157  0.000175  0.103984  0.114523  -5.1e-05  1.026694  0.0
H  H73  1  0.27486692  0.96078148  0.11222757  1  0.094669  0.000176  0.103992  0.114492  -4.7e-05  1.025555  0.0
H  H74  1  0.68575956  0.96094026  0.61227499  1  0.089066  0.000174  0.103919  0.114428  -5.1e-05  1.026728  0.0
H  H75  1  0.72512736  0.03922368  0.88776741  1  0.094796  0.000175  0.104019  0.114581  -4.8e-05  1.025631  0.0
H  H76  1  0.26851183  0.80275501  0.35084166  1  0.113496  0.000316  0.110638  0.128373  4.9e-05  1.015284  0.0
H  H77  1  0.46536592  0.19709348  0.14915238  1  0.108807  0.00032  0.110767  0.12839  4.9e-05  1.015033  0.0
H  H78  1  0.73149149  0.19725020  0.64916527  1  0.113601  0.000316  0.110658  0.12829  4.9e-05  1.015259  0.0
H  H79  1  0.53463319  0.80291051  0.85083289  1  0.109117  0.00032  0.110742  0.128399  4.9e-05  1.014763  0.0
H  H80  1  0.94437496  0.72375974  0.20872370  1  0.095913  0.000613  0.106564  0.118346  0.000175  1.008298  0.0
H  H81  1  0.22006621  0.27591427  0.29123254  1  0.096173  0.000617  0.106592  0.11754  0.000174  1.009054  0.0
H  H82  1  0.05562531  0.27623759  0.79127964  1  0.09608  0.000613  0.106581  0.118435  0.000175  1.008358  0.0
H  H83  1  0.77993078  0.72408190  0.70876524  1  0.096245  0.000617  0.106595  0.117606  0.000174  1.008955  0.0
H  H84  1  0.03756015  0.53856067  0.28457709  1  0.093026  0.000299  0.104136  0.120387  5.8e-05  1.034399  0.0
H  H85  1  0.49886788  0.46104111  0.21543279  1  0.125887  0.000279  0.10422  0.12099  5.7e-05  1.034107  0.0
H  H86  1  0.96242976  0.46143214  0.71542421  1  0.092901  0.000299  0.104134  0.120247  5.8e-05  1.03458  0.0
H  H87  1  0.50113075  0.53895112  0.78456343  1  0.125903  0.000279  0.104213  0.121016  5.7e-05  1.03403  0.0
H  H88  1  0.65213359  0.54471391  0.28391053  1  0.073458  0.000118  0.102681  0.113426  -3.9e-05  1.023433  0.0
H  H89  1  0.10742636  0.45517498  0.21616739  1  0.075898  0.000119  0.10242  0.113399  -3.9e-05  1.023842  0.0
H  H90  1  0.34786404  0.45528173  0.71609182  1  0.07361  0.000118  0.102653  0.113374  -3.9e-05  1.023294  0.0
H  H91  1  0.89257520  0.54481950  0.78382939  1  0.075741  0.00012  0.102434  0.113431  -3.9e-05  1.023704  0.0
H  H92  1  0.37018186  0.21243526  0.45338249  1  0.103114  0.001738  0.101906  0.097007  0.001178  1.064833  0.0
H  H93  1  0.15779409  0.78771204  0.04663117  1  0.101546  0.001729  0.102276  0.097097  0.00117  1.063936  0.0
H  H94  1  0.62981903  0.78757050  0.54662263  1  0.102442  0.00174  0.101918  0.096969  0.001178  1.064941  0.0
H  H95  1  0.84220103  0.21229479  0.95336113  1  0.101233  0.001732  0.102191  0.096946  0.001171  1.064039  0.0
H  H96  1  0.07442256  0.03803658  0.53093438  1  0.070046  0.000164  0.101459  0.11153  -4.5e-05  1.033242  0.0
H  H97  1  0.03645542  0.96201989  0.96902496  1  0.077996  0.000158  0.101282  0.11085  -4.6e-05  1.033656  0.0
H  H98  1  0.92557772  0.96196977  0.46907673  1  0.070305  0.000163  0.10142  0.111527  -4.5e-05  1.033244  0.0
H  H99  1  0.96355001  0.03799315  0.03097314  1  0.07848  0.000157  0.10135  0.110931  -4.6e-05  1.033579  0.0
H  H100  1  0.45879546  0.03133930  0.53913359  1  0.101956  0.00022  0.109535  0.124337  3.3e-05  1.027319  0.0
H  H101  1  0.42756338  0.96876836  0.96076451  1  0.087871  0.000225  0.109706  0.125431  3.2e-05  1.027604  0.0
H  H102  1  0.54120301  0.96866703  0.46087247  1  0.102032  0.000221  0.109538  0.12437  3.3e-05  1.027197  0.0
H  H103  1  0.57243286  0.03124072  0.03922744  1  0.088284  0.000225  0.109695  0.125415  3.2e-05  1.027627  0.0
H  H104  1  0.97127759  0.54100516  0.44652565  1  0.146808  0.000552  0.106424  0.118338  0.000153  1.008543  0.0
H  H105  1  0.43033698  0.45905392  0.05350503  1  0.112662  0.000592  0.106183  0.118289  0.000154  1.00775  0.0
H  H106  1  0.02872179  0.45899218  0.55348045  1  0.146834  0.000552  0.106538  0.118466  0.000153  1.008485  0.0
H  H107  1  0.56967026  0.54094110  0.94648764  1  0.111983  0.000593  0.106237  0.118375  0.000154  1.007622  0.0
H  H108  1  0.26017539  0.47096904  0.35021923  1  0.092907  0.000198  0.10524  0.115135  -5.4e-05  1.033295  0.0
H  H109  1  0.78894834  0.52905897  0.15007097  1  0.083679  0.000203  0.105289  0.11559  -5.5e-05  1.03417  0.0
H  H110  1  0.73982398  0.52902829  0.64978642  1  0.092917  0.000198  0.105167  0.114992  -5.4e-05  1.033517  0.0
H  H111  1  0.21105473  0.47093494  0.84992302  1  0.083082  0.000203  0.10531  0.115581  -5.5e-05  1.034239  0.0
H  H112  1  0.30725701  0.70679266  0.39038974  1  0.1324  0.00031  0.113303  0.133661  6.8e-05  1.010081  0.0
H  H113  1  0.60021079  0.29323462  0.10974952  1  0.129188  0.000309  0.113351  0.133475  6.7e-05  1.010295  0.0
H  H114  1  0.69274198  0.29320750  0.60961787  1  0.132421  0.00031  0.113344  0.133596  6.8e-05  1.010178  0.0
H  H115  1  0.39979380  0.70675872  0.89024261  1  0.12944  0.000309  0.1134  0.133541  6.7e-05  1.010123  0.0
H  H116  1  0.72011376  0.37198702  0.44765953  1  0.128186  0.001475  0.120261  0.103787  0.000238  1.01433  0.001
H  H117  1  0.34839674  0.62789782  0.05219541  1  0.103763  0.001472  0.120924  0.104391  0.000242  1.014221  0.001
H  H118  1  0.27988173  0.62800974  0.55234287  1  0.128165  0.001475  0.12025  0.103747  0.000238  1.01448  0.001
H  H119  1  0.65161049  0.37209721  0.94779588  1  0.103805  0.001472  0.120844  0.104216  0.000242  1.01432  0.001
H  H120  1  0.70529100  0.48433432  0.50661271  1  0.112404  0.000765  0.108553  0.118756  0.000396  1.027971  0.0
H  H121  1  0.22102767  0.51558391  0.99323821  1  0.090316  0.000773  0.108379  0.118081  0.000395  1.028947  0.0
H  H122  1  0.29470211  0.51566131  0.49339010  1  0.112264  0.000765  0.108583  0.118859  0.000396  1.027733  0.0
H  H123  1  0.77897991  0.48440999  0.00675533  1  0.09001  0.000773  0.108416  0.118164  0.000396  1.028949  0.0
H  H124  1  0.31124321  0.42274765  0.44777643  1  0.135548  0.000873  0.108359  0.121677  0.00031  1.04404  0.0
H  H125  1  0.88876867  0.57732415  0.05224286  1  0.089756  0.000891  0.108812  0.12255  0.000309  1.043276  0.0
H  H126  1  0.68874767  0.57724352  0.55223260  1  0.135694  0.000873  0.108394  0.121801  0.00031  1.04402  0.0
H  H127  1  0.11123372  0.42266300  0.94774669  1  0.08961  0.000891  0.108886  0.122687  0.000309  1.043233  0.0
H  H128  1  0.34538738  0.31608280  0.38864152  1  0.12691  0.001527  0.122219  0.098797  0.000526  1.01203  0.001
H  H129  1  0.02976540  0.68392780  0.11136680  1  0.117192  0.001546  0.12211  0.098484  0.000536  1.011893  0.001
H  H130  1  0.65460518  0.68391171  0.61136261  1  0.126198  0.001526  0.122229  0.098841  0.000525  1.011871  0.001
H  H131  1  0.97023187  0.31605991  0.88862416  1  0.116749  0.001547  0.12199  0.098289  0.000536  1.011993  0.001
C  C132  1  0.44267832  0.87872019  0.32112244  1  0.002408  0.006052  -0.016211  -0.014846  0.00276  3.970384  0.004
C  C133  1  0.56355891  0.12116729  0.17886710  1  0.007299  0.006066  -0.016555  -0.014969  0.002764  3.972402  0.004
C  C134  1  0.55731938  0.12128281  0.67889312  1  0.002055  0.006048  -0.016288  -0.014797  0.002757  3.970598  0.004
C  C135  1  0.43644238  0.87884288  0.82111524  1  0.007093  0.006066  -0.016594  -0.015196  0.002763  3.972196  0.004
C  C136  1  0.51617114  0.95381326  0.31943729  1  -0.047994  0.016018  -0.087461  -0.128552  0.008369  3.952096  0.01
C  C137  1  0.56199015  0.04608884  0.18053134  1  -0.065824  0.016031  -0.087581  -0.128187  0.008359  3.954101  0.01
C  C138  1  0.48382768  0.04619196  0.68057239  1  -0.047479  0.016014  -0.087486  -0.128582  0.008368  3.952545  0.01
C  C139  1  0.43800840  0.95392304  0.81945614  1  -0.064  0.016032  -0.087571  -0.128231  0.00836  3.953899  0.01
C  C140  1  0.46814896  0.01102322  0.34270892  1  0.014947  0.004978  -0.019713  -0.026112  0.002232  4.013284  0.004
C  C141  1  0.45678072  0.98886417  0.15725867  1  0.000297  0.005024  -0.020855  -0.027145  0.002242  4.015627  0.004
C  C142  1  0.53184681  0.98898312  0.65729898  1  0.014553  0.004978  -0.019845  -0.026265  0.002232  4.013618  0.004
C  C143  1  0.54320978  0.01114603  0.84273286  1  -0.000569  0.005022  -0.020654  -0.026599  0.002239  4.014991  0.004
C  C144  1  0.34963998  0.99354045  0.36978834  1  0.020167  0.012559  -0.086813  -0.188037  0.006294  3.914794  0.008
C  C145  1  0.35581198  0.00633278  0.13013145  1  0.009037  0.012519  -0.08631  -0.187312  0.006269  3.912868  0.008
C  C146  1  0.65035697  0.00646646  0.63022051  1  0.020568  0.012559  -0.086609  -0.18766  0.006294  3.914462  0.008
C  C147  1  0.64418447  0.99367852  0.86985462  1  0.008551  0.012526  -0.086253  -0.187419  0.006273  3.912956  0.008
C  C148  1  0.27985302  0.91852258  0.37493176  1  0.340942  -0.003758  0.090667  0.284047  -0.004894  4.040773  -0.004
C  C149  1  0.36102303  0.08134869  0.12499481  1  0.307143  -0.003757  0.090321  0.283215  -0.004892  4.042121  -0.004
C  C150  1  0.72015233  0.08148490  0.62507941  1  0.341524  -0.003759  0.090532  0.283684  -0.004896  4.040872  -0.004
C  C151  1  0.63898570  0.91866374  0.87498994  1  0.307928  -0.003757  0.090053  0.282755  -0.004895  4.042499  -0.004
C  C152  1  0.32464301  0.86125474  0.34892925  1  -0.037155  0.014275  -0.076677  -0.160455  0.007003  3.860054  0.009
C  C153  1  0.46304922  0.13860801  0.15103032  1  0.005429  0.014199  -0.076619  -0.159843  0.006978  3.860229  0.009
C  C154  1  0.67535790  0.13875107  0.65108552  1  -0.037703  0.014279  -0.076625  -0.160242  0.007004  3.859714  0.009
C  C155  1  0.53695955  0.86140270  0.84894837  1  0.003936  0.014204  -0.076604  -0.159778  0.00698  3.859782  0.009
C  C156  1  0.48688241  0.81690983  0.29111747  1  1.552333  0.000847  0.216809  0.59617  -0.000954  4.157024  0.0
C  C157  1  0.66940930  0.18300138  0.20891738  1  1.543313  0.000839  0.217296  0.595748  -0.001004  4.156732  0.0
C  C158  1  0.51312734  0.18308305  0.70889716  1  1.551989  0.000837  0.21685  0.596159  -0.000962  4.15756  0.0
C  C159  1  0.33058879  0.81700599  0.79106850  1  1.543377  0.000845  0.217329  0.596056  -0.001003  4.156676  0.0
C  C160  1  0.54420234  0.09128627  0.34056798  1  1.504586  0.001393  0.22026  0.58852  -4.4e-05  4.170591  0.001
C  C161  1  0.45254794  0.90858911  0.15946250  1  1.545822  0.001342  0.220708  0.587583  -2.3e-05  4.171712  0.001
C  C162  1  0.45578790  0.90872343  0.65943778  1  1.504685  0.001391  0.220146  0.588397  -4.6e-05  4.170676  0.001
C  C163  1  0.54744426  0.09141550  0.84053704  1  1.54605  0.001344  0.220719  0.587491  -2.1e-05  4.172134  0.001
C  C164  1  0.78796870  0.63824660  0.24520332  1  -0.006789  0.008415  -0.021207  -0.024205  0.00406  3.993937  0.007
C  C165  1  0.14937037  0.36148958  0.25476061  1  0.076415  0.008327  -0.021986  -0.02529  0.004067  3.992593  0.007
C  C166  1  0.21202725  0.36174569  0.75480531  1  -0.00721  0.008413  -0.020994  -0.023903  0.004058  3.993983  0.007
C  C167  1  0.85062701  0.63850375  0.74523060  1  0.075731  0.008329  -0.021802  -0.025063  0.004067  3.992366  0.007
C  C168  1  0.91479676  0.67090358  0.23126641  1  -0.020518  0.010554  -0.087743  -0.129012  0.005512  3.948859  0.006
C  C169  1  0.24342504  0.32874640  0.26866338  1  -0.087858  0.010633  -0.08723  -0.12668  0.005514  3.945735  0.006
C  C170  1  0.08520031  0.32909095  0.76874095  1  -0.019225  0.010553  -0.08784  -0.129361  0.005513  3.949594  0.006
C  C171  1  0.75657207  0.67124639  0.73133240  1  -0.087644  0.010636  -0.087439  -0.127091  0.005516  3.94587  0.006
C  C172  1  0.00377681  0.63446334  0.24560636  1  -0.001936  0.007974  -0.022031  -0.030322  0.004074  4.012093  0.006
C  C173  1  0.36892389  0.36515567  0.25436190  1  0.082037  0.007819  -0.022129  -0.032053  0.004068  4.011124  0.006
C  C174  1  0.99621648  0.36552725  0.75439989  1  -0.002999  0.007976  -0.022015  -0.030045  0.004075  4.012216  0.006
C  C175  1  0.63107243  0.63483374  0.74563097  1  0.081552  0.007819  -0.022049  -0.031939  0.004068  4.01123  0.006
C  C176  1  0.96649697  0.56569430  0.27376555  1  -0.092709  0.006781  -0.093357  -0.198054  0.003148  3.905125  0.004
C  C177  1  0.40061590  0.43394973  0.22622787  1  -0.111845  0.006822  -0.093107  -0.197343  0.003155  3.903686  0.004
C  C178  1  0.03349334  0.43429573  0.72624160  1  -0.092353  0.00678  -0.093305  -0.197957  0.003147  3.90497  0.004
C  C179  1  0.59938311  0.56603966  0.77376086  1  -0.112326  0.006825  -0.093072  -0.197382  0.003156  3.90363  0.004
C  C180  1  0.83987186  0.53297328  0.28849959  1  0.34443  -0.000923  0.087137  0.286068  -0.00188  4.034168  -0.001
C  C181  1  0.30683957  0.46676261  0.21153464  1  0.328388  -0.000922  0.086706  0.284989  -0.001885  4.035428  -0.001
C  C182  1  0.16012374  0.46702010  0.71150312  1  0.344685  -0.000921  0.087174  0.286161  -0.00188  4.033606  -0.001
C  C183  1  0.69315826  0.53322622  0.78845452  1  0.328955  -0.000919  0.086617  0.284901  -0.001884  4.035376  -0.001
C  C184  1  0.75146600  0.56983124  0.27386119  1  -0.03788  0.006452  -0.091646  -0.194961  0.003077  3.911525  0.004
C  C185  1  0.18149758  0.42993929  0.22616389  1  -0.10485  0.006544  -0.091336  -0.194844  0.003091  3.912121  0.004
C  C186  1  0.24853146  0.43016048  0.72614603  1  -0.038795  0.006453  -0.091676  -0.195017  0.003078  3.911248  0.004
C  C187  1  0.81850375  0.57005293  0.77382957  1  -0.104188  0.006549  -0.091379  -0.194827  0.003093  3.911893  0.004
C  C188  1  0.68888660  0.67410262  0.22870892  1  1.556631  -0.010932  0.218554  0.609686  -0.013954  4.135911  -0.008
C  C189  1  0.01435352  0.32578373  0.27128056  1  1.541215  -0.010989  0.218434  0.611181  -0.014046  4.134984  -0.008
C  C190  1  0.31110827  0.32589472  0.77129718  1  1.556499  -0.010938  0.218426  0.609461  -0.013961  4.136301  -0.008
C  C191  1  0.98564713  0.67421075  0.72871622  1  1.541147  -0.010988  0.21846  0.611315  -0.014048  4.135132  -0.008
C  C192  1  0.13950767  0.66705681  0.22921966  1  1.579746  -0.000308  0.213883  0.579118  -0.002131  4.176074  0.0
C  C193  1  0.47201127  0.33260221  0.27083681  1  1.552439  -0.000194  0.215304  0.580347  -0.002092  4.177225  0.0
C  C194  1  0.86048528  0.33293489  0.77078389  1  1.580108  -0.000299  0.21395  0.579098  -0.002124  4.176215  0.0
C  C195  1  0.52798314  0.66739060  0.72916311  1  1.553375  -0.000194  0.215271  0.580502  -0.002092  4.17704  0.0
C  C196  1  0.42844297  0.12465309  0.49453010  1  0.028191  0.003341  -0.016585  -0.02751  0.001246  3.971746  0.002
C  C197  1  0.30385726  0.87546606  0.00540398  1  0.018076  0.003352  -0.016363  -0.027406  0.001254  3.971893  0.002
C  C198  1  0.57155687  0.87535779  0.50548674  1  0.027767  0.003346  -0.016438  -0.02739  0.001249  3.971647  0.002
C  C199  1  0.69614522  0.12454467  0.99457931  1  0.017476  0.003357  -0.016442  -0.027773  0.001258  3.97233  0.002
C  C200  1  0.34007464  0.16007828  0.47656787  1  -0.08666  0.014957  -0.085567  -0.129016  0.007986  3.946098  0.009
C  C201  1  0.18004647  0.84004490  0.02341392  1  -0.094681  0.014805  -0.086179  -0.128693  0.007904  3.943445  0.009
C  C202  1  0.65992615  0.83993090  0.52344706  1  -0.08606  0.014948  -0.085786  -0.129082  0.007983  3.946785  0.009
C  C203  1  0.81995123  0.15996528  0.97657164  1  -0.093889  0.014785  -0.085924  -0.128176  0.007893  3.943614  0.009
C  C204  1  0.21238966  0.12846596  0.49000776  1  -0.028198  0.006116  -0.022708  -0.023979  0.002707  4.00762  0.005
C  C205  1  0.08394977  0.87160415  0.00994951  1  -0.017314  0.006111  -0.023017  -0.024522  0.002718  4.007268  0.005
C  C206  1  0.78761379  0.87154493  0.51001138  1  -0.029062  0.006121  -0.022543  -0.024063  0.002709  4.008453  0.005
C  C207  1  0.91604607  0.12840772  0.99003705  1  -0.011381  0.006109  -0.023106  -0.024555  0.002722  4.007111  0.005
C  C208  1  0.17385187  0.06127907  0.52026457  1  -0.049656  0.009941  -0.098525  -0.211686  0.004867  3.944232  0.006
C  C209  1  0.11264024  0.93878919  0.97968323  1  -0.066984  0.009967  -0.098008  -0.210517  0.004874  3.942808  0.006
C  C210  1  0.82615073  0.93873013  0.47975496  1  -0.049707  0.009933  -0.098353  -0.211562  0.004862  3.944565  0.006
C  C211  1  0.88736242  0.06122551  0.02030990  1  -0.074474  0.00996  -0.098112  -0.210574  0.004867  3.942973  0.006
C  C212  1  0.26074808  0.02500547  0.53771421  1  0.402837  -0.002879  0.089471  0.280104  -0.003851  4.042362  -0.003
C  C213  1  0.23583568  0.97507735  0.96221721  1  0.389288  -0.002883  0.088912  0.280281  -0.003837  4.040788  -0.003
C  C214  1  0.73925277  0.97500201  0.46229880  1  0.402597  -0.002878  0.089457  0.280129  -0.003848  4.042093  -0.003
C  C215  1  0.76416642  0.02493622  0.03777494  1  0.389763  -0.002882  0.08885  0.279817  -0.003834  4.041163  -0.003
C  C216  1  0.38867914  0.05763996  0.52520176  1  -0.032087  0.009499  -0.078721  -0.168628  0.004587  3.870312  0.006
C  C217  1  0.33114806  0.94247727  0.97473680  1  0.027149  0.009399  -0.078265  -0.169531  0.004549  3.871927  0.006
C  C218  1  0.61131985  0.94236922  0.47481363  1  -0.031719  0.009491  -0.078821  -0.168692  0.004583  3.87022  0.006
C  C219  1  0.66885082  0.05753348  0.02525109  1  0.02674  0.009387  -0.078036  -0.16904  0.004543  3.871718  0.006
C  C220  1  0.56712909  0.15599027  0.48144027  1  1.5587  0.002173  0.220531  0.591914  0.000747  4.118987  0.003
C  C221  1  0.41113971  0.84409412  0.01850411  1  1.553127  0.002248  0.219582  0.591333  0.000785  4.119924  0.003
C  C222  1  0.43286956  0.84402004  0.51857655  1  1.559007  0.002177  0.220487  0.592119  0.000745  4.118544  0.003
C  C223  1  0.58885753  0.15591154  0.98147618  1  1.553129  0.00225  0.219707  0.591546  0.000784  4.119616  0.003
C  C224  1  0.11347132  0.16489372  0.47572694  1  1.505801  -0.008342  0.216036  0.590801  -0.01096  4.150695  -0.007
C  C225  1  0.94861165  0.83513649  0.02427531  1  1.50239  -0.008355  0.216814  0.589763  -0.010972  4.150199  -0.007
C  C226  1  0.88653539  0.83511828  0.52429088  1  1.506098  -0.008347  0.216098  0.590958  -0.010966  4.150845  -0.007
C  C227  1  0.05138982  0.16486861  0.97570680  1  1.503014  -0.008362  0.216879  0.589578  -0.01098  4.150442  -0.007
C  C228  1  0.13458617  0.63011609  0.42096331  1  -0.046935  0.007054  -0.014995  -0.012042  0.003291  3.985034  0.005
C  C229  1  0.50437188  0.36992709  0.07908670  1  -0.038527  0.007017  -0.015599  -0.013547  0.003298  3.984368  0.005
C  C230  1  0.86542121  0.36988465  0.57905168  1  -0.047872  0.007053  -0.015026  -0.012021  0.00329  3.98518  0.005
C  C231  1  0.49563643  0.63006287  0.92090389  1  -0.038702  0.007016  -0.015531  -0.013423  0.003296  3.984404  0.005
C  C232  1  0.06177949  0.55489465  0.42364386  1  -0.058828  0.015468  -0.085486  -0.128969  0.007968  3.944912  0.009
C  C233  1  0.50683655  0.44516052  0.07645393  1  0.002984  0.015407  -0.085403  -0.128915  0.00797  3.944894  0.009
C  C234  1  0.93822366  0.44510664  0.57636656  1  -0.058727  0.015473  -0.085634  -0.12922  0.00797  3.945028  0.009
C  C235  1  0.49316392  0.55483000  0.92353623  1  0.003456  0.015409  -0.08552  -0.128954  0.00797  3.944619  0.009
C  C236  1  0.10861741  0.49811520  0.39862389  1  -0.053859  0.001345  -0.022964  -0.037468  -0.000264  4.036815  0.001
C  C237  1  0.61036722  0.50191616  0.10156984  1  -0.051735  0.001354  -0.02243  -0.035298  -0.000263  4.035458  0.001
C  C238  1  0.89137651  0.50188384  0.60138597  1  -0.05451  0.001344  -0.022995  -0.037501  -0.000264  4.036863  0.001
C  C239  1  0.38963607  0.49807097  0.89841511  1  -0.05129  0.001352  -0.022346  -0.035362  -0.000264  4.035274  0.001
C  C240  1  0.22564734  0.51608316  0.36975770  1  -0.019404  0.011122  -0.09033  -0.203435  0.005486  3.938843  0.007
C  C241  1  0.70931861  0.48395277  0.13051486  1  -0.027136  0.011141  -0.090176  -0.205189  0.005499  3.939371  0.007
C  C242  1  0.77435003  0.48391195  0.63025473  1  -0.01821  0.011122  -0.090196  -0.203216  0.005486  3.938829  0.007
C  C243  1  0.29068496  0.51603493  0.86947195  1  -0.02673  0.011141  -0.090166  -0.205082  0.005499  3.939683  0.007
C  C244  1  0.29627324  0.59111256  0.36584870  1  0.34914  -0.003176  0.089599  0.282018  -0.004021  4.058461  -0.003
C  C245  1  0.70484069  0.40890492  0.13436089  1  0.37574  -0.00323  0.089667  0.282508  -0.004016  4.05768  -0.003
C  C246  1  0.70372841  0.40888031  0.63416547  1  0.348818  -0.003175  0.089526  0.281988  -0.00402  4.058396  -0.003
C  C247  1  0.29516226  0.59108335  0.86562871  1  0.368146  -0.003202  0.08978  0.282581  -0.004016  4.057788  -0.003
C  C248  1  0.25162897  0.64817478  0.39240694  1  -0.036337  0.011772  -0.078584  -0.172639  0.005639  3.872948  0.007
C  C249  1  0.60319649  0.35185059  0.10774753  1  -0.033627  0.011813  -0.078705  -0.172399  0.005665  3.871898  0.007
C  C250  1  0.74837548  0.35182369  0.60760243  1  -0.035932  0.011775  -0.078516  -0.172383  0.00564  3.872763  0.007
C  C251  1  0.39680911  0.64813935  0.89223893  1  -0.033616  0.011818  -0.078829  -0.17256  0.005668  3.871831  0.007
C  C252  1  0.09099027  0.69154827  0.45139879  1  1.557014  0.000411  0.214477  0.582884  -6.4e-05  4.172431  0.0
C  C253  1  0.39942229  0.30851385  0.04857700  1  1.522048  0.000446  0.214886  0.582749  -0.000101  4.172423  0.0
C  C254  1  0.90901414  0.30845193  0.54861986  1  1.557461  0.000416  0.214446  0.582549  -5.9e-05  4.172609  0.0
C  C255  1  0.60059691  0.69148168  0.95140144  1  1.521539  0.000456  0.214715  0.582364  -9.1e-05  4.173173  0.0
C  C256  1  0.03675681  0.41754068  0.40411876  1  1.534346  0.001001  0.211188  0.573993  0.000674  4.18648  0.0
C  C257  1  0.61906892  0.58245918  0.09599803  1  1.545253  0.001001  0.211579  0.573954  0.000659  4.187659  0.0
C  C258  1  0.96324494  0.58245780  0.59589245  1  1.534687  0.001001  0.211209  0.573971  0.000672  4.186038  0.0
C  C259  1  0.38093385  0.41752511  0.90398220  1  1.545271  0.001  0.211536  0.573701  0.000659  4.187541  0.0
C  C260  1  0.63161732  0.38589506  0.44785682  1  0.477154  -0.01171  0.041505  0.098121  -0.013318  3.932134  -0.006
C  C261  1  0.24598411  0.61400774  0.05203867  1  0.44385  -0.011713  0.041229  0.097726  -0.013224  3.932084  -0.006
C  C262  1  0.36837615  0.61409948  0.55215237  1  0.477605  -0.011714  0.041413  0.098114  -0.013321  3.932158  -0.006
C  C263  1  0.75402121  0.38598166  0.94795190  1  0.444027  -0.011731  0.041319  0.097983  -0.013242  3.931855  -0.006
C  C264  1  0.62203377  0.44930747  0.48133558  1  -0.099317  0.000212  -0.08448  -0.171066  -0.001219  3.936038  0.002
C  C265  1  0.17286662  0.55061776  0.01856117  1  -0.039823  0.000299  -0.084411  -0.16999  -0.001211  3.935837  0.002
C  C266  1  0.37796038  0.55068482  0.51867351  1  -0.099359  0.000212  -0.084455  -0.171164  -0.001219  3.935829  0.002
C  C267  1  0.82714185  0.44937613  0.98142823  1  -0.039233  0.00031  -0.084551  -0.170363  -0.001204  3.935594  0.002
C  C268  1  0.50685067  0.46652891  0.48254988  1  -0.023521  -0.020264  0.002982  0.092593  -0.022637  3.989949  -0.012
C  C269  1  0.04044554  0.53345775  0.01741236  1  0.006043  -0.02017  0.002429  0.091985  -0.022523  3.991452  -0.012
C  C270  1  0.49313977  0.53345776  0.51746033  1  0.017243  -0.020133  0.002938  0.092574  -0.022641  3.989845  -0.012
C  C271  1  0.95956485  0.46653277  0.98257734  1  0.04532  -0.020041  0.002539  0.09235  -0.02255  3.991317  -0.012
C  C272  1  0.40536192  0.41610745  0.44897319  1  -0.016832  0.001721  -0.083876  -0.167107  -0.000506  3.922561  0.003
C  C273  1  0.98952177  0.58392636  0.05101033  1  0.025972  0.001782  -0.083939  -0.16778  -0.000473  3.924025  0.003
C  C274  1  0.59462582  0.58387923  0.55103931  1  -0.016364  0.001722  -0.083845  -0.167187  -0.000505  3.922433  0.003
C  C275  1  0.01048029  0.41606190  0.94897835  1  0.025875  0.001796  -0.084006  -0.167984  -0.000465  3.923656  0.003
C  C276  1  0.42304281  0.35485425  0.41534447  1  0.426614  -0.011028  0.041252  0.089302  -0.012014  3.948492  -0.006
C  C277  1  0.06858003  0.64515054  0.08462123  1  0.404386  -0.010915  0.041446  0.089623  -0.011939  3.948401  -0.005
C  C278  1  0.57694419  0.64513634  0.58466362  1  0.426524  -0.011029  0.041228  0.089344  -0.012016  3.948243  -0.006
C  C279  1  0.93141577  0.35483604  0.91536829  1  0.404614  -0.010934  0.041563  0.089768  -0.011959  3.947962  -0.005
N  N280  1  0.16763293  0.90087631  0.40938941  1  -1.158805  0.049179  -0.588926  -0.595399  0.025591  3.432402  0.04
N  N281  1  0.26651126  0.09901593  0.09054302  1  -1.169976  0.049206  -0.58914  -0.59773  0.025607  3.434685  0.04
N  N282  1  0.83237039  0.09912891  0.59061935  1  -1.159351  0.049193  -0.588845  -0.595389  0.025597  3.432444  0.04
N  N283  1  0.73349280  0.90099255  0.90944016  1  -1.169702  0.049221  -0.589158  -0.597502  0.025609  3.434984  0.041
N  N284  1  0.80083981  0.46296806  0.31589823  1  -1.188114  0.049229  -0.595171  -0.614814  0.025971  3.405727  0.04
N  N285  1  0.33791954  0.53681775  0.18419673  1  -1.192056  0.049226  -0.595864  -0.615543  0.026027  3.405381  0.04
N  N286  1  0.19915483  0.53702701  0.68410501  1  -1.187691  0.049219  -0.595192  -0.615026  0.02597  3.405391  0.04
N  N287  1  0.66207801  0.46317053  0.81579425  1  -1.191733  0.049232  -0.59575  -0.615536  0.026032  3.405488  0.04
N  N288  1  0.21709315  0.95530617  0.56533960  1  -1.213637  0.053178  -0.596147  -0.604433  0.028035  3.421647  0.042
N  N289  1  0.26189292  0.04476564  0.93457955  1  -1.220097  0.053268  -0.596303  -0.605399  0.028087  3.422741  0.042
N  N290  1  0.78291034  0.04470299  0.43467073  1  -1.213  0.053158  -0.596201  -0.604593  0.028028  3.421449  0.042
N  N291  1  0.73811008  0.95524796  0.06541582  1  -1.219782  0.053258  -0.596418  -0.605188  0.028079  3.422705  0.042
N  N292  1  0.40914779  0.60937963  0.33232651  1  -1.159377  0.051627  -0.591179  -0.602308  0.027642  3.445598  0.04
N  N293  1  0.79942301  0.39060716  0.16783398  1  -1.185192  0.051786  -0.591203  -0.601254  0.027687  3.447051  0.04
N  N294  1  0.59085526  0.39061603  0.66768365  1  -1.157981  0.051627  -0.591211  -0.602362  0.027638  3.445875  0.04
N  N295  1  0.20057859  0.60938562  0.83215997  1  -1.1776  0.051755  -0.591309  -0.601508  0.027689  3.447159  0.04
N  N296  1  0.53476731  0.33951464  0.41380036  1  -1.241538  0.046134  -0.341667  -0.274603  0.024333  3.623366  0.037
N  N297  1  0.19561510  0.66041101  0.08613269  1  -1.214791  0.04632  -0.341529  -0.27414  0.024423  3.623621  0.037
N  N298  1  0.46522166  0.66047990  0.58621022  1  -1.241538  0.046128  -0.341622  -0.274699  0.024329  3.623261  0.037
N  N299  1  0.80438593  0.33958062  0.91385431  1  -1.215282  0.04633  -0.341525  -0.274078  0.02443  3.623873  0.038
O  O300  1  0.41436338  0.75013632  0.29316160  1  -1.163923  0.074374  -0.301419  -0.560792  0.03698  2.394692  0.069
O  O301  1  0.66370826  0.24977394  0.20687727  1  -1.154947  0.074301  -0.301658  -0.560906  0.036933  2.396356  0.069
O  O302  1  0.58564707  0.24986334  0.70686116  1  -1.163599  0.074411  -0.301504  -0.56094  0.037002  2.394692  0.069
O  O303  1  0.33628561  0.75023400  0.79311094  1  -1.154729  0.074285  -0.301567  -0.560952  0.036929  2.396718  0.069
O  O304  1  0.59392236  0.83472200  0.26418039  1  -1.170251  0.073019  -0.335295  -0.607223  0.037217  2.357374  0.06
O  O305  1  0.75860219  0.16520438  0.23587346  1  -1.170292  0.073101  -0.335534  -0.607  0.037285  2.355256  0.06
O  O306  1  0.40608935  0.16528378  0.73582932  1  -1.170104  0.073013  -0.335239  -0.607079  0.037215  2.357771  0.06
O  O307  1  0.24139630  0.83480919  0.76411593  1  -1.170628  0.073118  -0.33554  -0.607099  0.037295  2.355327  0.06
O  O308  1  0.66398312  0.10493665  0.34283615  1  -1.153274  0.06281  -0.306984  -0.567024  0.032755  2.429961  0.054
O  O309  1  0.55867268  0.89492889  0.15733988  1  -1.157177  0.062682  -0.307004  -0.566593  0.032638  2.428331  0.054
O  O310  1  0.33600582  0.89507586  0.65716882  1  -1.153588  0.062824  -0.306883  -0.566879  0.03276  2.429666  0.054
O  O311  1  0.44132815  0.10507856  0.84266532  1  -1.157233  0.062686  -0.307057  -0.566619  0.032637  2.428657  0.054
O  O312  1  0.48629424  0.14052674  0.33755064  1  -1.138047  0.066582  -0.309725  -0.539976  0.034137  2.37288  0.053
O  O313  1  0.34535691  0.85933080  0.16240497  1  -1.143967  0.066535  -0.309819  -0.539248  0.034149  2.372154  0.053
O  O314  1  0.51368649  0.85948017  0.66246005  1  -1.13773  0.066571  -0.309666  -0.539896  0.034127  2.373028  0.053
O  O315  1  0.65462976  0.14067717  0.83758922  1  -1.1441  0.066546  -0.309876  -0.539289  0.034157  2.372317  0.053
O  O316  1  0.57683237  0.63987923  0.24403186  1  -1.177055  0.064667  -0.315899  -0.574072  0.033662  2.424613  0.058
O  O317  1  0.93661334  0.35999867  0.25588725  1  -1.174443  0.064737  -0.315601  -0.574412  0.033764  2.426015  0.058
O  O318  1  0.42315907  0.36011305  0.75597401  1  -1.177008  0.064671  -0.315865  -0.573977  0.033664  2.424726  0.058
O  O319  1  0.06338242  0.63999862  0.74410966  1  -1.174276  0.064721  -0.315546  -0.574337  0.033763  2.426422  0.058
O  O320  1  0.72167347  0.73497311  0.20023827  1  -1.185018  0.069367  -0.313952  -0.613099  0.03726  2.404662  0.059
O  O321  1  0.98625428  0.26498119  0.29983882  1  -1.182528  0.069517  -0.313891  -0.613943  0.037371  2.40568  0.059
O  O322  1  0.27833419  0.26502818  0.79977353  1  -1.185102  0.069386  -0.31402  -0.613073  0.03727  2.404816  0.059
O  O323  1  0.01374384  0.73501722  0.70015538  1  -1.182305  0.069549  -0.313973  -0.614205  0.037389  2.40553  0.059
O  O324  1  0.17319283  0.72925980  0.20323219  1  -1.149942  0.079749  -0.308346  -0.546239  0.040241  2.342222  0.066
O  O325  1  0.44345464  0.27040228  0.29682502  1  -1.148578  0.079718  -0.308436  -0.545652  0.040397  2.342375  0.066
O  O326  1  0.82678762  0.27072851  0.79676615  1  -1.149977  0.079768  -0.308444  -0.546227  0.040253  2.342358  0.066
O  O327  1  0.55654467  0.72959673  0.70317841  1  -1.148778  0.079731  -0.30845  -0.545804  0.040404  2.342095  0.066
O  O328  1  0.21272513  0.62797002  0.24071059  1  -1.165157  0.082036  -0.312016  -0.561739  0.043396  2.437617  0.069
O  O329  1  0.58437386  0.37178785  0.25946549  1  -1.166677  0.082488  -0.312901  -0.563006  0.043444  2.438682  0.069
O  O330  1  0.78726810  0.37202224  0.75929344  1  -1.165412  0.082059  -0.311997  -0.5618  0.043409  2.437827  0.069
O  O331  1  0.41562444  0.62820552  0.74053308  1  -1.166832  0.082467  -0.312855  -0.562983  0.043439  2.438772  0.069
O  O332  1  0.63790274  0.12029683  0.50259024  1  -1.147122  0.076525  -0.301729  -0.524203  0.03993  2.391832  0.066
O  O333  1  0.51765419  0.87977676  0.99734750  1  -1.141111  0.076453  -0.301114  -0.523795  0.039891  2.391361  0.066
O  O334  1  0.36209688  0.87972081  0.49743151  1  -1.146965  0.076525  -0.301772  -0.52434  0.039933  2.391478  0.066
O  O335  1  0.48233764  0.12022888  0.00262912  1  -1.141072  0.076478  -0.30118  -0.524045  0.0399  2.391458  0.066
O  O336  1  0.60849365  0.21487006  0.45093649  1  -1.184269  0.045414  -0.310539  -0.579727  0.022719  2.366797  0.038
O  O337  1  0.39350418  0.78521207  0.04900168  1  -1.184755  0.0452  -0.310676  -0.580069  0.022589  2.365625  0.037
O  O338  1  0.39150320  0.78514024  0.54907849  1  -1.184331  0.045418  -0.310424  -0.579719  0.022722  2.366926  0.038
O  O339  1  0.60647363  0.21479078  0.95097940  1  -1.184467  0.045226  -0.310719  -0.580005  0.022602  2.365965  0.037
O  O340  1  0.13808650  0.21889966  0.43939476  1  -1.116764  0.090387  -0.309099  -0.537084  0.045898  2.311815  0.073
O  O341  1  0.91922441  0.78100785  0.06049687  1  -1.124318  0.090616  -0.309465  -0.536826  0.045934  2.31037  0.073
O  O342  1  0.86192742  0.78111234  0.56062306  1  -1.116765  0.09038  -0.309181  -0.537116  0.04589  2.311815  0.073
O  O343  1  0.08078257  0.21899388  0.93948370  1  -1.124144  0.090616  -0.309619  -0.536875  0.045931  2.310544  0.073
O  O344  1  0.00770135  0.13959086  0.50205700  1  -1.174391  0.070319  -0.317571  -0.589002  0.037116  2.446703  0.061
O  O345  1  0.86810730  0.86044171  0.99801430  1  -1.176775  0.070451  -0.317556  -0.587503  0.037126  2.446199  0.061
O  O346  1  0.99230644  0.86042509  0.49796329  1  -1.174588  0.07031  -0.317537  -0.588998  0.037111  2.446431  0.061
O  O347  1  0.13189608  0.13956000  0.00196214  1  -1.177515  0.070465  -0.31754  -0.58739  0.037135  2.446615  0.061
O  O348  1  0.16032653  0.75902281  0.44715570  1  -1.155897  0.07459  -0.307334  -0.555521  0.038483  2.406347  0.064
O  O349  1  0.40125051  0.24103416  0.05278407  1  -1.152139  0.07452  -0.306672  -0.554955  0.038498  2.406593  0.064
O  O350  1  0.83967817  0.24097797  0.55286711  1  -1.15634  0.074596  -0.307176  -0.55526  0.038479  2.406246  0.064
O  O351  1  0.59877588  0.75896134  0.94718518  1  -1.151647  0.074496  -0.306643  -0.554835  0.038486  2.406366  0.064
O  O352  1  0.98861105  0.67235196  0.48158876  1  -1.142258  0.090767  -0.320367  -0.560891  0.045079  2.361317  0.074
O  O353  1  0.31637203  0.32772558  0.01832806  1  -1.1406  0.090879  -0.320781  -0.560387  0.045151  2.360907  0.075
O  O354  1  0.01139561  0.32764373  0.51842829  1  -1.141947  0.090776  -0.320497  -0.560857  0.045085  2.361355  0.074
O  O355  1  0.68364330  0.67226940  0.98165357  1  -1.140171  0.09088  -0.320709  -0.560301  0.045151  2.361196  0.075
O  O356  1  0.91766574  0.39830976  0.40814684  1  -1.195127  0.014031  -0.306991  -0.559963  0.006443  2.233752  0.01
O  O357  1  0.51918930  0.60164713  0.09191271  1  -1.195024  0.013951  -0.307368  -0.560356  0.006412  2.235268  0.01
O  O358  1  0.08233561  0.60169152  0.59186174  1  -1.195305  0.014033  -0.307027  -0.559986  0.006443  2.233479  0.01
O  O359  1  0.48081359  0.39833379  0.90806690  1  -1.195089  0.013958  -0.30734  -0.56023  0.006414  2.235086  0.01
O  O360  1  0.10378032  0.37189584  0.40487156  1  -1.121394  0.085211  -0.311217  -0.53638  0.043317  2.375988  0.065
O  O361  1  0.73174107  0.62810812  0.09522708  1  -1.133648  0.085199  -0.311494  -0.536909  0.043292  2.37658  0.065
O  O362  1  0.89621963  0.62810266  0.59514333  1  -1.121606  0.08521  -0.311264  -0.536455  0.043314  2.375947  0.065
O  O363  1  0.26826096  0.37188009  0.90474965  1  -1.133916  0.085169  -0.311577  -0.536755  0.043276  2.376518  0.065
O  O364  1  0.44293085  0.70842371  0.16168344  1  -1.206504  0.236306  -0.5614  -0.909091  0.12776  2.462919  0.207
O  O365  1  0.73429679  0.29144412  0.33835864  1  -1.203041  0.236544  -0.560791  -0.909352  0.127659  2.462877  0.207
O  O366  1  0.55707764  0.29157923  0.83831879  1  -1.206369  0.236358  -0.561412  -0.909147  0.127786  2.463221  0.207
O  O367  1  0.26569627  0.70855320  0.66164471  1  -1.203095  0.236565  -0.560701  -0.909262  0.127667  2.462691  0.207
O  O368  1  0.63473666  0.78912105  0.08222196  1  -1.2032  0.22145  -0.567847  -0.901779  0.12115  2.452428  0.185
O  O369  1  0.84559551  0.21082035  0.41779964  1  -1.208698  0.221565  -0.567933  -0.900999  0.121091  2.452509  0.185
O  O370  1  0.36527781  0.21087403  0.91778220  1  -1.203872  0.221494  -0.567852  -0.901714  0.12118  2.453198  0.185
O  O371  1  0.15441119  0.78918263  0.58220995  1  -1.209457  0.221582  -0.568018  -0.90105  0.1211  2.453005  0.185
O  O372  1  0.80961343  0.88459770  0.18905374  1  -1.226709  0.045106  -0.560473  -0.72683  0.023176  1.985069  0.036
O  O373  1  0.92503053  0.11534742  0.31081029  1  -1.246789  0.045188  -0.560665  -0.727411  0.023205  1.984539  0.036
O  O374  1  0.19038639  0.11540414  0.81095303  1  -1.22667  0.045099  -0.560469  -0.726966  0.023174  1.984877  0.036
O  O375  1  0.07496713  0.88465549  0.68918505  1  -1.246813  0.045196  -0.56059  -0.727208  0.023208  1.984531  0.036
