# generated using pymatgen
data_Zn6H72C92I12N24O5
_symmetry_space_group_name_H-M   'P 1'
_cell_length_a   14.83803217
_cell_length_b   19.06244150
_cell_length_c   30.47401906
_cell_angle_alpha   100.40114787
_cell_angle_beta   89.99923518
_cell_angle_gamma   112.91339149
_symmetry_Int_Tables_number   1
_chemical_formula_structural   Zn6H72C92I12N24O5
_chemical_formula_sum   'Zn12 H144 C184 I24 N48 O10'
_cell_volume   7785.42670411
_cell_formula_units_Z   2
loop_
 _symmetry_equiv_pos_site_id
 _symmetry_equiv_pos_as_xyz
  1  'x, y, z'
loop_
 _atom_site_type_symbol
 _atom_site_label
 _atom_site_symmetry_multiplicity
 _atom_site_fract_x
 _atom_site_fract_y
 _atom_site_fract_z
 _atom_site_occupancy
 _atom_site_pbe_bader_charge
 _atom_site_pbe_bader_spin_density
 _atom_site_pbe_cm5_charge
 _atom_site_pbe_ddec_charge
 _atom_site_pbe_ddec_spin_density
 _atom_site_pbe_ddec_sum_bond_order
 _atom_site_pbe_magmom
Zn  Zn0  1  0.25573250  0.21690055  0.17275004  1  0.900309  0  0.44319  0.44421  0  2.749953  0
Zn  Zn1  1  0.96121554  0.21679447  0.67269908  1  0.899983  0  0.442894  0.443916  0  2.750045  0
Zn  Zn2  1  0.30418887  0.81461232  0.00724630  1  0.90657  0  0.445283  0.468533  0  2.758466  0
Zn  Zn3  1  0.51046090  0.81464653  0.50708781  1  0.905645  0  0.445051  0.468666  0  2.758325  0
Zn  Zn4  1  0.57535314  0.41505735  0.34599264  1  0.905226  0  0.444913  0.463617  0  2.743458  0
Zn  Zn5  1  0.83945033  0.41503786  0.84599097  1  0.902058  0  0.445257  0.464005  0  2.744885  0
Zn  Zn6  1  0.31335319  0.91683580  0.71592517  1  0.908123  0  0.451043  0.455225  0  2.741516  0
Zn  Zn7  1  0.60352235  0.91693775  0.21600395  1  0.90637  0  0.451363  0.455677  0  2.741222  0
Zn  Zn8  1  0.26264584  0.31876296  0.88483129  1  0.915111  0  0.453471  0.479698  0  2.736505  0
Zn  Zn9  1  0.05611630  0.31861273  0.38481126  1  0.913868  0  0.453425  0.479435  0  2.736297  0
Zn  Zn10  1  0.98739027  0.72032116  0.54360592  1  0.909938  0  0.449241  0.477074  0  2.726727  0
Zn  Zn11  1  0.73287050  0.72021533  0.04353692  1  0.910083  0  0.449264  0.475942  0  2.728994  0
H  H12  1  0.07067794  0.10083122  0.11431052  1  0.114986  0  0.113748  0.087758  0  1.004761  0
H  H13  1  0.03015548  0.10066670  0.61425732  1  0.134394  0  0.114053  0.087844  0  1.004453  0
H  H14  1  0.89054038  0.07533300  0.10761105  1  0.133948  0  0.119874  0.132242  0  0.98239  0
H  H15  1  0.18488239  0.07526251  0.60756179  1  0.128849  0  0.119817  0.132344  0  0.981595  0
H  H16  1  0.95181514  0.27451828  0.21379305  1  0.122653  0  0.113805  0.122087  0  1.011322  0
H  H17  1  0.32275977  0.27453029  0.71372039  1  0.125643  0  0.113825  0.121731  0  1.0114  0
H  H18  1  0.12941070  0.29269755  0.21569390  1  0.107995  0  0.100634  0.077473  0  1.044882  0
H  H19  1  0.16330478  0.29260784  0.71560464  1  0.125652  0  0.100506  0.077305  0  1.044743  0
H  H20  1  0.31529509  0.93012429  0.09108759  1  0.120869  0  0.102239  0.082907  0  1.031064  0
H  H21  1  0.61467105  0.93003709  0.59090816  1  0.108216  0  0.102143  0.082502  0  1.031548  0
H  H22  1  0.44579962  0.04203270  0.14201363  1  0.126471  0  0.09838  0.110327  0  1.05285  0
H  H23  1  0.59605464  0.04181326  0.64193850  1  0.125087  0  0.098  0.109851  0  1.053058  0
H  H24  1  0.66182143  0.98131501  0.06764775  1  0.121021  0  0.110733  0.12027  0  1.004735  0
H  H25  1  0.31937314  0.98127513  0.56757256  1  0.096468  0  0.11058  0.120078  0  1.004442  0
H  H26  1  0.52351480  0.87580838  0.01816179  1  0.140625  0  0.103609  0.090327  0  1.023892  0
H  H27  1  0.35205913  0.87574477  0.51804202  1  0.137  0  0.103478  0.090406  0  1.02385  0
H  H28  1  0.75426126  0.41013661  0.30666713  1  0.095765  0  0.111509  0.084708  0  1.005546  0
H  H29  1  0.65556016  0.40994832  0.80666984  1  0.126667  0  0.111395  0.084739  0  1.005952  0
H  H30  1  0.80484350  0.32697887  0.24713602  1  0.122396  0  0.106663  0.118411  0  1.019956  0
H  H31  1  0.52199860  0.32683211  0.74705608  1  0.119109  0  0.106531  0.118199  0  1.019417  0
H  H32  1  0.50054681  0.16794248  0.22312217  1  0.118179  0  0.108377  0.113923  0  1.030111  0
H  H33  1  0.66760412  0.16806169  0.72300363  1  0.121016  0  0.108489  0.114021  0  1.030462  0
H  H34  1  0.46335684  0.25439869  0.28693036  1  0.118571  0  0.100586  0.08091  0  1.045318  0
H  H35  1  0.79109575  0.25450963  0.78686975  1  0.130477  0  0.100324  0.080335  0  1.045809  0
H  H36  1  0.61719039  0.33819953  0.41401112  1  0.127861  0  0.109003  0.084668  0  1.016669  0
H  H37  1  0.72049735  0.33794143  0.91396064  1  0.110222  0  0.109327  0.084623  0  1.01656  0
H  H38  1  0.76033082  0.34947962  0.46359292  1  0.137299  0  0.119697  0.132195  0  0.982918  0
H  H39  1  0.58871773  0.34936537  0.96357176  1  0.134227  0  0.119724  0.132027  0  0.98339  0
H  H40  1  0.93024089  0.56412422  0.42187022  1  0.128337  0  0.116191  0.12953  0  0.987625  0
H  H41  1  0.63410276  0.56420988  0.92197580  1  0.125182  0  0.116332  0.129992  0  0.987155  0
H  H42  1  0.78003673  0.54403706  0.37349839  1  0.123189  0  0.106498  0.079966  0  1.022206  0
H  H43  1  0.76408945  0.54398270  0.87358950  1  0.116526  0  0.106478  0.079737  0  1.022604  0
H  H44  1  0.08097354  0.37945072  0.66681062  1  0.103501  0  0.106009  0.074483  0  1.041319  0
H  H45  1  0.29835832  0.37953151  0.16681931  1  0.107049  0  0.106162  0.074949  0  1.041626  0
H  H46  1  0.10572873  0.46817365  0.61220037  1  0.142124  0  0.112891  0.122011  0  1.027314  0
H  H47  1  0.36231296  0.46821707  0.11217091  1  0.100766  0  0.112459  0.121272  0  1.027931  0
H  H48  1  0.86466464  0.28540085  0.52795932  1  0.134739  0  0.115202  0.130727  0  0.986185  0
H  H49  1  0.42068306  0.28543242  0.02801150  1  0.122544  0  0.115411  0.130913  0  0.987413  0
H  H50  1  0.85383505  0.20136488  0.58466711  1  0.130003  0  0.105051  0.082744  0  1.03171  0
H  H51  1  0.34747509  0.20144329  0.08473759  1  0.126987  0  0.105068  0.082866  0  1.03152  0
H  H52  1  0.34144817  0.71827927  0.43708298  1  0.131978  0  0.105632  0.084816  0  1.018288  0
H  H53  1  0.37694110  0.71836662  0.93722541  1  0.11712  0  0.105361  0.084595  0  1.017989  0
H  H54  1  0.17639373  0.60617385  0.43295449  1  0.100839  0  0.115708  0.128567  0  0.981596  0
H  H55  1  0.42986433  0.60628134  0.93303089  1  0.123171  0  0.115532  0.128352  0  0.981295  0
H  H56  1  0.23711751  0.60718052  0.57144846  1  0.124663  0  0.11284  0.121598  0  1.011374  0
H  H57  1  0.36994944  0.60700285  0.07148920  1  0.12444  0  0.112674  0.12144  0  1.012218  0
H  H58  1  0.39884663  0.71920883  0.57013573  1  0.115305  0  0.110519  0.083097  0  1.007869  0
H  H59  1  0.32020286  0.71901319  0.07022762  1  0.096023  0  0.110432  0.083533  0  1.007536  0
H  H60  1  0.43993132  0.84237749  0.67379278  1  0.12307  0  0.104312  0.080133  0  1.043895  0
H  H61  1  0.40263344  0.84255944  0.17375337  1  0.130416  0  0.104262  0.080089  0  1.043557  0
H  H62  1  0.61708335  0.85993434  0.67756355  1  0.143288  0  0.116875  0.127614  0  1.013074  0
H  H63  1  0.24297817  0.86009100  0.17751449  1  0.152731  0  0.116608  0.127255  0  1.013092  0
H  H64  1  0.67849457  0.06697026  0.77791938  1  0.120691  0  0.116616  0.128514  0  0.988311  0
H  H65  1  0.38838242  0.06695594  0.27801608  1  0.115258  0  0.116849  0.1287  0  0.98801  0
H  H66  1  0.49871473  0.04220724  0.76923545  1  0.121475  0  0.112055  0.08499  0  1.007331  0
H  H67  1  0.54346148  0.04223432  0.26935642  1  0.127146  0  0.112036  0.085024  0  1.00663  0
H  H68  1  0.10321431  0.87992517  0.60315252  1  0.123593  0  0.100165  0.079771  0  1.042549  0
H  H69  1  0.77684325  0.87981130  0.10298051  1  0.122277  0  0.100058  0.079312  0  1.043391  0
H  H70  1  0.06789076  0.96710156  0.66715709  1  0.124108  0  0.105073  0.11172  0  1.034366  0
H  H71  1  0.89948722  0.96702638  0.16694826  1  0.124127  0  0.105186  0.111431  0  1.034091  0
H  H72  1  0.76287900  0.80751701  0.64510722  1  0.161333  0  0.108599  0.126446  0  1.037509  0
H  H73  1  0.04469525  0.80735577  0.14499374  1  0.153903  0  0.108521  0.126609  0  1.038181  0
H  H74  1  0.81155613  0.72544972  0.58455828  1  0.108877  0  0.11141  0.085626  0  1.003206  0
H  H75  1  0.91380258  0.72521837  0.08447785  1  0.105128  0  0.111235  0.085755  0  1.003671  0
H  H76  1  0.04373838  0.25084892  0.87776958  1  0.113864  0  0.105521  0.089121  0  1.017432  0
H  H77  1  0.20689061  0.25051944  0.37775333  1  0.113203  0  0.105675  0.089295  0  1.017785  0
H  H78  1  0.90524444  0.14619299  0.82752188  1  0.123706  0  0.112106  0.12209  0  1.000978  0
H  H79  1  0.24070035  0.14593029  0.32740167  1  0.101773  0  0.112079  0.122335  0  1.000589  0
H  H80  1  0.12151513  0.09833592  0.74677215  1  0.148976  0  0.097846  0.111594  0  1.051998  0
H  H81  1  0.97653029  0.09817683  0.24669748  1  0.14275  0  0.097588  0.110985  0  1.051673  0
H  H82  1  0.25192750  0.20901551  0.79879862  1  0.11555  0  0.099299  0.080547  0  1.03845  0
H  H83  1  0.95692424  0.20887285  0.29878109  1  0.120727  0  0.09909  0.080025  0  1.039546  0
H  H84  1  0.78291028  0.59471071  0.51693908  1  0.11327  0  0.103385  0.076037  0  1.037003  0
H  H85  1  0.81180680  0.59468979  0.01693063  1  0.109244  0  0.103511  0.076257  0  1.035475  0
H  H86  1  0.63469265  0.57327536  0.46689035  1  0.125284  0  0.113146  0.12539  0  1.034099  0
H  H87  1  0.93873796  0.57339623  0.96691758  1  0.115588  0  0.11295  0.125347  0  1.033283  0
H  H88  1  0.80704773  0.78404395  0.42228769  1  0.118451  0  0.119081  0.131961  0  0.9827  0
H  H89  1  0.97707870  0.78412721  0.92232257  1  0.123925  0  0.119097  0.131725  0  0.982551  0
H  H90  1  0.94936039  0.79600024  0.47295151  1  0.121301  0  0.106547  0.082806  0  1.021181  0
H  H91  1  0.84664613  0.79599289  0.97296717  1  0.115839  0  0.106548  0.082451  0  1.021445  0
H  H92  1  0.16079636  0.41910278  0.32352888  1  0.081594  0  0.104927  0.076893  0  1.019961  0
H  H93  1  0.25835992  0.41916126  0.82365209  1  0.097873  0  0.104649  0.076419  0  1.020322  0
H  H94  1  0.32132701  0.53255649  0.32209042  1  0.104407  0  0.110966  0.119791  0  1.026936  0
H  H95  1  0.21119363  0.53252013  0.82214942  1  0.123282  0  0.110669  0.119395  0  1.027212  0
H  H96  1  0.39167486  0.52413933  0.45787694  1  0.116999  0  0.116394  0.132127  0  1.004862  0
H  H97  1  0.13225712  0.52414392  0.95791153  1  0.155799  0  0.11634  0.131828  0  1.005205  0
H  H98  1  0.22992203  0.41213085  0.45404524  1  0.140296  0  0.107968  0.085576  0  1.033127  0
H  H99  1  0.18199154  0.41216841  0.95413472  1  0.129555  0  0.10827  0.086241  0  1.033508  0
H  H100  1  0.71717990  0.92754933  0.30067126  1  0.109294  0  0.104186  0.080936  0  1.030837  0
H  H101  1  0.21067749  0.92765901  0.80074315  1  0.112268  0  0.104115  0.081014  0  1.030293  0
H  H102  1  0.70554740  0.84258028  0.35696330  1  0.11279  0  0.114954  0.127467  0  0.988985  0
H  H103  1  0.13732976  0.84268691  0.85704193  1  0.129308  0  0.115045  0.127381  0  0.989604  0
H  H104  1  0.43203190  0.67862941  0.28594186  1  0.132311  0  0.110211  0.119559  0  1.025374  0
H  H105  1  0.24630415  0.67851601  0.78585029  1  0.131328  0  0.11016  0.119379  0  1.024976  0
H  H106  1  0.45444657  0.76847379  0.23257595  1  0.146661  0  0.113391  0.090662  0  1.026047  0
H  H107  1  0.31369757  0.76833964  0.73248090  1  0.129167  0  0.113319  0.090759  0  1.027122  0
H  H108  1  0.36678400  0.27009279  0.56384072  1  0.055639  0  0.109398  0.06138  0  0.93073  0
H  H109  1  0.90339215  0.27021625  0.06385452  1  0.02276  0  0.109306  0.06115  0  0.930223  0
H  H110  1  0.24457347  0.29109665  0.51655728  1  0.040964  0  0.092821  0.112584  0  0.995707  0
H  H111  1  0.04665084  0.29125363  0.01660219  1  0.045026  0  0.09303  0.113058  0  0.995626  0
H  H112  1  0.20609471  0.29181392  0.57195984  1  0.012456  0  0.09165  0.107039  0  0.980195  0
H  H113  1  0.08578112  0.29191637  0.07199570  1  0.016374  0  0.091459  0.107219  0  0.980359  0
H  H114  1  0.20592741  0.40789048  0.54046547  1  0.089005  0  0.097155  0.052515  0  0.992372  0
H  H115  1  0.20210455  0.40803918  0.04053868  1  0.089897  0  0.097547  0.053067  0  0.992144  0
H  H116  1  0.24395818  0.42259717  0.62498043  1  0.036738  0  0.092142  0.104243  0  1.006229  0
H  H117  1  0.17871366  0.42264526  0.12504704  1  0.024158  0  0.092419  0.104988  0  1.005847  0
H  H118  1  0.30130640  0.50978831  0.60453738  1  0.027999  0  0.094772  0.107936  0  1.01032  0
H  H119  1  0.20862097  0.50988503  0.10464043  1  0.063194  0  0.09502  0.108531  0  1.009842  0
H  H120  1  0.46409094  0.37239582  0.62702853  1  0.0495  0  0.096772  0.110415  0  0.995306  0
H  H121  1  0.90834589  0.37244791  0.12707032  1  0.060627  0  0.096587  0.110096  0  0.995192  0
H  H122  1  0.33853963  0.34262482  0.63882385  1  0.017035  0  0.087979  0.10027  0  1.01759  0
H  H123  1  0.00406377  0.34261856  0.13886384  1  0.019556  0  0.088031  0.100628  0  1.017293  0
H  H124  1  0.37935427  0.48549757  0.68702797  1  0.026932  0  0.09559  0.072325  0  0.992532  0
H  H125  1  0.10617825  0.48552623  0.18712817  1  0.017743  0  0.095743  0.072637  0  0.992114  0
H  H126  1  0.42954222  0.60171000  0.63277040  1  0.080955  0  0.112638  0.114488  0  0.975981  0
H  H127  1  0.17222969  0.60163932  0.13278808  1  0.07618  0  0.112769  0.114871  0  0.975723  0
H  H128  1  0.68733164  0.60482697  0.68837677  1  0.079661  0  0.109329  0.129571  0  0.962313  0
H  H129  1  0.91768220  0.60492483  0.18846085  1  0.074141  0  0.109274  0.129871  0  0.962357  0
H  H130  1  0.63139086  0.55815108  0.63348493  1  0.108376  0  0.114336  0.141485  0  0.963541  0
H  H131  1  0.92685063  0.55821156  0.13356851  1  0.088854  0  0.114495  0.141771  0  0.964137  0
H  H132  1  0.53844897  0.52529199  0.72145471  1  -0.012484  0  0.090666  0.084902  0  0.982648  0
H  H133  1  0.98680750  0.52527521  0.22152576  1  -0.012626  0  0.090768  0.085371  0  0.98175  0
H  H134  1  0.54471807  0.45619324  0.67587395  1  0.06058  0  0.094816  0.095826  0  1.00156  0
H  H135  1  0.91151949  0.45623077  0.17589892  1  0.028801  0  0.094828  0.095892  0  1.001661  0
H  H136  1  0.44749776  0.62796689  0.73510069  1  0.030398  0  0.095976  0.035435  0  0.956443  0
H  H137  1  0.18076916  0.62800188  0.23511134  1  0.016914  0  0.09599  0.035322  0  0.956002  0
H  H138  1  0.51843921  0.73212241  0.69176083  1  0.600945  0  0.291281  0.327234  0  1.006299  0
H  H139  1  0.21380220  0.73211479  0.19171198  1  0.606332  0  0.291037  0.327138  0  1.006915  0
H  H140  1  0.30010183  0.53142289  0.75099455  1  0.029532  0  0.094233  0.091139  0  1.016255  0
H  H141  1  0.23151709  0.53142620  0.25088874  1  0.051083  0  0.094421  0.091321  0  1.017302  0
H  H142  1  0.11716401  0.48057944  0.75061547  1  0.089849  0  0.083837  0.087363  0  1.056441  0
H  H143  1  0.36361286  0.48057580  0.25047537  1  0.089097  0  0.0841  0.087895  0  1.056988  0
H  H144  1  0.02335744  0.52605902  0.70370999  1  0.066718  0  0.096866  0.1028  0  1.000656  0
H  H145  1  0.50284366  0.52611955  0.20350421  1  0.081352  0  0.097147  0.103668  0  0.999902  0
H  H146  1  0.11122525  0.61980707  0.65471445  1  0.088513  0  0.087189  0.095045  0  1.040807  0
H  H147  1  0.50864889  0.61987067  0.15455818  1  0.095508  0  0.087442  0.095414  0  1.040394  0
H  H148  1  0.29254584  0.66931414  0.65485132  1  0.080544  0  0.091579  0.092875  0  1.043396  0
H  H149  1  0.37690767  0.66944225  0.15480148  1  0.074164  0  0.091575  0.092917  0  1.043673  0
H  H150  1  0.52412558  0.54562882  0.51610505  1  0.038748  0  0.096855  0.148097  0  1.002589  0
H  H151  1  0.02166950  0.54584279  0.01622762  1  0.070025  0  0.096881  0.148765  0  1.002601  0
H  H152  1  0.49872514  0.45445005  0.47840702  1  0.06133  0  0.088308  0.145865  0  1.03187  0
H  H153  1  0.95587026  0.45465446  0.97852131  1  0.053996  0  0.088448  0.146191  0  1.032204  0
H  H154  1  0.58942951  0.48689236  0.52469859  1  0.061484  0  0.099255  0.154326  0  0.975637  0
H  H155  1  0.89761214  0.48705824  0.02480784  1  0.055951  0  0.099257  0.154502  0  0.976318  0
C  C156  1  0.04098083  0.13864302  0.13495199  1  0.44517  0  0.053804  0.097676  0  3.910809  0
C  C157  1  0.09766976  0.13850489  0.63489491  1  0.489331  0  0.053504  0.097279  0  3.911786  0
C  C158  1  0.94162801  0.12464385  0.13147784  1  0.009369  0  -0.065742  -0.134781  0  3.899567  0
C  C159  1  0.18302963  0.12453547  0.63144021  1  -0.009034  0  -0.066161  -0.135502  0  3.898837  0
C  C160  1  0.90782194  0.17400802  0.15992237  1  -0.04373  0  0.020257  0.056278  0  3.934659  0
C  C161  1  0.26620867  0.17392910  0.65988705  1  -0.046592  0  0.020869  0.05831  0  3.93343  0
C  C162  1  0.97602674  0.23607247  0.19055799  1  -0.015793  0  -0.070266  -0.136879  0  3.924128  0
C  C163  1  0.26008829  0.23601116  0.69050160  1  -0.02279  0  -0.069963  -0.137007  0  3.922401  0
C  C164  1  0.07382169  0.24632029  0.19172285  1  0.490673  0  0.0445  0.08761  0  3.93248  0
C  C165  1  0.17252365  0.24623615  0.69164253  1  0.465162  0  0.044477  0.088401  0  3.929872  0
C  C166  1  0.80231501  0.16047295  0.16012481  1  1.142038  0  0.259956  0.374913  0  4.027443  0
C  C167  1  0.35816435  0.16042322  0.66005671  1  1.128363  0  0.258589  0.371282  0  4.031002  0
C  C168  1  0.64230315  0.08619423  0.13832574  1  1.125453  0  0.265583  0.387026  0  3.986411  0
C  C169  1  0.44385120  0.08611829  0.63824436  1  1.096944  0  0.265751  0.3868  0  3.98349  0
C  C170  1  0.68396272  0.19119811  0.19489626  1  1.128402  0  0.264604  0.383436  0  4.017106  0
C  C171  1  0.50728058  0.19115330  0.69478880  1  1.120868  0  0.264138  0.382295  0  4.016856  0
C  C172  1  0.39320741  0.94450965  0.08698500  1  0.448746  0  0.044853  0.092633  0  3.915844  0
C  C173  1  0.55110958  0.94439243  0.58685152  1  0.495231  0  0.044492  0.092858  0  3.915534  0
C  C174  1  0.46567660  0.00578247  0.11527414  1  -0.021422  0  -0.077114  -0.136169  0  3.924616  0
C  C175  1  0.53992319  0.00562291  0.61517913  1  -0.051601  0  -0.076644  -0.135541  0  3.923676  0
C  C176  1  0.56442103  0.02084663  0.10852077  1  -0.014852  0  0.013243  0.04476  0  3.943027  0
C  C177  1  0.45630289  0.02074317  0.60842810  1  0.037292  0  0.012509  0.044196  0  3.94257  0
C  C178  1  0.58631198  0.97301483  0.07345200  1  -0.030116  0  -0.070644  -0.127239  0  3.920829  0
C  C179  1  0.38657369  0.97295682  0.57335001  1  -0.038068  0  -0.070305  -0.127381  0  3.920678  0
C  C180  1  0.50936885  0.91382369  0.04605701  1  0.491269  0  0.047842  0.099928  0  3.909369  0
C  C181  1  0.40425792  0.91374195  0.54593792  1  0.479082  0  0.048388  0.100331  0  3.908871  0
C  C182  1  0.70057620  0.35549183  0.28779102  1  0.476092  0  0.047035  0.099623  0  3.926156  0
C  C183  1  0.65472001  0.35538095  0.78775507  1  0.446656  0  0.047793  0.099616  0  3.926138  0
C  C184  1  0.72829198  0.30999557  0.25434342  1  0.025817  0  -0.073612  -0.133038  0  3.92243  0
C  C185  1  0.58160900  0.30989934  0.75426089  1  0.001907  0  -0.074084  -0.132358  0  3.920306  0
C  C186  1  0.65611191  0.24119104  0.23041892  1  -0.049799  0  0.016566  0.052925  0  3.93876  0
C  C187  1  0.58512447  0.24117202  0.73030945  1  -0.004216  0  0.016648  0.05304  0  3.938162  0
C  C188  1  0.55874990  0.22037963  0.24156422  1  -0.001047  0  -0.069941  -0.133279  0  3.903238  0
C  C189  1  0.66173910  0.22044161  0.74145449  1  -0.052833  0  -0.070237  -0.134477  0  3.903259  0
C  C190  1  0.53767129  0.26816055  0.27652926  1  0.484369  0  0.047841  0.09609  0  3.916101  0
C  C191  1  0.73050927  0.26821700  0.77645602  1  0.499082  0  0.047755  0.097635  0  3.915492  0
C  C192  1  0.68833686  0.38692945  0.41670589  1  0.413727  0  0.04966  0.097841  0  3.910781  0
C  C193  1  0.69819344  0.38671317  0.91666701  1  0.50428  0  0.049425  0.097621  0  3.909515  0
C  C194  1  0.76695887  0.39353176  0.44410998  1  0.034474  0  -0.065244  -0.124202  0  3.9008  0
C  C195  1  0.62623538  0.39340685  0.94407997  1  -0.041006  0  -0.065509  -0.123984  0  3.901482  0
C  C196  1  0.85602838  0.45757393  0.44597163  1  -0.01896  0  0.018127  0.055985  0  3.94621  0
C  C197  1  0.60144868  0.45754576  0.94599002  1  -0.007199  0  0.018478  0.056666  0  3.94757  0
C  C198  1  0.86209389  0.51335214  0.42060662  1  -0.006532  0  -0.070054  -0.132032  0  3.915281  0
C  C199  1  0.65128730  0.51334781  0.92067712  1  0.031865  0  -0.070246  -0.133096  0  3.915235  0
C  C200  1  0.77982556  0.50260798  0.39408883  1  0.47038  0  0.045292  0.085547  0  3.935035  0
C  C201  1  0.72275001  0.50253574  0.89414294  1  0.440509  0  0.045305  0.08603  0  3.932083  0
C  C202  1  0.94105646  0.46644213  0.47507185  1  1.086669  0  0.26302  0.376127  0  4.017996  0
C  C203  1  0.52536740  0.46647787  0.97511768  1  1.106137  0  0.262585  0.375271  0  4.018684  0
C  C204  1  0.00115952  0.43294929  0.53244824  1  1.126651  0  0.26093  0.377624  0  4.036203  0
C  C205  1  0.43179719  0.43297664  0.03249154  1  1.130774  0  0.259971  0.376453  0  4.038165  0
C  C206  1  0.09966495  0.53320446  0.50195243  1  1.094624  0  0.264791  0.381762  0  4.004741  0
C  C207  1  0.43359556  0.53324494  0.00200901  1  1.108477  0  0.264388  0.381243  0  4.004918  0
C  C208  1  0.03678945  0.36020889  0.63494387  1  0.482895  0  0.044814  0.087184  0  3.925974  0
C  C209  1  0.32330084  0.36027928  0.13496166  1  0.504415  0  0.044427  0.085905  0  3.926471  0
C  C210  1  0.04943094  0.40948118  0.60496580  1  -0.003217  0  -0.068039  -0.129477  0  3.904655  0
C  C211  1  0.35990311  0.40952070  0.10496164  1  -0.032854  0  -0.067409  -0.128297  0  3.9029  0
C  C212  1  0.98753345  0.38268563  0.56566124  1  -0.062475  0  0.02034  0.061285  0  3.933876  0
C  C213  1  0.39508232  0.38271639  0.06568821  1  -0.048647  0  0.020389  0.061318  0  3.935831  0
C  C214  1  0.91401173  0.30759516  0.55822033  1  0.06086  0  -0.068806  -0.123901  0  3.905322  0
C  C215  1  0.39348797  0.30763141  0.05825031  1  -0.019589  0  -0.06827  -0.123338  0  3.90808  0
C  C216  1  0.90782016  0.26118585  0.58927072  1  0.408028  0  0.047588  0.095125  0  3.907874  0
C  C217  1  0.35327974  0.26124764  0.08931355  1  0.523002  0  0.047142  0.094402  0  3.908966  0
C  C218  1  0.31490857  0.69099769  0.46576448  1  0.467539  0  0.046716  0.09797  0  3.915396  0
C  C219  1  0.37619385  0.69105777  0.96588536  1  0.46562  0  0.047223  0.098399  0  3.912877  0
C  C220  1  0.22449731  0.62931269  0.46366043  1  -0.055745  0  -0.071107  -0.133882  0  3.928671  0
C  C221  1  0.40490969  0.62937569  0.96375205  1  -0.000434  0  -0.070533  -0.133673  0  3.927273  0
C  C222  1  0.19582341  0.59770021  0.50187027  1  0.096814  0  0.01841  0.054876  0  3.940438  0
C  C223  1  0.40191815  0.59770931  0.00193717  1  -0.033777  0  0.017617  0.054095  0  3.940896  0
C  C224  1  0.25861116  0.62985556  0.54104996  1  -0.042372  0  -0.067471  -0.125712  0  3.897828  0
C  C225  1  0.37116256  0.62974618  0.04111425  1  0.036526  0  -0.067256  -0.124989  0  3.89861  0
C  C226  1  0.34715863  0.69193198  0.54056002  1  0.463521  0  0.048424  0.09565  0  3.925375  0
C  C227  1  0.34468369  0.69180718  0.04065804  1  0.467733  0  0.048459  0.094613  0  3.925091  0
C  C228  1  0.49544272  0.89097002  0.69652749  1  0.458585  0  0.050644  0.104217  0  3.907606  0
C  C229  1  0.39564868  0.89112096  0.19651890  1  0.484682  0  0.050397  0.104072  0  3.908127  0
C  C230  1  0.59298770  0.90063208  0.69888814  1  0.002178  0  -0.065803  -0.127622  0  3.887024  0
C  C231  1  0.30774672  0.90074425  0.19886230  1  -0.023237  0  -0.065662  -0.126782  0  3.886602  0
C  C232  1  0.66084777  0.96449222  0.72850898  1  -0.014074  0  0.019027  0.056937  0  3.936354  0
C  C233  1  0.30368653  0.96453498  0.22851916  1  -0.012287  0  0.018917  0.055874  0  3.936576  0
C  C234  1  0.62744106  0.01649188  0.75474143  1  -0.017329  0  -0.069135  -0.140085  0  3.911625  0
C  C235  1  0.38902992  0.01652759  0.25480490  1  -0.00863  0  -0.068993  -0.13965  0  3.911423  0
C  C236  1  0.52848349  0.00295932  0.75017679  1  0.486644  0  0.051383  0.0959  0  3.91623  0
C  C237  1  0.47447711  0.00302386  0.25025244  1  0.458914  0  0.051574  0.096279  0  3.914924  0
C  C238  1  0.76597916  0.97707423  0.72944297  1  1.11578  0  0.261503  0.375156  0  4.025668  0
C  C239  1  0.21108678  0.97704139  0.22940913  1  1.132785  0  0.26097  0.375609  0  4.023509  0
C  C240  1  0.88457036  0.94498192  0.69579749  1  1.125474  0  0.264732  0.382364  0  4.01457  0
C  C241  1  0.06047636  0.94486925  0.19566197  1  1.121276  0  0.265565  0.384093  0  4.013175  0
C  C242  1  0.92560567  0.04932791  0.75265401  1  1.091181  0  0.262975  0.382025  0  3.994086  0
C  C243  1  0.12354389  0.04917545  0.25257527  1  1.094316  0  0.264439  0.383605  0  3.99376  0
C  C244  1  0.02913757  0.86680442  0.61372006  1  0.471308  0  0.045196  0.094585  0  3.921309  0
C  C245  1  0.83781975  0.86670324  0.11354840  1  0.448593  0  0.044695  0.094144  0  3.923195  0
C  C246  1  0.00903038  0.91490122  0.64884851  1  -0.076761  0  -0.072806  -0.138509  0  3.911551  0
C  C247  1  0.90608746  0.91481482  0.14863787  1  -0.031805  0  -0.072484  -0.136914  0  3.913308  0
C  C248  1  0.91193397  0.89449049  0.66039986  1  0.030259  0  0.016828  0.053171  0  3.933603  0
C  C249  1  0.98270994  0.89437907  0.16021990  1  0.039998  0  0.016341  0.050887  0  3.935975  0
C  C250  1  0.83898640  0.82555010  0.63699355  1  -0.001683  0  -0.070064  -0.128881  0  3.901925  0
C  C251  1  0.98665269  0.82539974  0.13685258  1  -0.012594  0  -0.06957  -0.128095  0  3.90337  0
C  C252  1  0.86581959  0.78006516  0.60317215  1  0.464078  0  0.047664  0.10135  0  3.918686  0
C  C253  1  0.91426246  0.77987433  0.10305252  1  0.453696  0  0.046962  0.100566  0  3.919406  0
C  C254  1  0.05771324  0.21596700  0.84820808  1  0.492663  0  0.046578  0.097704  0  3.915116  0
C  C255  1  0.15806018  0.21571342  0.34816354  1  0.48591  0  0.046779  0.098094  0  3.916689  0
C  C256  1  0.98094582  0.15733638  0.82044837  1  0.007959  0  -0.070139  -0.128695  0  3.920162  0
C  C257  1  0.17615998  0.15711927  0.32036133  1  0.04636  0  -0.07046  -0.128922  0  3.920595  0
C  C258  1  0.00313411  0.11369985  0.78327188  1  -0.083086  0  0.013647  0.050232  0  3.942652  0
C  C259  1  0.11030042  0.11349964  0.28318250  1  -0.06667  0  0.013182  0.04871  0  3.944115  0
C  C260  1  0.10176723  0.13183099  0.77505898  1  0.020979  0  -0.077705  -0.138261  0  3.927623  0
C  C261  1  0.02980708  0.13163829  0.27499268  1  0.009784  0  -0.077349  -0.136713  0  3.926242  0
C  C262  1  0.17400690  0.19229837  0.80386021  1  0.445133  0  0.042776  0.092541  0  3.918141  0
C  C263  1  0.01809139  0.19211211  0.30381887  1  0.439542  0  0.04297  0.093065  0  3.918393  0
C  C264  1  0.78424160  0.63490948  0.49527609  1  0.405413  0  0.043449  0.085911  0  3.937942  0
C  C265  1  0.85067240  0.63490614  0.99526770  1  0.433376  0  0.043697  0.086424  0  3.936883  0
C  C266  1  0.70310224  0.62339198  0.46784413  1  0.058601  0  -0.072672  -0.137187  0  3.922846  0
C  C267  1  0.92036891  0.62346511  0.96786984  1  0.024592  0  -0.072669  -0.138422  0  3.923488  0
C  C268  1  0.70982237  0.67791999  0.44151653  1  -0.009793  0  0.018313  0.055588  0  3.949654  0
C  C269  1  0.96814179  0.67799070  0.94153888  1  0.008276  0  0.018897  0.056944  0  3.949878  0
C  C270  1  0.79952717  0.74103583  0.44268788  1  -0.01298  0  -0.066609  -0.128838  0  3.905119  0
C  C271  1  0.94157605  0.74110034  0.94271187  1  -0.036739  0  -0.06636  -0.128218  0  3.904302  0
C  C272  1  0.87751750  0.74824151  0.47080412  1  0.464522  0  0.048372  0.096152  0  3.915185  0
C  C273  1  0.87073946  0.74824826  0.97081221  1  0.491739  0  0.047934  0.095796  0  3.915844  0
C  C274  1  0.62347650  0.66870770  0.41321414  1  1.100815  0  0.262268  0.375897  0  4.01718  0
C  C275  1  0.04522676  0.66873123  0.91322630  1  1.109187  0  0.262142  0.375427  0  4.017561  0
C  C276  1  0.46329955  0.60236119  0.38916756  1  1.122927  0  0.262263  0.377796  0  4.018985  0
C  C277  1  0.13897810  0.60234918  0.88918472  1  1.129891  0  0.262502  0.378757  0  4.016661  0
C  C278  1  0.55773795  0.70294156  0.35781077  1  1.112332  0  0.261824  0.383372  0  4.021087  0
C  C279  1  0.14516585  0.70292063  0.85781310  1  1.113605  0  0.260542  0.381912  0  4.021822  0
C  C280  1  0.21462136  0.44463559  0.35238504  1  0.472126  0  0.041517  0.089693  0  3.939821  0
C  C281  1  0.23001979  0.44468617  0.85248728  1  0.456726  0  0.042136  0.090176  0  3.937497  0
C  C282  1  0.30240325  0.50718372  0.35176540  1  0.028182  0  -0.072278  -0.137019  0  3.916594  0
C  C283  1  0.20471955  0.50717550  0.85183608  1  -0.019252  0  -0.072296  -0.13658  0  3.915237  0
C  C284  1  0.36808240  0.53723981  0.39002911  1  -0.031405  0  0.017883  0.053183  0  3.95034  0
C  C285  1  0.16905645  0.53722760  0.89007768  1  0.001914  0  0.018162  0.052982  0  3.949955  0
C  C286  1  0.34266277  0.50311489  0.42756595  1  0.016713  0  -0.069452  -0.133278  0  3.916252  0
C  C287  1  0.16030705  0.50312066  0.92761748  1  0.00435  0  -0.069473  -0.132542  0  3.916321  0
C  C288  1  0.25273948  0.44092324  0.42567165  1  0.498406  0  0.04721  0.098005  0  3.909216  0
C  C289  1  0.18804650  0.44093758  0.92575691  1  0.455064  0  0.047757  0.097709  0  3.908807  0
C  C290  1  0.65594983  0.87152867  0.29880976  1  0.516176  0  0.046522  0.094456  0  3.914956  0
C  C291  1  0.21572457  0.87157263  0.79883856  1  0.501723  0  0.046413  0.09391  0  3.915303  0
C  C292  1  0.64945632  0.82458700  0.32953506  1  -0.009701  0  -0.069709  -0.125344  0  3.912662  0
C  C293  1  0.17526371  0.82462980  0.82956876  1  -0.029549  0  -0.070047  -0.12562  0  3.912878  0
C  C294  1  0.56797451  0.75404327  0.32535623  1  -0.010287  0  0.017997  0.058806  0  3.93605  0
C  C295  1  0.18602409  0.75402445  0.82534689  1  -0.019761  0  0.019286  0.060629  0  3.933113  0
C  C296  1  0.49605906  0.73323017  0.29026941  1  0.013886  0  -0.066553  -0.121971  0  3.888049  0
C  C297  1  0.23695496  0.73313555  0.79021073  1  -0.014408  0  -0.06679  -0.121892  0  3.887308  0
C  C298  1  0.50828907  0.78308120  0.26065384  1  0.435227  0  0.050587  0.09788  0  3.899069  0
C  C299  1  0.27456357  0.78298773  0.76059093  1  0.489486  0  0.050714  0.097325  0  3.901648  0
C  C300  1  0.44172297  0.44551562  0.54247992  1  1.385343  0  0.229813  0.623504  0  3.90083  0
C  C301  1  0.00396635  0.44569220  0.04257639  1  1.378657  0  0.229727  0.623566  0  3.898306  0
C  C302  1  0.36385560  0.32761946  0.56800295  1  0.416688  0  -0.00083  0.213925  0  3.843233  0
C  C303  1  0.96385599  0.32774374  0.06804782  1  0.446323  0  -0.000954  0.213892  0  3.842133  0
C  C304  1  0.26394884  0.32254381  0.55141692  1  0.009268  0  -0.177149  -0.305712  0  3.926008  0
C  C305  1  0.05869675  0.32267589  0.05146527  1  -0.00684  0  -0.176879  -0.307009  0  3.927143  0
C  C306  1  0.27259791  0.40586118  0.55474424  1  0.387766  0  -0.006121  0.208028  0  3.826523  0
C  C307  1  0.13340545  0.40600471  0.05481960  1  0.403088  0  -0.006473  0.208064  0  3.825105  0
C  C308  1  0.29945556  0.45124364  0.60295957  1  -0.037193  0  -0.174737  -0.327361  0  3.900965  0
C  C309  1  0.15189967  0.45132560  0.10304341  1  -0.07391  0  -0.175264  -0.328901  0  3.901027  0
C  C310  1  0.40004495  0.45500919  0.61865861  1  0.4404  0  0.069616  0.287768  0  3.771866  0
C  C311  1  0.05506472  0.45507246  0.11874983  1  0.453201  0  0.069499  0.287779  0  3.771828  0
C  C312  1  0.39299567  0.37178318  0.61653576  1  -0.043789  0  -0.174594  -0.325572  0  3.903222  0
C  C313  1  0.97885365  0.37184608  0.11658881  1  -0.052806  0  -0.1742  -0.325214  0  3.902889  0
C  C314  1  0.43796477  0.50834414  0.66488366  1  -0.00063  0  -0.083358  -0.068536  0  3.782668  0
C  C315  1  0.07046206  0.50838728  0.16497202  1  -0.002384  0  -0.083378  -0.0687  0  3.783115  0
C  C316  1  0.45888503  0.59426778  0.66399826  1  -0.031668  0  -0.092383  -0.211784  0  3.810906  0
C  C317  1  0.13549779  0.59427680  0.16404225  1  -0.038087  0  -0.093039  -0.212746  0  3.811559  0
C  C318  1  0.57078637  0.63520321  0.66618611  1  0.919612  0  0.180346  0.474573  0  3.831394  0
C  C319  1  0.06457444  0.63522185  0.16620782  1  0.957024  0  0.18024  0.473192  0  3.831938  0
C  C320  1  0.61702244  0.57797192  0.66805704  1  -0.074123  0  -0.161608  -0.283022  0  3.912337  0
C  C321  1  0.96108185  0.57802876  0.16812857  1  -0.052583  0  -0.161498  -0.283273  0  3.913992  0
C  C322  1  0.53624571  0.51149355  0.68470734  1  -0.019197  0  -0.159915  -0.155254  0  3.898773  0
C  C323  1  0.97530327  0.51152958  0.18477325  1  -0.00101  0  -0.160579  -0.156216  0  3.900088  0
C  C324  1  0.41911134  0.63571919  0.70340914  1  0.49474  0  0.006575  0.182064  0  3.891347  0
C  C325  1  0.21681412  0.63577368  0.20340341  1  0.510674  0  0.007062  0.183861  0  3.890074  0
C  C326  1  0.30820725  0.60207144  0.70200378  1  -0.033456  0  -0.01763  0.050984  0  3.943474  0
C  C327  1  0.29405506  0.60212082  0.20193845  1  -0.033304  0  -0.018278  0.049667  0  3.945492  0
C  C328  1  0.25814571  0.54921435  0.72906083  1  -0.054246  0  -0.101796  -0.156068  0  4.015883  0
C  C329  1  0.29125264  0.54922227  0.22895588  1  -0.099422  0  -0.102372  -0.156211  0  4.018356  0
C  C330  1  0.15592955  0.52134153  0.72929834  1  -0.124371  0  -0.101108  -0.088631  0  4.037054  0
C  C331  1  0.36557882  0.52132668  0.22915151  1  -0.101398  0  -0.100927  -0.089135  0  4.036955  0
C  C332  1  0.10283637  0.54665377  0.70262553  1  -0.02984  0  -0.092457  -0.080067  0  3.988852  0
C  C333  1  0.44393531  0.54666243  0.20244977  1  -0.046949  0  -0.09263  -0.080715  0  3.988479  0
C  C334  1  0.15204564  0.59902490  0.67528933  1  -0.049536  0  -0.093021  -0.079398  0  4.000331  0
C  C335  1  0.44707550  0.59907337  0.17514448  1  -0.057983  0  -0.092802  -0.078671  0  3.999788  0
C  C336  1  0.25400840  0.62611203  0.67483423  1  -0.073097  0  -0.097189  -0.130502  0  3.972855  0
C  C337  1  0.37223782  0.62619950  0.17474555  1  -0.065196  0  -0.097753  -0.131505  0  3.974318  0
C  C338  1  0.51884522  0.48594437  0.51320211  1  -0.034844  0  -0.249219  -0.520548  0  3.905442  0
C  C339  1  0.96726740  0.48614246  0.01331488  1  -0.058258  0  -0.248965  -0.52175  0  3.907342  0
I  I340  1  0.31467757  0.30398982  0.25007121  1  -0.498934  0  -0.223569  -0.405041  0  1.457302  0
I  I341  1  0.98935272  0.30388800  0.75004380  1  -0.499489  0  -0.223536  -0.404834  0  1.456514  0
I  I342  1  0.26780224  0.08736861  0.14220935  1  -0.517628  0  -0.23954  -0.408908  0  1.374467  0
I  I343  1  0.81914702  0.08746623  0.64227810  1  -0.515911  0  -0.239487  -0.408826  0  1.37416  0
I  I344  1  0.33517632  0.86139479  0.93339650  1  -0.523968  0  -0.298459  -0.44448  0  1.223668  0
I  I345  1  0.52611558  0.86143791  0.43324317  1  -0.523107  0  -0.298219  -0.444314  0  1.223981  0
I  I346  1  0.14667989  0.77655967  0.04838098  1  -0.530859  0  -0.273022  -0.436929  0  1.280856  0
I  I347  1  0.63011633  0.77677774  0.54822273  1  -0.529523  0  -0.273196  -0.436788  0  1.27922  0
I  I348  1  0.61263560  0.52807191  0.30571246  1  -0.522473  0  -0.278606  -0.420686  0  1.273592  0
I  I349  1  0.91514748  0.52814386  0.80576565  1  -0.520726  0  -0.278634  -0.420851  0  1.272994  0
I  I350  1  0.42490576  0.34114794  0.38445978  1  -0.512408  0  -0.24087  -0.401682  0  1.366439  0
I  I351  1  0.91604832  0.34117650  0.88441786  1  -0.510974  0  -0.241284  -0.402127  0  1.36622  0
I  I352  1  0.28982518  0.04343290  0.74349908  1  -0.530263  0  -0.250538  -0.422617  0  1.354617  0
I  I353  1  0.75351134  0.04357675  0.24372675  1  -0.529453  0  -0.250792  -0.422907  0  1.354605  0
I  I354  1  0.24554736  0.82264235  0.64107524  1  -0.503538  0  -0.231396  -0.407365  0  1.41147  0
I  I355  1  0.57702501  0.82294061  0.14107799  1  -0.503511  0  -0.231557  -0.4076  0  1.412011  0
I  I356  1  0.41951778  0.35409031  0.84240622  1  -0.547363  0  -0.286614  -0.464876  0  1.269227  0
I  I357  1  0.93442781  0.35385970  0.34245318  1  -0.545686  0  -0.286675  -0.464824  0  1.269191  0
I  I358  1  0.23462682  0.27255882  0.95901647  1  -0.519401  0  -0.268079  -0.430336  0  1.283164  0
I  I359  1  0.03851200  0.27255736  0.45904967  1  -0.519309  0  -0.267871  -0.430106  0  1.283507  0
I  I360  1  0.13838426  0.78957422  0.50403168  1  -0.52412  0  -0.269181  -0.4338  0  1.325382  0
I  I361  1  0.65133910  0.78987308  0.00420947  1  -0.524671  0  -0.269208  -0.433707  0  1.325591  0
I  I362  1  0.94252529  0.60402509  0.58245892  1  -0.529664  0  -0.276896  -0.426472  0  1.268335  0
I  I363  1  0.66137968  0.60409915  0.08249537  1  -0.528977  0  -0.276613  -0.426193  0  1.270144  0
N  N364  1  0.10606781  0.19843367  0.16454360  1  -1.247761  0  -0.322823  -0.18602  0  3.54969  0
N  N365  1  0.09238719  0.19832037  0.66446461  1  -1.259638  0  -0.322361  -0.185769  0  3.548889  0
N  N366  1  0.73680963  0.09902902  0.13201761  1  -1.194203  0  -0.298219  -0.395147  0  3.194355  0
N  N367  1  0.36218380  0.09897009  0.63194299  1  -1.191513  0  -0.297183  -0.392958  0  3.192697  0
N  N368  1  0.61249789  0.12857287  0.17064889  1  -1.201329  0  -0.294759  -0.385939  0  3.21274  0
N  N369  1  0.51604078  0.12849459  0.67056462  1  -1.186578  0  -0.294099  -0.3848  0  3.212097  0
N  N370  1  0.78006903  0.21103371  0.18998556  1  -1.211598  0  -0.300655  -0.393484  0  3.230766  0
N  N371  1  0.43103269  0.21101489  0.68988258  1  -1.191179  0  -0.300489  -0.39221  0  3.230294  0
N  N372  1  0.41469979  0.89962881  0.05273619  1  -1.242838  0  -0.324528  -0.182718  0  3.562115  0
N  N373  1  0.48472110  0.89953464  0.55259773  1  -1.251218  0  -0.324395  -0.18294  0  3.562515  0
N  N374  1  0.60729209  0.33479336  0.29896288  1  -1.247347  0  -0.324717  -0.184984  0  3.562355  0
N  N375  1  0.72736316  0.33476524  0.79892822  1  -1.244929  0  -0.324989  -0.186024  0  3.563267  0
N  N376  1  0.69468220  0.44029433  0.39193131  1  -1.244754  0  -0.326883  -0.192586  0  3.566296  0
N  N377  1  0.74536489  0.44011972  0.89193574  1  -1.268061  0  -0.327173  -0.192539  0  3.565464  0
N  N378  1  0.92425208  0.41838147  0.50409767  1  -1.19223  0  -0.297139  -0.392429  0  3.236386  0
N  N379  1  0.49412745  0.41841167  0.00413948  1  -1.186402  0  -0.296521  -0.391165  0  3.234984  0
N  N380  1  0.08970508  0.49067312  0.53364307  1  -1.181306  0  -0.296738  -0.391992  0  3.225427  0
N  N381  1  0.40099451  0.49069464  0.03369135  1  -1.179502  0  -0.296241  -0.391744  0  3.226324  0
N  N382  1  0.02828870  0.52280344  0.47132862  1  -1.162536  0  -0.295753  -0.391711  0  3.206153  0
N  N383  1  0.49456528  0.52285461  0.97138516  1  -1.165751  0  -0.295365  -0.390775  0  3.205889  0
N  N384  1  0.96856293  0.28690571  0.62684561  1  -1.264664  0  -0.329655  -0.18584  0  3.581799  0
N  N385  1  0.31830519  0.28700569  0.12689176  1  -1.268042  0  -0.330048  -0.185366  0  3.582913  0
N  N386  1  0.37498265  0.72165099  0.50349761  1  -1.251398  0  -0.327279  -0.187192  0  3.569495  0
N  N387  1  0.34670520  0.72164230  0.00362789  1  -1.250698  0  -0.327095  -0.186307  0  3.567266  0
N  N388  1  0.46357441  0.94120634  0.72160454  1  -1.267363  0  -0.324879  -0.186733  0  3.551546  0
N  N389  1  0.47768804  0.94132841  0.22165301  1  -1.271651  0  -0.325085  -0.187448  0  3.553436  0
N  N390  1  0.78851735  0.92651562  0.69979117  1  -1.188191  0  -0.294764  -0.376711  0  3.226966  0
N  N391  1  0.13809773  0.92647922  0.19970868  1  -1.195729  0  -0.295048  -0.377214  0  3.226563  0
N  N392  1  0.95606893  0.00681768  0.72073632  1  -1.185397  0  -0.296429  -0.387864  0  3.210302  0
N  N393  1  0.05066198  0.00663032  0.22061590  1  -1.185897  0  -0.297353  -0.389142  0  3.209946  0
N  N394  1  0.83127122  0.03787748  0.75810721  1  -1.178721  0  -0.298905  -0.394767  0  3.192221  0
N  N395  1  0.20648413  0.03779748  0.25806596  1  -1.186627  0  -0.299031  -0.395495  0  3.190482  0
N  N396  1  0.95869487  0.80048245  0.59139420  1  -1.250161  0  -0.327837  -0.188122  0  3.568664  0
N  N397  1  0.84183303  0.80031636  0.09126806  1  -1.25188  0  -0.327129  -0.18689  0  3.568594  0
N  N398  1  0.15238279  0.23344970  0.83995032  1  -1.25377  0  -0.327502  -0.1867  0  3.57107  0
N  N399  1  0.08090528  0.23322621  0.33991860  1  -1.254178  0  -0.327726  -0.187365  0  3.571729  0
N  N400  1  0.86980761  0.69660202  0.49703382  1  -1.248969  0  -0.327708  -0.196385  0  3.571919  0
N  N401  1  0.82674768  0.69655057  0.99700656  1  -1.253076  0  -0.327842  -0.195945  0  3.572673  0
N  N402  1  0.53701807  0.61257549  0.41836181  1  -1.200581  0  -0.295644  -0.38745  0  3.206733  0
N  N403  1  0.07548640  0.61257967  0.91837863  1  -1.187316  0  -0.295695  -0.387727  0  3.207544  0
N  N404  1  0.46963000  0.64555378  0.35818250  1  -1.197929  0  -0.298799  -0.392187  0  3.225545  0
N  N405  1  0.17584670  0.64552237  0.85819113  1  -1.192976  0  -0.298583  -0.392738  0  3.225412  0
N  N406  1  0.63753669  0.71621066  0.38409072  1  -1.170489  0  -0.296767  -0.391905  0  3.229443  0
N  N407  1  0.07867000  0.71622157  0.88410205  1  -1.180731  0  -0.296251  -0.391036  0  3.229235  0
N  N408  1  0.18988386  0.41230186  0.38882620  1  -1.271413  0  -0.329483  -0.191254  0  3.574802  0
N  N409  1  0.22239770  0.41236173  0.88893632  1  -1.26614  0  -0.330384  -0.191958  0  3.574112  0
N  N410  1  0.58683544  0.85098945  0.26486242  1  -1.272426  0  -0.329643  -0.187866  0  3.576662  0
N  N411  1  0.26411579  0.85095958  0.76483654  1  -1.259625  0  -0.329957  -0.187994  0  3.57803  0
O  O412  1  0.47014780  0.48903336  0.58726399  1  -1.013848  0  -0.211443  -0.371363  0  2.338129  0
O  O413  1  0.01906826  0.48916198  0.08736591  1  -1.021723  0  -0.210897  -0.371038  0  2.337371  0
O  O414  1  0.35018365  0.44430052  0.52744404  1  -1.025858  0  -0.218732  -0.350041  0  2.317435  0
O  O415  1  0.09428663  0.44447558  0.02752958  1  -1.018404  0  -0.219518  -0.350528  0  2.314788  0
O  O416  1  0.43710181  0.36913810  0.54006402  1  -1.024959  0  -0.225356  -0.354863  0  2.306347  0
O  O417  1  0.93217226  0.36931445  0.04013448  1  -1.017987  0  -0.224831  -0.354303  0  2.306776  0
O  O418  1  0.61488764  0.70566957  0.66835525  1  -1.136761  0  -0.258147  -0.422254  0  2.143095  0
O  O419  1  0.09097137  0.70566965  0.16829583  1  -1.13829  0  -0.257862  -0.42116  0  2.144676  0
O  O420  1  0.45191485  0.71644686  0.70255822  1  -1.120161  0  -0.412288  -0.521785  0  2.253388  0
O  O421  1  0.26468444  0.71649892  0.20253051  1  -1.123211  0  -0.412016  -0.522024  0  2.253951  0
