# generated using pymatgen
data_NiH16C18(NO3)2
_symmetry_space_group_name_H-M   'P 1'
_cell_length_a   9.78279189
_cell_length_b   14.84918393
_cell_length_c   28.22152652
_cell_angle_alpha   90.00006436
_cell_angle_beta   89.99989538
_cell_angle_gamma   106.45996380
_symmetry_Int_Tables_number   1
_chemical_formula_structural   NiH16C18(NO3)2
_chemical_formula_sum   'Ni8 H128 C144 N16 O48'
_cell_volume   3931.63002816
_cell_formula_units_Z   8
loop_
 _symmetry_equiv_pos_site_id
 _symmetry_equiv_pos_as_xyz
  1  'x, y, z'
loop_
 _atom_site_type_symbol
 _atom_site_label
 _atom_site_symmetry_multiplicity
 _atom_site_fract_x
 _atom_site_fract_y
 _atom_site_fract_z
 _atom_site_occupancy
 _atom_site_pbe_bader_charge
 _atom_site_pbe_bader_spin_density
 _atom_site_pbe_cm5_charge
 _atom_site_pbe_ddec_charge
 _atom_site_pbe_ddec_spin_density
 _atom_site_pbe_ddec_sum_bond_order
 _atom_site_pbe_magmom
Ni  Ni0  1  0.18031930  0.83061112  0.49096335  1  1.191807  1.560373  0.651129  0.800527  1.770836  2.497139  1.547
Ni  Ni1  1  0.77132639  0.49561691  0.33443149  1  1.202326  1.557031  0.652433  0.791385  1.766527  2.503777  1.544
Ni  Ni2  1  0.31968285  0.16938805  0.99096477  1  1.191724  1.560369  0.651116  0.80052  1.770826  2.49694  1.547
Ni  Ni3  1  0.72867136  0.50438231  0.83443033  1  1.2024  1.557032  0.652459  0.791498  1.766526  2.50353  1.544
Ni  Ni4  1  0.81968389  0.16938892  0.50903533  1  1.191834  1.56038  0.651081  0.800552  1.770836  2.49682  1.547
Ni  Ni5  1  0.22867361  0.50438523  0.66556790  1  1.202257  1.557027  0.652455  0.791474  1.766527  2.503587  1.544
Ni  Ni6  1  0.68031493  0.83061128  0.00903639  1  1.191761  1.560377  0.651102  0.800648  1.770844  2.496992  1.547
Ni  Ni7  1  0.27132715  0.49561632  0.16557013  1  1.202265  1.557023  0.652489  0.791565  1.766522  2.50344  1.544
H  H8  1  0.24490077  0.68439232  0.51513597  1  0.628764  0.000554  0.299045  0.38302  0.000632  0.933735  0.0
H  H9  1  0.26897645  0.70439947  0.45788003  1  0.664236  -5e-06  0.280771  0.377006  0.000202  0.968459  0.0
H  H10  1  0.00179750  0.68075434  0.51490963  1  0.618458  0.000112  0.298729  0.377847  0.000153  0.949108  0.0
H  H11  1  0.94263942  0.69746551  0.46291462  1  0.666103  0.000245  0.286731  0.388271  0.000422  0.953685  0.0
H  H12  1  0.94447629  0.54342763  0.40000657  1  0.637209  0.000111  0.295531  0.382491  0.000164  0.946504  0.0
H  H13  1  0.92337490  0.43132692  0.39773664  1  0.65255  0.000445  0.286249  0.384183  0.000611  0.955479  0.001
H  H14  1  0.69600165  0.53301923  0.41552884  1  0.621194  0.000225  0.302502  0.385201  0.000337  0.929432  0.0
H  H15  1  0.59831641  0.42936653  0.39796636  1  0.634381  -5.5e-05  0.281523  0.37947  7.3e-05  0.966586  0.0
H  H16  1  0.31947924  0.70706512  0.32016457  1  0.083925  0.000131  0.102021  0.104276  4.3e-05  1.012233  0.0
H  H17  1  0.30786193  0.73722910  0.23235644  1  0.095791  0.00033  0.094987  0.095028  0.000238  1.061623  0.0
H  H18  1  0.16030444  0.83668794  0.20352746  1  0.08709  2.9e-05  0.099997  0.101782  9e-06  1.005575  0.0
H  H19  1  0.00778133  0.89326608  0.26044259  1  0.057969  4.4e-05  0.097331  0.095499  6e-06  1.039357  0.0
H  H20  1  0.03257314  0.00272360  0.33311946  1  0.071703  2.7e-05  0.09613  0.097108  3e-06  1.019887  0.0
H  H21  1  0.85530120  0.04458522  0.38520959  1  0.105005  0.00011  0.094905  0.094193  8.9e-05  1.060578  0.0
H  H22  1  0.68715267  0.92104452  0.43318073  1  0.055176  -2.9e-05  0.093464  0.089452  -0.000178  1.033011  0.0
H  H23  1  0.69905403  0.75626386  0.42954480  1  0.082627  0.000267  0.109427  0.115755  0.000129  0.979333  0.0
H  H24  1  0.36681221  0.18138837  0.36932546  1  0.076231  0.000106  0.102431  0.104899  2.1e-05  1.016149  0.0
H  H25  1  0.27160795  0.01195174  0.34623455  1  0.080212  0.000206  0.097661  0.094339  0.00011  1.038309  0.0
H  H26  1  0.43870896  0.92701941  0.31543027  1  0.075688  7e-06  0.098696  0.098504  -1.2e-05  1.029663  0.0
H  H27  1  0.69639515  0.00993311  0.30851427  1  0.061288  4.1e-05  0.098721  0.09733  8e-06  1.039898  0.0
H  H28  1  0.82980482  0.12783102  0.25696532  1  0.07587  1.6e-05  0.099723  0.101116  -9e-06  1.018617  0.0
H  H29  1  0.08934182  0.18249696  0.24470047  1  0.087784  2.4e-05  0.095267  0.09328  5e-06  1.059644  0.0
H  H30  1  0.24796596  0.27595779  0.30760314  1  0.025021  0.000103  0.102444  0.102538  -1.2e-05  0.99689  0.0
H  H31  1  0.13990378  0.31345351  0.38238369  1  0.085045  0.000267  0.111386  0.118368  0.00012  0.978277  0.0
H  H32  1  0.93207220  0.85533136  0.54555974  1  0.149207  0.002949  0.128731  0.11045  0.001171  0.989087  0.002
H  H33  1  0.18851503  0.01714672  0.44189277  1  0.120697  0.00278  0.125751  0.098788  0.001055  1.004551  0.002
H  H34  1  0.38262122  0.95701564  0.42406120  1  0.168604  0.003002  0.121664  0.100235  0.001214  1.04418  0.002
H  H35  1  0.38350878  0.91458756  0.56932902  1  0.195377  0.002757  0.125909  0.110783  0.001112  1.03657  0.002
H  H36  1  0.57084368  0.61812640  0.31599212  1  0.145012  0.003454  0.132478  0.114568  0.001404  0.976156  0.002
H  H37  1  0.88731658  0.61904952  0.24769947  1  0.127278  0.003261  0.128349  0.10773  0.001266  1.006757  0.002
H  H38  1  0.94443772  0.37497450  0.30501520  1  0.165096  0.002883  0.122573  0.103145  0.001088  1.049421  0.002
H  H39  1  0.63238592  0.37681464  0.25696085  1  0.136083  0.002855  0.12126  0.098746  0.001045  1.045901  0.002
H  H40  1  0.25510166  0.31560413  0.01514164  1  0.628652  0.000554  0.29906  0.383084  0.000631  0.933682  0.0
H  H41  1  0.23103131  0.29560527  0.95788512  1  0.664318  -5e-06  0.280729  0.377065  0.000201  0.968409  0.0
H  H42  1  0.49820706  0.31925193  0.01490983  1  0.618414  0.000112  0.298792  0.377912  0.000153  0.949047  0.0
H  H43  1  0.55736520  0.30253459  0.96291451  1  0.666175  0.000245  0.286697  0.388246  0.000421  0.953723  0.0
H  H44  1  0.55551984  0.45657096  0.90000478  1  0.636995  0.000111  0.295551  0.38249  0.000164  0.946514  0.0
H  H45  1  0.57662256  0.56867238  0.89773739  1  0.652578  0.000445  0.28627  0.384149  0.000611  0.955528  0.001
H  H46  1  0.80399134  0.46697938  0.91552690  1  0.621281  0.000225  0.302439  0.385157  0.000337  0.9295  0.0
H  H47  1  0.90168075  0.57063206  0.89796441  1  0.634349  -5.5e-05  0.281399  0.379261  7.3e-05  0.966872  0.0
H  H48  1  0.18052613  0.29294436  0.82017076  1  0.084203  0.000131  0.102035  0.104327  4.3e-05  1.012102  0.0
H  H49  1  0.19212790  0.26277883  0.73236260  1  0.095798  0.00033  0.094994  0.095032  0.000238  1.061647  0.0
H  H50  1  0.33966851  0.16331359  0.70353027  1  0.088884  2.9e-05  0.099917  0.10166  9e-06  1.005679  0.0
H  H51  1  0.49219494  0.10672711  0.76044173  1  0.058214  4.4e-05  0.097257  0.095371  6e-06  1.039415  0.0
H  H52  1  0.46740923  0.99727040  0.83312021  1  0.071585  2.7e-05  0.09609  0.097026  3e-06  1.019934  0.0
H  H53  1  0.64467961  0.95540841  0.88521052  1  0.104935  0.00011  0.094949  0.094266  8.9e-05  1.060559  0.0
H  H54  1  0.81284092  0.07894849  0.93317855  1  0.05505  -2.9e-05  0.093488  0.089466  -0.000178  1.033009  0.0
H  H55  1  0.80094794  0.24373198  0.92953989  1  0.082923  0.000267  0.109396  0.115696  0.000129  0.979437  0.0
H  H56  1  0.13318880  0.81861625  0.86932419  1  0.075909  0.000106  0.102441  0.104955  2.1e-05  1.016164  0.0
H  H57  1  0.22838439  0.98805143  0.84623191  1  0.080236  0.000206  0.097706  0.094402  0.00011  1.038338  0.0
H  H58  1  0.06128160  0.07298161  0.81543038  1  0.075663  7e-06  0.098728  0.09855  -1.2e-05  1.029628  0.0
H  H59  1  0.80359381  0.99006675  0.80851796  1  0.061156  4.1e-05  0.098659  0.097259  8e-06  1.039933  0.0
H  H60  1  0.67018886  0.87216247  0.75696689  1  0.073723  1.6e-05  0.099709  0.101113  -9e-06  1.018625  0.0
H  H61  1  0.41065145  0.81749274  0.74470327  1  0.08757  2.4e-05  0.095335  0.093321  5e-06  1.059532  0.0
H  H62  1  0.25203111  0.72403200  0.80760705  1  0.024968  0.000103  0.102422  0.102527  -1.2e-05  0.996875  0.0
H  H63  1  0.36009837  0.68653710  0.88238645  1  0.084887  0.000267  0.111402  0.118391  0.000119  0.978488  0.0
H  H64  1  0.56793349  0.14467102  0.04555976  1  0.149143  0.002948  0.128698  0.110471  0.001171  0.989067  0.002
H  H65  1  0.31149728  0.98285171  0.94189325  1  0.12089  0.002779  0.125731  0.09877  0.001055  1.004616  0.002
H  H66  1  0.11738389  0.04298485  0.92406090  1  0.168597  0.003002  0.121645  0.100219  0.001214  1.044194  0.002
H  H67  1  0.11649110  0.08541317  0.06933004  1  0.19584  0.002756  0.125904  0.110778  0.001113  1.036488  0.002
H  H68  1  0.92915548  0.38187350  0.81598898  1  0.144932  0.003454  0.132428  0.114493  0.001405  0.976188  0.002
H  H69  1  0.61268536  0.38094890  0.74769583  1  0.127214  0.003262  0.128327  0.107737  0.001266  1.006743  0.002
H  H70  1  0.55556102  0.62502188  0.80501316  1  0.165225  0.002882  0.122572  0.103153  0.001088  1.049457  0.002
H  H71  1  0.86761543  0.62318729  0.75696002  1  0.136241  0.002854  0.121243  0.098724  0.001045  1.045918  0.002
H  H72  1  0.75509445  0.31559858  0.48486023  1  0.62874  0.000554  0.299102  0.383094  0.000631  0.933663  0.0
H  H73  1  0.73103450  0.29560199  0.54211758  1  0.664312  -5e-06  0.280778  0.377113  0.000201  0.968304  0.0
H  H74  1  0.99820194  0.31925130  0.48508905  1  0.618505  0.000113  0.298773  0.377876  0.000153  0.949094  0.0
H  H75  1  0.05736672  0.30253665  0.53708370  1  0.666196  0.000244  0.286694  0.388244  0.000421  0.953729  0.0
H  H76  1  0.05552767  0.45657662  0.59999211  1  0.637271  0.000111  0.295561  0.382506  0.000164  0.946486  0.0
H  H77  1  0.07662263  0.56867662  0.60226345  1  0.652533  0.000446  0.286237  0.384054  0.000611  0.955654  0.001
H  H78  1  0.30399690  0.46698431  0.58447126  1  0.621224  0.000224  0.302512  0.385228  0.000337  0.929403  0.0
H  H79  1  0.40168389  0.57063631  0.60203445  1  0.634354  -5.5e-05  0.281465  0.379389  7.3e-05  0.966693  0.0
H  H80  1  0.68052541  0.29293352  0.67982844  1  0.083773  0.000132  0.102007  0.104269  4.3e-05  1.012223  0.0
H  H81  1  0.69212327  0.26276950  0.76763728  1  0.095915  0.00033  0.094988  0.095071  0.000238  1.061634  0.0
H  H82  1  0.83967535  0.16330994  0.79646980  1  0.089133  2.9e-05  0.099933  0.101648  9e-06  1.005659  0.0
H  H83  1  0.99221513  0.10673254  0.73955963  1  0.058037  4.4e-05  0.097319  0.095494  6e-06  1.039404  0.0
H  H84  1  0.96744408  0.99727577  0.66688170  1  0.071769  2.7e-05  0.096184  0.09706  3e-06  1.019928  0.0
H  H85  1  0.14471709  0.95541907  0.61478803  1  0.105041  0.00011  0.094922  0.09417  8.9e-05  1.060518  0.0
H  H86  1  0.31286187  0.07896536  0.56681760  1  0.055226  -2.9e-05  0.093437  0.089387  -0.000178  1.033046  0.0
H  H87  1  0.30095198  0.24374040  0.57045778  1  0.082696  0.000267  0.109405  0.115729  0.000129  0.979405  0.0
H  H88  1  0.63318182  0.81861656  0.63067358  1  0.075992  0.000106  0.102459  0.104943  2.1e-05  1.016177  0.0
H  H89  1  0.72838255  0.98804967  0.65376732  1  0.080275  0.000206  0.09771  0.094353  0.00011  1.038306  0.0
H  H90  1  0.56128285  0.07298271  0.68457089  1  0.075623  7e-06  0.098708  0.098533  -1.2e-05  1.029648  0.0
H  H91  1  0.30359636  0.99006831  0.69148441  1  0.061164  4.1e-05  0.09867  0.097254  8e-06  1.039945  0.0
H  H92  1  0.17018478  0.87216829  0.74303230  1  0.073603  1.6e-05  0.09975  0.101145  -9e-06  1.018618  0.0
H  H93  1  0.91064769  0.81749252  0.75529644  1  0.087533  2.4e-05  0.095283  0.093256  5e-06  1.059612  0.0
H  H94  1  0.75203310  0.72403733  0.69239200  1  0.025012  0.000103  0.102468  0.102586  -1.1e-05  0.996874  0.0
H  H95  1  0.86009801  0.68655284  0.61761003  1  0.084903  0.000267  0.11137  0.118371  0.000119  0.978422  0.0
H  H96  1  0.06795022  0.14467785  0.45443788  1  0.149486  0.002948  0.12869  0.110441  0.001171  0.989039  0.002
H  H97  1  0.81150488  0.98285898  0.55810839  1  0.120955  0.002779  0.125718  0.098814  0.001055  1.004517  0.002
H  H98  1  0.61737392  0.04298228  0.57593996  1  0.168582  0.003002  0.121648  0.100197  0.001214  1.044125  0.002
H  H99  1  0.61648755  0.08541317  0.43066859  1  0.195815  0.002757  0.125914  0.110797  0.001113  1.03644  0.002
H  H100  1  0.42915692  0.38187714  0.68400833  1  0.145055  0.003454  0.132453  0.114492  0.001404  0.976167  0.002
H  H101  1  0.11268998  0.38095123  0.75230205  1  0.127194  0.003261  0.128319  0.107716  0.001265  1.006833  0.002
H  H102  1  0.05556240  0.62502554  0.69498596  1  0.165167  0.002883  0.122565  0.103104  0.001088  1.049421  0.002
H  H103  1  0.36761996  0.62319172  0.74303889  1  0.136196  0.002854  0.121236  0.098722  0.001045  1.045888  0.002
H  H104  1  0.74490218  0.68440222  0.98486412  1  0.628811  0.000554  0.299082  0.383064  0.000632  0.933709  0.0
H  H105  1  0.76897947  0.70441022  0.04211994  1  0.66428  -5e-06  0.280833  0.377116  0.000201  0.968323  0.0
H  H106  1  0.50179720  0.68075302  0.98509133  1  0.618592  0.000113  0.298772  0.377909  0.000154  0.94903  0.0
H  H107  1  0.44263992  0.69746756  0.03708629  1  0.666096  0.000245  0.286744  0.38831  0.000422  0.953629  0.0
H  H108  1  0.44446916  0.54342694  0.09999461  1  0.637187  0.000112  0.295545  0.382494  0.000164  0.946512  0.0
H  H109  1  0.42337727  0.43132695  0.10226519  1  0.65259  0.000446  0.286246  0.384177  0.000611  0.955495  0.001
H  H110  1  0.19600069  0.53301362  0.08447214  1  0.621253  0.000225  0.302521  0.385238  0.000337  0.92939  0.0
H  H111  1  0.09831320  0.42936305  0.10203745  1  0.633777  -5.7e-05  0.281451  0.379401  7.3e-05  0.966693  0.0
H  H112  1  0.81948627  0.70707254  0.17983146  1  0.083892  0.000132  0.102016  0.104308  4.3e-05  1.01215  0.0
H  H113  1  0.80787743  0.73723104  0.26764140  1  0.095786  0.00033  0.094954  0.09496  0.000238  1.061594  0.0
H  H114  1  0.66031141  0.83668219  0.29647337  1  0.088767  2.9e-05  0.099966  0.101786  9e-06  1.005621  0.0
H  H115  1  0.50778199  0.89326164  0.23956227  1  0.058041  4.4e-05  0.097346  0.095542  6e-06  1.039381  0.0
H  H116  1  0.53256365  0.00272325  0.16688520  1  0.071659  2.7e-05  0.096122  0.09704  3e-06  1.019944  0.0
H  H117  1  0.35530218  0.04458457  0.11479064  1  0.104998  0.00011  0.094882  0.094201  8.9e-05  1.060562  0.0
H  H118  1  0.18715785  0.92104593  0.06681729  1  0.055149  -2.9e-05  0.09346  0.089475  -0.000178  1.032995  0.0
H  H119  1  0.19905275  0.75626455  0.07045737  1  0.082684  0.000267  0.109403  0.115759  0.000129  0.979418  0.0
H  H120  1  0.86682037  0.18138100  0.13067201  1  0.075922  0.000106  0.102476  0.104985  2.1e-05  1.016173  0.0
H  H121  1  0.77161911  0.01194932  0.15376606  1  0.080289  0.000206  0.0977  0.094377  0.00011  1.038271  0.0
H  H122  1  0.93871589  0.92701701  0.18457043  1  0.07565  7e-06  0.098713  0.098534  -1.2e-05  1.029678  0.0
H  H123  1  0.19640235  0.00993117  0.19148639  1  0.061146  4.1e-05  0.098667  0.097192  8e-06  1.03998  0.0
H  H124  1  0.32981413  0.12782985  0.24303604  1  0.07356  1.6e-05  0.09969  0.101099  -9e-06  1.018676  0.0
H  H125  1  0.58935273  0.18250239  0.25529683  1  0.08749  2.4e-05  0.095278  0.093265  5e-06  1.05957  0.0
H  H126  1  0.74796731  0.27595680  0.19239198  1  0.024983  0.000103  0.102454  0.102585  -1.2e-05  0.996901  0.0
H  H127  1  0.63989989  0.31344890  0.11761153  1  0.084842  0.000267  0.111364  0.11834  0.000119  0.978448  0.0
H  H128  1  0.43206059  0.85532199  0.95444033  1  0.149628  0.002948  0.128705  0.110445  0.001171  0.988956  0.002
H  H129  1  0.68849768  0.01714340  0.05811039  1  0.120837  0.00278  0.125707  0.098755  0.001055  1.004582  0.002
H  H130  1  0.88262080  0.95701870  0.07593848  1  0.168666  0.003002  0.12166  0.100269  0.001214  1.044129  0.002
H  H131  1  0.88351517  0.91458688  0.93066722  1  0.195776  0.002757  0.125933  0.110785  0.001113  1.036418  0.002
H  H132  1  0.07084328  0.61812092  0.18401005  1  0.145132  0.003454  0.132439  0.114497  0.001405  0.976279  0.002
H  H133  1  0.38730965  0.61905113  0.25230462  1  0.127183  0.003262  0.128315  0.107748  0.001266  1.006778  0.002
H  H134  1  0.44444086  0.37497746  0.19498694  1  0.165209  0.002882  0.122579  0.103176  0.001088  1.049441  0.002
H  H135  1  0.13237745  0.37680291  0.24303972  1  0.13613  0.002854  0.121202  0.098739  0.001045  1.045914  0.002
C  C136  1  0.19437555  0.76888166  0.39077173  1  1.570347  -0.000563  0.20475  0.569872  -0.001279  4.198598  -0.001
C  C137  1  0.16993337  0.78184638  0.33859207  1  -0.069033  0.006797  -0.014042  -0.068544  0.003941  3.907036  0.005
C  C138  1  0.25136699  0.74755735  0.30606686  1  -0.041896  0.001825  -0.090086  -0.102767  0.00089  3.985639  0.001
C  C139  1  0.24627234  0.76528287  0.25765311  1  -0.102428  0.00023  -0.100026  -0.107764  -4e-06  4.052273  0.0
C  C140  1  0.16235276  0.82084065  0.24126602  1  -0.025388  0.001255  -0.095088  -0.081628  0.000679  4.010309  0.001
C  C141  1  0.07828589  0.85333031  0.27316192  1  -0.126314  -0.000172  -0.093502  -0.136874  -0.0003  3.98815  0.0
C  C142  1  0.07618896  0.83155804  0.32160083  1  0.055581  0.001246  -0.002658  0.050216  0.000739  3.964732  0.001
C  C143  1  0.96879319  0.85593914  0.35223319  1  -0.022308  0.00109  -0.000691  0.060688  0.000639  3.974696  0.0
C  C144  1  0.95904639  0.94829127  0.35414276  1  -0.03788  -0.000313  -0.095037  -0.141731  -0.000444  3.98197  0.0
C  C145  1  0.85912658  0.97209602  0.38316426  1  -0.035294  0.000994  -0.097816  -0.08634  0.000456  4.03587  0.001
C  C146  1  0.76565710  0.90312329  0.41048703  1  -0.060558  -0.000165  -0.09899  -0.088264  -0.000372  4.026824  0.0
C  C147  1  0.77230078  0.81072858  0.40856010  1  -0.063955  0.001821  -0.086681  -0.097896  0.000937  3.979026  0.001
C  C148  1  0.87184309  0.78643959  0.37928914  1  -0.057285  0.005723  -0.012197  -0.070326  0.003308  3.923522  0.005
C  C149  1  0.86405042  0.68400532  0.37715068  1  1.574281  -0.000597  0.222678  0.592347  -0.001441  4.15446  -0.002
C  C150  1  0.62113307  0.29528910  0.36088752  1  1.586417  -0.00095  0.206338  0.570279  -0.001708  4.205697  -0.002
C  C151  1  0.58259395  0.19125894  0.35056028  1  -0.026017  0.007127  -0.01316  -0.069998  0.004189  3.909121  0.005
C  C152  1  0.43749707  0.14258873  0.35547855  1  -0.10175  0.001833  -0.088362  -0.108127  0.000919  3.99208  0.001
C  C153  1  0.38466680  0.04857565  0.34254869  1  -0.023453  0.000391  -0.096109  -0.092032  0.000203  4.026676  0.0
C  C154  1  0.47843863  0.00094887  0.32512648  1  -0.081799  0.000911  -0.091873  -0.073646  0.000502  3.998227  0.001
C  C155  1  0.62299469  0.04787738  0.32107529  1  -0.039294  -0.000119  -0.090236  -0.136974  -0.000238  3.980135  0.0
C  C156  1  0.67860483  0.14319774  0.33356931  1  0.012792  0.000345  -0.003569  0.042054  0.000149  3.956142  0.0
C  C157  1  0.83465286  0.18546037  0.32740553  1  -0.035959  0.001004  -0.0015  0.05101  0.000574  3.961108  0.0
C  C158  1  0.89763673  0.16742512  0.28498612  1  -0.056479  -0.000194  -0.089803  -0.130668  -0.000349  3.962151  0.0
C  C159  1  0.04466922  0.19850779  0.27790422  1  -0.063039  0.001387  -0.094979  -0.081788  0.000766  4.018259  0.001
C  C160  1  0.13290384  0.25099131  0.31291542  1  -0.031571  0.000368  -0.094649  -0.091214  0.000132  4.028218  0.0
C  C161  1  0.07249385  0.27207654  0.35475443  1  -0.008389  0.00234  -0.087217  -0.109669  0.001273  3.982303  0.001
C  C162  1  0.92511406  0.23862270  0.36260454  1  -0.068387  0.005538  -0.011492  -0.072066  0.003217  3.929441  0.004
C  C163  1  0.12280925  0.74848617  0.58787696  1  1.572333  0.000413  0.221247  0.588444  -0.000325  4.170727  0.0
C  C164  1  0.96234512  0.92024256  0.52528445  1  0.482976  -0.001313  0.064205  0.062504  -0.002728  3.890503  0.0
C  C165  1  0.10496554  0.00973758  0.46831730  1  0.517777  -0.001479  0.062014  0.048667  -0.002938  3.908273  0.0
C  C166  1  0.43526733  0.97714526  0.45802427  1  0.416101  -0.001885  0.05647  0.035963  -0.003652  3.909465  0.0
C  C167  1  0.43621595  0.95295181  0.53845259  1  0.504318  -0.001938  0.06076  0.059566  -0.003349  3.873551  0.0
C  C168  1  0.54253572  0.56442972  0.28860061  1  0.495459  -0.002041  0.066701  0.064481  -0.003704  3.880931  0.0
C  C169  1  0.94093839  0.56413748  0.24599293  1  0.48649  -0.000731  0.063393  0.051255  -0.002363  3.888185  0.001
C  C170  1  0.97433142  0.42965776  0.27826364  1  0.475188  -0.002092  0.06052  0.068722  -0.003672  3.873674  0.0
C  C171  1  0.57705789  0.43077133  0.25570829  1  0.474926  -0.003077  0.051465  0.032943  -0.004771  3.916081  -0.001
C  C172  1  0.30563239  0.23112510  0.89077567  1  1.570434  -0.000565  0.204908  0.570139  -0.00128  4.198317  -0.001
C  C173  1  0.33006820  0.21815679  0.83859492  1  -0.0702  0.0068  -0.0141  -0.068875  0.003942  3.907191  0.005
C  C174  1  0.24863333  0.25245210  0.80607333  1  -0.041359  0.001825  -0.089929  -0.102428  0.000889  3.985221  0.001
C  C175  1  0.25371695  0.23472649  0.75765886  1  -0.102623  0.00023  -0.100345  -0.108141  -4e-06  4.052349  0.0
C  C176  1  0.33762560  0.17916445  0.74126885  1  -0.026651  0.001254  -0.094882  -0.081464  0.000678  4.010153  0.001
C  C177  1  0.42169885  0.14666853  0.77316184  1  -0.127002  -0.000172  -0.093323  -0.136556  -0.0003  3.987839  0.0
C  C178  1  0.42380639  0.16844230  0.82160005  1  0.055716  0.001245  -0.00272  0.050179  0.000739  3.96474  0.001
C  C179  1  0.53120269  0.14405589  0.85223371  1  -0.022729  0.00109  -0.000752  0.060559  0.00064  3.974701  0.0
C  C180  1  0.54094057  0.05170444  0.85414251  1  -0.037728  -0.000312  -0.094964  -0.141591  -0.000444  3.981846  0.0
C  C181  1  0.64085965  0.02789831  0.88316429  1  -0.035472  0.000994  -0.097823  -0.086401  0.000457  4.035613  0.001
C  C182  1  0.73433616  0.09687110  0.91048491  1  -0.060423  -0.000165  -0.099064  -0.088277  -0.000372  4.026734  0.0
C  C183  1  0.72769484  0.18926651  0.90855627  1  -0.08186  0.001825  -0.086603  -0.097899  0.000937  3.979205  0.001
C  C184  1  0.62815591  0.21355828  0.87928575  1  -0.03899  0.00572  -0.012242  -0.07025  0.003308  3.92347  0.005
C  C185  1  0.63594479  0.31599324  0.87714946  1  1.574322  -0.000598  0.222691  0.592466  -0.001443  4.154507  -0.002
C  C186  1  0.87886149  0.70471014  0.86088674  1  1.586147  -0.000948  0.206356  0.570278  -0.00171  4.20572  -0.002
C  C187  1  0.91740403  0.80874100  0.85055918  1  -0.025916  0.007126  -0.013135  -0.069859  0.004189  3.909117  0.005
C  C188  1  0.06250178  0.85741306  0.85547841  1  -0.101264  0.001833  -0.08843  -0.108364  0.00092  3.992314  0.001
C  C189  1  0.11532862  0.95142751  0.84254822  1  -0.023793  0.000391  -0.096154  -0.092032  0.000203  4.026658  0.0
C  C190  1  0.02155452  0.99905357  0.82512681  1  -0.081524  0.000912  -0.091893  -0.073683  0.000502  3.998121  0.001
C  C191  1  0.87699788  0.95212391  0.82107819  1  -0.039207  -0.000119  -0.090102  -0.136814  -0.000238  3.980133  0.0
C  C192  1  0.82139118  0.85680217  0.83357042  1  0.012676  0.000344  -0.003622  0.041958  0.000148  3.956388  0.0
C  C193  1  0.66534343  0.81453533  0.82740849  1  -0.035908  0.001004  -0.001433  0.051131  0.000574  3.960829  0.0
C  C194  1  0.60236193  0.83256842  0.78498913  1  -0.054191  -0.000194  -0.089777  -0.130681  -0.000349  3.961877  0.0
C  C195  1  0.45532901  0.80148197  0.77790627  1  -0.062575  0.001387  -0.09504  -0.081776  0.000766  4.017863  0.001
C  C196  1  0.36709572  0.74900201  0.81291892  1  -0.03157  0.000368  -0.094636  -0.091221  0.000132  4.028043  0.0
C  C197  1  0.42750258  0.72791472  0.85475682  1  -0.00819  0.002341  -0.087187  -0.109649  0.001273  3.9825  0.001
C  C198  1  0.57488016  0.76137093  0.86260823  1  -0.068732  0.005538  -0.011575  -0.072216  0.003216  3.92947  0.004
C  C199  1  0.37718819  0.25151387  0.08788074  1  1.572372  0.000412  0.221301  0.588453  -0.000325  4.170522  0.0
C  C200  1  0.53766650  0.07975909  0.02528551  1  0.485541  -0.001307  0.064244  0.062425  -0.002727  3.890518  0.0
C  C201  1  0.39504606  0.99025947  0.96831703  1  0.517436  -0.001476  0.061962  0.048528  -0.002936  3.908171  0.0
C  C202  1  0.06473203  0.02285175  0.95802400  1  0.416057  -0.001883  0.056341  0.03577  -0.00365  3.909445  0.0
C  C203  1  0.06378155  0.04704536  0.03845291  1  0.503891  -0.001936  0.060764  0.059647  -0.003348  3.873521  0.0
C  C204  1  0.95746898  0.43557085  0.78859784  1  0.49558  -0.002039  0.066636  0.064361  -0.003702  3.881109  0.0
C  C205  1  0.55906357  0.43586093  0.74599078  1  0.486447  -0.000729  0.063418  0.051186  -0.002362  3.888246  0.001
C  C206  1  0.52566570  0.57033928  0.77826159  1  0.475159  -0.002091  0.060544  0.068714  -0.003671  3.873759  0.0
C  C207  1  0.92294184  0.56922919  0.75570740  1  0.474726  -0.003077  0.051504  0.032991  -0.004772  3.916155  -0.001
C  C208  1  0.80563907  0.23112121  0.60922695  1  1.570472  -0.000563  0.204725  0.569775  -0.001279  4.198491  -0.001
C  C209  1  0.83007818  0.21815648  0.66140555  1  -0.06944  0.006796  -0.013988  -0.068509  0.00394  3.906982  0.005
C  C210  1  0.74863753  0.25244340  0.69392615  1  -0.041392  0.001826  -0.089937  -0.102479  0.00089  3.985308  0.001
C  C211  1  0.75371508  0.23471854  0.74234202  1  -0.102901  0.000229  -0.100265  -0.108185  -4e-06  4.052285  0.0
C  C212  1  0.83763923  0.17916427  0.75873124  1  -0.027382  0.001256  -0.094985  -0.081448  0.000679  4.010257  0.001
C  C213  1  0.92170985  0.14666901  0.72683817  1  -0.126265  -0.000173  -0.093407  -0.136772  -0.000301  3.988077  0.0
C  C214  1  0.92382025  0.16844412  0.67839927  1  0.055684  0.001247  -0.002771  0.050145  0.000739  3.96486  0.001
C  C215  1  0.03121806  0.14406303  0.64776832  1  -0.02258  0.00109  -0.000637  0.060661  0.000639  3.97467  0.0
C  C216  1  0.04096529  0.05170949  0.64585592  1  -0.037899  -0.000313  -0.095113  -0.141573  -0.000444  3.981721  0.0
C  C217  1  0.14088924  0.02790966  0.61683477  1  -0.034673  0.000993  -0.09777  -0.086294  0.000456  4.035868  0.001
C  C218  1  0.23435257  0.09688238  0.58951165  1  -0.061275  -0.000165  -0.098971  -0.088206  -0.000372  4.026933  0.0
C  C219  1  0.22770450  0.18927638  0.59144070  1  -0.081955  0.001825  -0.086683  -0.097889  0.000937  3.979169  0.001
C  C220  1  0.12816599  0.21356468  0.62071272  1  -0.039151  0.00572  -0.012214  -0.070381  0.003308  3.923688  0.005
C  C221  1  0.13594987  0.31599752  0.62284977  1  1.574164  -0.000598  0.222571  0.592251  -0.001442  4.15475  -0.002
C  C222  1  0.37886416  0.70471373  0.63911222  1  1.586759  -0.00095  0.206278  0.570092  -0.001709  4.20586  -0.002
C  C223  1  0.41740153  0.80874459  0.64943982  1  -0.026275  0.007127  -0.013063  -0.069777  0.004189  3.909116  0.005
C  C224  1  0.56249751  0.85741270  0.64452120  1  -0.101256  0.001833  -0.088462  -0.108377  0.000919  3.992352  0.001
C  C225  1  0.61532603  0.95142647  0.65745141  1  -0.023857  0.000391  -0.096119  -0.091867  0.000203  4.026625  0.0
C  C226  1  0.52155727  0.99905326  0.67487397  1  -0.081559  0.000911  -0.091935  -0.073795  0.000502  3.998363  0.001
C  C227  1  0.37700373  0.95212826  0.67892268  1  -0.039283  -0.000119  -0.090052  -0.13673  -0.000238  3.980323  0.0
C  C228  1  0.32138963  0.85680579  0.66642973  1  0.013078  0.000344  -0.003638  0.041917  0.000148  3.956443  0.0
C  C229  1  0.16533968  0.81454105  0.67259244  1  -0.035952  0.001004  -0.001527  0.051026  0.000574  3.961019  0.0
C  C230  1  0.10235696  0.83257419  0.71501150  1  -0.05416  -0.000193  -0.089787  -0.130689  -0.000348  3.962149  0.0
C  C231  1  0.95532707  0.80148803  0.72209340  1  -0.062735  0.001387  -0.094992  -0.081716  0.000766  4.018056  0.001
C  C232  1  0.86709117  0.74900871  0.68708078  1  -0.032055  0.000368  -0.094709  -0.091285  0.000132  4.028057  0.0
C  C233  1  0.92749477  0.72792768  0.64524177  1  -0.008106  0.00234  -0.087075  -0.109611  0.001273  3.982209  0.001
C  C234  1  0.07487469  0.76137941  0.63739308  1  -0.067623  0.005537  -0.011583  -0.072091  0.003216  3.92929  0.004
C  C235  1  0.87718623  0.25151736  0.41212314  1  1.572845  0.000411  0.221343  0.588557  -0.000326  4.17064  0.0
C  C236  1  0.03767696  0.07976103  0.47471246  1  0.485206  -0.001304  0.064373  0.062536  -0.002725  3.890785  0.0
C  C237  1  0.89505902  0.99026462  0.53168457  1  0.517669  -0.001471  0.061973  0.048477  -0.002935  3.908072  0.0
C  C238  1  0.56472252  0.02284984  0.54197582  1  0.416197  -0.001882  0.056322  0.03589  -0.003647  3.909359  0.0
C  C239  1  0.56377492  0.04704329  0.46154574  1  0.504052  -0.001934  0.060685  0.059547  -0.003346  3.873396  0.0
C  C240  1  0.45746880  0.43557102  0.71140055  1  0.495196  -0.002037  0.066655  0.064456  -0.003702  3.881047  0.0
C  C241  1  0.05906566  0.43585975  0.75400822  1  0.486438  -0.000729  0.063467  0.051264  -0.002362  3.887987  0.001
C  C242  1  0.02566679  0.57034016  0.72173717  1  0.475145  -0.002092  0.06053  0.068724  -0.003671  3.87362  0.0
C  C243  1  0.42294313  0.56923081  0.74429074  1  0.474743  -0.003076  0.051515  0.032964  -0.004772  3.916076  -0.001
C  C244  1  0.69436927  0.76888335  0.10922585  1  1.571064  -0.000563  0.20475  0.569957  -0.001279  4.198575  -0.001
C  C245  1  0.66993052  0.78184955  0.16140624  1  -0.069214  0.006797  -0.014029  -0.068583  0.003941  3.906984  0.005
C  C246  1  0.75136897  0.74756267  0.19392854  1  -0.04129  0.001825  -0.090007  -0.102707  0.00089  3.985376  0.001
C  C247  1  0.74627990  0.76528266  0.24234407  1  -0.102905  0.000229  -0.100122  -0.107802  -4e-06  4.052073  0.0
C  C248  1  0.66235905  0.82083765  0.25873408  1  -0.027162  0.001255  -0.095059  -0.081643  0.000679  4.010329  0.001
C  C249  1  0.57828648  0.85332796  0.22684074  1  -0.126355  -0.000172  -0.093387  -0.136775  -0.0003  3.987828  0.0
C  C250  1  0.57618146  0.83155771  0.17840076  1  0.055734  0.001246  -0.002779  0.050062  0.000739  3.964636  0.001
C  C251  1  0.46878644  0.85593991  0.14777063  1  -0.022803  0.00109  -0.000662  0.060723  0.00064  3.974805  0.0
C  C252  1  0.45904008  0.94829064  0.14586113  1  -0.037804  -0.000313  -0.09508  -0.141707  -0.000444  3.982055  0.0
C  C253  1  0.35912845  0.97209748  0.11683723  1  -0.035413  0.000994  -0.097756  -0.086289  0.000457  4.035918  0.001
C  C254  1  0.26565868  0.90312612  0.08951306  1  -0.060539  -0.000165  -0.099008  -0.088284  -0.000372  4.026899  0.0
C  C255  1  0.27230073  0.81073000  0.09144134  1  -0.081775  0.001825  -0.086615  -0.097936  0.000937  3.979135  0.001
C  C256  1  0.37183791  0.78643893  0.12071506  1  -0.039044  0.005721  -0.012223  -0.070312  0.003308  3.923456  0.005
C  C257  1  0.36405018  0.68400187  0.12285134  1  1.574358  -0.000598  0.222727  0.59243  -0.001443  4.154521  -0.002
C  C258  1  0.12113787  0.29528568  0.13911442  1  1.586873  -0.000951  0.206244  0.570045  -0.001708  4.205865  -0.002
C  C259  1  0.08259973  0.19125554  0.14943986  1  -0.026198  0.007127  -0.013046  -0.069818  0.004188  3.909214  0.005
C  C260  1  0.93750551  0.14258699  0.14452027  1  -0.101116  0.001832  -0.088502  -0.108413  0.000919  3.992332  0.001
C  C261  1  0.88467590  0.04857323  0.15745046  1  -0.023896  0.000392  -0.09614  -0.091938  0.000203  4.026591  0.0
C  C262  1  0.97844151  0.00094646  0.17487364  1  -0.081541  0.000911  -0.091931  -0.073802  0.000502  3.998421  0.001
C  C263  1  0.12299607  0.04787120  0.17892439  1  -0.03916  -0.000119  -0.089995  -0.136581  -0.000238  3.980373  0.0
C  C264  1  0.17860758  0.14319225  0.16643110  1  0.012789  0.000344  -0.00369  0.041868  0.000148  3.956442  0.0
C  C265  1  0.33465853  0.18545699  0.17259621  1  -0.035985  0.001004  -0.001391  0.051233  0.000574  3.961098  0.0
C  C266  1  0.39764033  0.16742461  0.21501522  1  -0.054203  -0.000193  -0.089835  -0.130791  -0.000349  3.962179  0.0
C  C267  1  0.54467513  0.19850825  0.22209382  1  -0.06269  0.001387  -0.095009  -0.081733  0.000766  4.017934  0.001
C  C268  1  0.63291033  0.25099032  0.18708259  1  -0.032176  0.000368  -0.094676  -0.091278  0.000132  4.028133  0.0
C  C269  1  0.57250590  0.27207130  0.14524363  1  -0.007415  0.002339  -0.087013  -0.109463  0.001273  3.982362  0.001
C  C270  1  0.42512867  0.23862071  0.13739789  1  -0.068135  0.005538  -0.011738  -0.072394  0.003216  3.929575  0.004
C  C271  1  0.62280853  0.74848054  0.91212538  1  1.572084  0.000412  0.221224  0.588493  -0.000325  4.170905  0.0
C  C272  1  0.46232949  0.92023602  0.97471600  1  0.484987  -0.001307  0.064325  0.062642  -0.002728  3.890422  0.0
C  C273  1  0.60494669  0.00973283  0.03168626  1  0.517609  -0.001477  0.062074  0.048778  -0.002938  3.908211  0.0
C  C274  1  0.93527104  0.97715039  0.04197468  1  0.415891  -0.001883  0.056305  0.035678  -0.003649  3.909557  0.0
C  C275  1  0.93622194  0.95295538  0.96154542  1  0.504094  -0.001934  0.060786  0.059708  -0.003346  3.87319  0.0
C  C276  1  0.04252701  0.56442426  0.21140225  1  0.495279  -0.002037  0.066688  0.064363  -0.003701  3.881243  0.0
C  C277  1  0.44093583  0.56413981  0.25400896  1  0.486512  -0.000729  0.063404  0.051108  -0.002362  3.888114  0.001
C  C278  1  0.47433166  0.42966145  0.22173745  1  0.475157  -0.002091  0.060539  0.06869  -0.00367  3.873676  0.0
C  C279  1  0.07705428  0.43076381  0.24429235  1  0.474664  -0.003077  0.05159  0.032899  -0.004773  3.915772  -0.001
N  N280  1  0.06833290  0.92998414  0.49368829  1  -1.1856  0.058037  -0.302143  -0.175248  0.03348  3.545412  0.053
N  N281  1  0.37076479  0.93033530  0.49638932  1  -1.200515  0.061032  -0.309548  -0.175578  0.035096  3.576167  0.057
N  N282  1  0.61165114  0.49812789  0.28902790  1  -1.167702  0.062063  -0.313289  -0.181996  0.035821  3.58902  0.057
N  N283  1  0.90690518  0.49690368  0.27932174  1  -1.166132  0.059722  -0.309523  -0.177086  0.034476  3.56938  0.055
N  N284  1  0.43167273  0.07001363  0.99368886  1  -1.187629  0.058032  -0.302082  -0.175225  0.033479  3.545111  0.053
N  N285  1  0.12923325  0.06966386  0.99638974  1  -1.200411  0.06103  -0.309445  -0.175505  0.035094  3.576107  0.057
N  N286  1  0.88835297  0.50187128  0.78902628  1  -1.167577  0.062061  -0.313203  -0.181893  0.035819  3.589078  0.057
N  N287  1  0.59309164  0.50309266  0.77931818  1  -1.166054  0.059719  -0.309485  -0.177072  0.034474  3.569354  0.055
N  N288  1  0.93169003  0.07001665  0.50631039  1  -1.187695  0.058027  -0.302128  -0.175285  0.033478  3.545375  0.053
N  N289  1  0.62922519  0.06965769  0.50360936  1  -1.2005  0.061023  -0.309466  -0.175619  0.035089  3.576012  0.057
N  N290  1  0.38835338  0.50187286  0.71097078  1  -1.167439  0.062062  -0.313256  -0.181949  0.035821  3.588871  0.057
N  N291  1  0.09309670  0.50309566  0.72067977  1  -1.16608  0.05972  -0.309491  -0.177093  0.034475  3.569102  0.055
N  N292  1  0.56832181  0.92998288  0.00631229  1  -1.18774  0.05803  -0.302184  -0.175463  0.033478  3.545507  0.053
N  N293  1  0.87077101  0.93034110  0.00360823  1  -1.200351  0.061027  -0.309511  -0.175559  0.035092  3.575914  0.057
N  N294  1  0.11164477  0.49812313  0.21097204  1  -1.167386  0.062061  -0.313267  -0.181853  0.03582  3.588591  0.057
N  N295  1  0.40690440  0.49690737  0.22068120  1  -1.166107  0.059721  -0.30947  -0.177072  0.034475  3.569347  0.055
O  O296  1  0.17983849  0.83507910  0.41822420  1  -1.157643  0.078211  -0.320568  -0.573701  0.04309  2.365496  0.072
O  O297  1  0.23209731  0.69791197  0.40323700  1  -1.161127  0.000153  -0.319098  -0.529502  -0.001264  2.132451  0.0
O  O298  1  0.83690357  0.64295369  0.33719713  1  -1.142202  0.071428  -0.298442  -0.537296  0.039469  2.318787  0.066
O  O299  1  0.87646593  0.64256398  0.41597953  1  -1.194655  0.001456  -0.304213  -0.560063  -0.000332  2.220818  0.001
O  O300  1  0.71088674  0.34907611  0.33253327  1  -1.171965  0.078355  -0.313575  -0.567247  0.043132  2.370892  0.072
O  O301  1  0.55709373  0.32106132  0.39485737  1  -1.155421  -2.1e-05  -0.318494  -0.52681  -0.001308  2.135144  0.0
O  O302  1  0.17117685  0.82478843  0.56490053  1  -1.141895  0.065075  -0.298141  -0.539343  0.036253  2.373713  0.06
O  O303  1  0.10218952  0.66650438  0.57060431  1  -1.185412  0.002323  -0.304045  -0.555166  0.000335  2.193656  0.002
O  O304  1  0.29289846  0.73059556  0.49132330  1  -1.243037  0.080965  -0.578442  -0.741125  0.044691  2.126581  0.069
O  O305  1  0.98305113  0.72849756  0.49375313  1  -1.244615  0.06654  -0.578003  -0.758341  0.037072  2.178058  0.058
O  O306  1  0.93949511  0.49017108  0.37849212  1  -1.237658  0.068496  -0.57913  -0.749014  0.037885  2.165638  0.059
O  O307  1  0.63305206  0.49976648  0.39031051  1  -1.222897  0.076504  -0.580093  -0.750323  0.042351  2.125489  0.065
O  O308  1  0.32017181  0.16492630  0.91822384  1  -1.157644  0.07821  -0.320602  -0.573702  0.04309  2.365466  0.072
O  O309  1  0.26792435  0.30209836  0.90324136  1  -1.160794  0.000153  -0.319212  -0.529703  -0.001264  2.132357  0.0
O  O310  1  0.66309809  0.35704273  0.83719486  1  -1.142272  0.071431  -0.298434  -0.537304  0.039471  2.318776  0.066
O  O311  1  0.62353916  0.35743185  0.91597941  1  -1.194738  0.001454  -0.304198  -0.560128  -0.000333  2.220925  0.001
O  O312  1  0.78910957  0.65092450  0.83252967  1  -1.171356  0.078355  -0.313681  -0.567382  0.043133  2.370857  0.072
O  O313  1  0.94291133  0.67893658  0.89485333  1  -1.155757  -2.2e-05  -0.318383  -0.526666  -0.001309  2.135174  0.0
O  O314  1  0.32882419  0.17521018  0.06490466  1  -1.141842  0.065075  -0.298133  -0.539255  0.036253  2.373486  0.06
O  O315  1  0.39780771  0.33349494  0.07060777  1  -1.18531  0.002323  -0.304059  -0.555191  0.000335  2.193542  0.002
O  O316  1  0.20709833  0.26940780  0.99132803  1  -1.243002  0.080965  -0.578449  -0.74124  0.044693  2.126557  0.069
O  O317  1  0.51695924  0.27150680  0.99375551  1  -1.244611  0.066538  -0.578045  -0.758401  0.037071  2.177943  0.058
O  O318  1  0.56050509  0.50982959  0.87849143  1  -1.237478  0.068489  -0.579164  -0.748972  0.037881  2.165722  0.059
O  O319  1  0.86694514  0.50023211  0.89030926  1  -1.222922  0.076505  -0.579925  -0.750122  0.042351  2.125628  0.065
O  O320  1  0.82016646  0.16492024  0.58177590  1  -1.157692  0.07821  -0.320519  -0.57364  0.043088  2.36543  0.072
O  O321  1  0.76793565  0.30209797  0.59676026  1  -1.160962  0.000153  -0.319118  -0.52953  -0.001264  2.132375  0.0
O  O322  1  0.16309950  0.35704846  0.66280368  1  -1.142249  0.071431  -0.298404  -0.537237  0.039471  2.318905  0.066
O  O323  1  0.12354648  0.35743608  0.58401915  1  -1.194537  0.001455  -0.304133  -0.560016  -0.000333  2.220896  0.001
O  O324  1  0.28911078  0.65092742  0.66746825  1  -1.171954  0.078359  -0.313611  -0.56727  0.043133  2.370902  0.072
O  O325  1  0.44290831  0.67894082  0.60514379  1  -1.155645  -2.2e-05  -0.318445  -0.526682  -0.001309  2.135184  0.0
O  O326  1  0.82882417  0.17521371  0.43509460  1  -1.141982  0.065067  -0.298157  -0.539263  0.036249  2.37357  0.06
O  O327  1  0.89780613  0.33350196  0.42939260  1  -1.185193  0.002323  -0.304113  -0.55531  0.000336  2.193721  0.002
O  O328  1  0.70709728  0.26940376  0.50867432  1  -1.243127  0.080964  -0.578525  -0.74129  0.044692  2.126431  0.069
O  O329  1  0.01695518  0.27150740  0.50624342  1  -1.244707  0.06654  -0.578031  -0.758361  0.037072  2.178004  0.058
O  O330  1  0.06050651  0.50983246  0.62150762  1  -1.237683  0.068491  -0.579173  -0.748956  0.037883  2.165783  0.059
O  O331  1  0.36694824  0.50023636  0.60968923  1  -1.222899  0.076506  -0.580058  -0.750294  0.042351  2.12548  0.065
O  O332  1  0.67983352  0.83508356  0.08177590  1  -1.157783  0.07821  -0.320544  -0.573726  0.043088  2.365376  0.072
O  O333  1  0.73209872  0.69791716  0.09676263  1  -1.161545  0.000153  -0.319105  -0.529551  -0.001264  2.132576  0.0
O  O334  1  0.33689573  0.64295448  0.16280630  1  -1.142372  0.071433  -0.298477  -0.537362  0.039471  2.318848  0.066
O  O335  1  0.37646783  0.64256750  0.08402068  1  -1.194592  0.001455  -0.304237  -0.560101  -0.000332  2.220926  0.001
O  O336  1  0.21089244  0.34907273  0.16746971  1  -1.171616  0.07836  -0.313657  -0.567306  0.043133  2.37081  0.072
O  O337  1  0.05708965  0.32106065  0.10514747  1  -1.156068  -2.2e-05  -0.318317  -0.526554  -0.001308  2.135277  0.0
O  O338  1  0.67117325  0.82478353  0.93510005  1  -1.141849  0.065071  -0.298099  -0.53926  0.036251  2.373655  0.06
O  O339  1  0.60219485  0.66649879  0.92939693  1  -1.184662  0.002323  -0.304073  -0.555286  0.000335  2.193985  0.002
O  O340  1  0.79289737  0.73060345  0.00867561  1  -1.243171  0.080964  -0.578564  -0.741317  0.044692  2.126596  0.069
O  O341  1  0.48305291  0.72849747  0.00624742  1  -1.244711  0.066543  -0.57806  -0.758464  0.037074  2.178026  0.058
O  O342  1  0.43949227  0.49017113  0.12150902  1  -1.237667  0.068488  -0.579108  -0.748995  0.03788  2.165709  0.059
O  O343  1  0.13305217  0.49976371  0.10969120  1  -1.222312  0.076506  -0.580057  -0.750348  0.042351  2.125441  0.065
