# generated using pymatgen
data_Nd2H48C39S3N14O19
_symmetry_space_group_name_H-M   'P 1'
_cell_length_a   11.64055851
_cell_length_b   17.42592532
_cell_length_c   25.61109055
_cell_angle_alpha   101.69410948
_cell_angle_beta   89.99983031
_cell_angle_gamma   89.99998767
_symmetry_Int_Tables_number   1
_chemical_formula_structural   Nd2H48C39S3N14O19
_chemical_formula_sum   'Nd8 H192 C156 S12 N56 O76'
_cell_volume   5087.31353048
_cell_formula_units_Z   4
loop_
 _symmetry_equiv_pos_site_id
 _symmetry_equiv_pos_as_xyz
  1  'x, y, z'
loop_
 _atom_site_type_symbol
 _atom_site_label
 _atom_site_symmetry_multiplicity
 _atom_site_fract_x
 _atom_site_fract_y
 _atom_site_fract_z
 _atom_site_occupancy
 _atom_site_pbe_bader_charge
 _atom_site_pbe_bader_spin_density
 _atom_site_pbe_cm5_charge
 _atom_site_pbe_ddec_charge
 _atom_site_pbe_ddec_spin_density
 _atom_site_pbe_ddec_sum_bond_order
 _atom_site_pbe_magmom
Nd  Nd0  1  0.96653069  0.51080826  0.58050070  1  2.251989  0  1.48144  2.110189  0  2.115388  0
Nd  Nd1  1  0.96652951  0.98919566  0.91950349  1  2.251994  0  1.481366  2.110129  0  2.115412  0
Nd  Nd2  1  0.03347118  0.48919658  0.41950234  1  2.251961  0  1.481388  2.110146  0  2.115424  0
Nd  Nd3  1  0.03346892  0.01080450  0.08049928  1  2.251973  0  1.481435  2.110222  0  2.115303  0
Nd  Nd4  1  0.50702226  0.96149823  0.41895539  1  2.247644  0  1.490904  2.095245  0  2.147612  0
Nd  Nd5  1  0.50702172  0.53850405  0.08104436  1  2.247648  0  1.490941  2.095266  0  2.147579  0
Nd  Nd6  1  0.49297702  0.03850195  0.58104269  1  2.247589  0  1.490915  2.095209  0  2.147664  0
Nd  Nd7  1  0.49297585  0.46149963  0.91895617  1  2.247616  0  1.490907  2.095269  0  2.147573  0
H  H8  1  0.08762328  0.68766801  0.65300302  1  0.478826  0  0.315754  0.286914  0  0.96159  0
H  H9  1  0.08762521  0.81233291  0.84699685  1  0.478823  0  0.315793  0.28696  0  0.961616  0
H  H10  1  0.91238116  0.31233508  0.34699782  1  0.4786  0  0.315763  0.286932  0  0.961595  0
H  H11  1  0.91237580  0.18766198  0.15300245  1  0.478747  0  0.31583  0.287048  0  0.961538  0
H  H12  1  0.75504135  0.74673198  0.67590896  1  0.531831  0  0.309212  0.299099  0  0.994354  0
H  H13  1  0.75504344  0.75326623  0.82408846  1  0.531865  0  0.309219  0.299106  0  0.99433  0
H  H14  1  0.24496052  0.25326526  0.32408989  1  0.531831  0  0.309195  0.299085  0  0.994388  0
H  H15  1  0.24495499  0.24673159  0.17591203  1  0.53186  0  0.309204  0.299112  0  0.994316  0
H  H16  1  0.64008057  0.38206078  0.63218860  1  0.534435  0  0.307726  0.290805  0  0.996484  0
H  H17  1  0.64008242  0.11793778  0.86781120  1  0.534448  0  0.307739  0.290826  0  0.996491  0
H  H18  1  0.35992216  0.61794291  0.36781154  1  0.534413  0  0.307761  0.290883  0  0.996434  0
H  H19  1  0.35992202  0.88205652  0.13218918  1  0.5344  0  0.307787  0.290923  0  0.996511  0
H  H20  1  0.69074609  0.46526424  0.49757931  1  0.467974  0  0.323713  0.293653  0  0.932271  0
H  H21  1  0.69074605  0.03473529  0.00242043  1  0.467996  0  0.323682  0.293619  0  0.932331  0
H  H22  1  0.30925663  0.53474120  0.50242068  1  0.46754  0  0.323706  0.293657  0  0.932234  0
H  H23  1  0.30925839  0.96525608  0.99757838  1  0.467561  0  0.323755  0.293735  0  0.932145  0
H  H24  1  0.39113382  0.10745875  0.35998165  1  0.498697  0  0.311766  0.285653  0  0.970675  0
H  H25  1  0.39113793  0.39254448  0.14001784  1  0.498776  0  0.311745  0.285548  0  0.970759  0
H  H26  1  0.60886203  0.89254437  0.64001568  1  0.498756  0  0.311806  0.285647  0  0.970675  0
H  H27  1  0.60886393  0.60745626  0.85998345  1  0.498748  0  0.311777  0.285593  0  0.970738  0
H  H28  1  0.32994370  0.91184388  0.24769762  1  0.542934  0  0.307649  0.290715  0  1.001637  0
H  H29  1  0.32994631  0.58815615  0.25230362  1  0.542894  0  0.307686  0.290741  0  1.001591  0
H  H30  1  0.67005387  0.08815452  0.75230296  1  0.542951  0  0.30768  0.290756  0  1.001618  0
H  H31  1  0.67004954  0.41184460  0.74769611  1  0.5429  0  0.307669  0.290706  0  1.00163  0
H  H32  1  0.48394215  0.69741394  0.30983813  1  0.542635  0  0.302541  0.288286  0  1.007831  0
H  H33  1  0.48393995  0.80258601  0.19016133  1  0.542713  0  0.302545  0.288309  0  1.007785  0
H  H34  1  0.51605971  0.30258330  0.69016150  1  0.542729  0  0.302541  0.288306  0  1.007808  0
H  H35  1  0.51606020  0.19741474  0.80983801  1  0.542663  0  0.302544  0.288301  0  1.007792  0
H  H36  1  0.76139342  0.83169879  0.36448917  1  0.506873  0  0.312249  0.292973  0  0.970179  0
H  H37  1  0.76138990  0.66829807  0.13551026  1  0.506962  0  0.312258  0.292969  0  0.970166  0
H  H38  1  0.23861016  0.16829552  0.63550887  1  0.506916  0  0.312274  0.293049  0  0.970164  0
H  H39  1  0.23860853  0.33169858  0.86449007  1  0.50688  0  0.312249  0.292979  0  0.970179  0
H  H40  1  0.21403314  0.75546064  0.61557893  1  0.088701  0  0.106415  0.113043  0  1.022049  0
H  H41  1  0.21402453  0.74454137  0.88442326  1  0.088721  0  0.106403  0.113034  0  1.022108  0
H  H42  1  0.78597388  0.24454362  0.38442363  1  0.088714  0  0.106429  0.113049  0  1.022096  0
H  H43  1  0.78596788  0.25546231  0.11557805  1  0.088749  0  0.10644  0.113072  0  1.022063  0
H  H44  1  0.33295531  0.87530955  0.59538926  1  0.125438  0  0.113879  0.130832  0  1.04069  0
H  H45  1  0.33295434  0.62469358  0.90461098  1  0.125519  0  0.113846  0.130735  0  1.040589  0
H  H46  1  0.66704827  0.12469238  0.40460946  1  0.125472  0  0.113842  0.1308  0  1.040608  0
H  H47  1  0.66704151  0.37530776  0.09538883  1  0.1255  0  0.113869  0.130838  0  1.040627  0
H  H48  1  0.94892012  0.42046367  0.76528218  1  0.085681  0  0.108777  0.115788  0  1.029644  0
H  H49  1  0.94891684  0.07953529  0.73471844  1  0.085641  0  0.108774  0.115799  0  1.029599  0
H  H50  1  0.05108089  0.57953649  0.23471942  1  0.085686  0  0.108772  0.115812  0  1.029629  0
H  H51  1  0.05107987  0.92046312  0.26528096  1  0.085701  0  0.108761  0.11577  0  1.029675  0
H  H52  1  0.08012304  0.41810439  0.85150987  1  0.174196  0  0.114421  0.139023  0  1.017069  0
H  H53  1  0.08011946  0.08189448  0.64849112  1  0.174225  0  0.114423  0.138983  0  1.017078  0
H  H54  1  0.91988140  0.58189518  0.14849087  1  0.174205  0  0.114418  0.138983  0  1.01711  0
H  H55  1  0.91987811  0.91810393  0.35150906  1  0.174207  0  0.114411  0.138996  0  1.017088  0
H  H56  1  0.25240742  0.36313673  0.42227855  1  0.146651  0  0.111656  0.117935  0  1.061382  0
H  H57  1  0.25241287  0.13686363  0.07772463  1  0.146635  0  0.111637  0.117906  0  1.061378  0
H  H58  1  0.74758328  0.63686284  0.57772375  1  0.146659  0  0.111702  0.11795  0  1.061343  0
H  H59  1  0.74759758  0.86313652  0.92227814  1  0.146661  0  0.111665  0.117958  0  1.06136  0
H  H60  1  0.36982542  0.23130278  0.39964427  1  0.118242  0  0.106012  0.118612  0  1.033883  0
H  H61  1  0.36982982  0.26869868  0.10035812  1  0.11812  0  0.106014  0.118633  0  1.033854  0
H  H62  1  0.63016442  0.76869738  0.60035577  1  0.118023  0  0.106015  0.118571  0  1.033913  0
H  H63  1  0.63017891  0.73130324  0.89964294  1  0.118524  0  0.106027  0.118628  0  1.033863  0
H  H64  1  0.87462747  0.87941614  0.68898652  1  0.063122  0  0.103938  0.079192  0  1.000048  0
H  H65  1  0.87463399  0.62058551  0.81101395  1  0.063222  0  0.103921  0.079154  0  1.000084  0
H  H66  1  0.12536924  0.12058518  0.31101680  1  0.063093  0  0.103939  0.079182  0  1.000051  0
H  H67  1  0.12536272  0.37941173  0.18898567  1  0.063259  0  0.103935  0.079142  0  1.000116  0
H  H68  1  0.88446445  0.83620903  0.74617225  1  0.040609  0  0.103448  0.077147  0  0.998075  0
H  H69  1  0.88446960  0.66378733  0.75382708  1  0.040714  0  0.103415  0.077129  0  0.99803  0
H  H70  1  0.11553312  0.16378585  0.25382939  1  0.040812  0  0.103433  0.077156  0  0.998024  0
H  H71  1  0.11552453  0.33620932  0.24617247  1  0.040636  0  0.103442  0.077173  0  0.99803  0
H  H72  1  0.06042180  0.83246793  0.65772160  1  0.052921  0  0.094948  0.064039  0  1.004842  0
H  H73  1  0.06042896  0.66753303  0.84227675  1  0.052986  0  0.094899  0.063996  0  1.004831  0
H  H74  1  0.93957577  0.16753633  0.34228057  1  0.052916  0  0.094925  0.064038  0  1.004862  0
H  H75  1  0.93956947  0.33246128  0.15772169  1  0.052907  0  0.094921  0.064006  0  1.004907  0
H  H76  1  0.08328045  0.82438511  0.72547236  1  0.065011  0  0.094893  0.06954  0  1.021279  0
H  H77  1  0.08328461  0.67561760  0.77452464  1  0.064901  0  0.094926  0.069532  0  1.021283  0
H  H78  1  0.91671712  0.17561682  0.27452753  1  0.065015  0  0.094917  0.069557  0  1.021277  0
H  H79  1  0.91671038  0.32437847  0.22547443  1  0.064707  0  0.094878  0.069437  0  1.021236  0
H  H80  1  0.59926431  0.33153434  0.47853274  1  0.062896  0  0.093372  0.063963  0  1.022505  0
H  H81  1  0.59926496  0.16846466  0.02146665  1  0.062923  0  0.093359  0.063936  0  1.022431  0
H  H82  1  0.40074013  0.66847052  0.52146678  1  0.062998  0  0.09337  0.063966  0  1.022422  0
H  H83  1  0.40074034  0.83152612  0.97853402  1  0.062911  0  0.093392  0.064  0  1.022456  0
H  H84  1  0.48081548  0.39754379  0.48813513  1  0.072274  0  0.096633  0.074667  0  1.018461  0
H  H85  1  0.48081536  0.10245703  0.01186507  1  0.072269  0  0.096634  0.074666  0  1.018505  0
H  H86  1  0.51918982  0.60245872  0.51186485  1  0.072217  0  0.096608  0.074648  0  1.018508  0
H  H87  1  0.51919080  0.89753668  0.98813445  1  0.072085  0  0.096614  0.074641  0  1.018536  0
H  H88  1  0.44512276  0.37481315  0.57531307  1  0.053176  0  0.092193  0.056821  0  1.027101  0
H  H89  1  0.44512423  0.12518669  0.92468678  1  0.053151  0  0.092178  0.056826  0  1.027144  0
H  H90  1  0.55487997  0.62518819  0.42468596  1  0.053122  0  0.092182  0.056816  0  1.027128  0
H  H91  1  0.55488107  0.87480937  0.07531346  1  0.053082  0  0.092188  0.056829  0  1.027093  0
H  H92  1  0.53555663  0.29165836  0.55778455  1  0.100125  0  0.106529  0.089492  0  0.99307  0
H  H93  1  0.53555969  0.20834201  0.94221487  1  0.100121  0  0.106516  0.08948  0  0.993094  0
H  H94  1  0.46445039  0.70834416  0.44221465  1  0.100054  0  0.106526  0.089427  0  0.993071  0
H  H95  1  0.46444991  0.79165463  0.05778662  1  0.100001  0  0.106554  0.089494  0  0.993117  0
H  H96  1  0.24662919  0.04307009  0.22003885  1  0.050955  0  0.10334  0.080516  0  0.984506  0
H  H97  1  0.24663838  0.45692911  0.27996144  1  0.051089  0  0.103336  0.080496  0  0.984529  0
H  H98  1  0.75336580  0.95692599  0.77995788  1  0.051066  0  0.103335  0.080492  0  0.984506  0
H  H99  1  0.75335489  0.54307164  0.72003751  1  0.051182  0  0.103316  0.080434  0  0.984659  0
H  H100  1  0.38722218  0.01305820  0.19834086  1  0.030064  0  0.102525  0.071506  0  1.020865  0
H  H101  1  0.38722950  0.48694209  0.30165900  1  0.030434  0  0.102528  0.07157  0  1.020804  0
H  H102  1  0.61277453  0.98693786  0.80165821  1  0.030469  0  0.102529  0.071536  0  1.0208  0
H  H103  1  0.61276205  0.51306158  0.69834270  1  0.030369  0  0.102535  0.071542  0  1.020859  0
H  H104  1  0.47850450  0.10350896  0.26930280  1  0.002529  0  0.09281  0.065507  0  0.990092  0
H  H105  1  0.47851489  0.39649422  0.23069618  1  0.058629  0  0.092879  0.065586  0  0.990167  0
H  H106  1  0.52148534  0.89649239  0.73069468  1  0.058644  0  0.09287  0.065607  0  0.990137  0
H  H107  1  0.52148097  0.60350886  0.76930739  1  0.058558  0  0.092899  0.065617  0  0.990149  0
H  H108  1  0.34885865  0.15710722  0.26922108  1  0.091668  0  0.103175  0.089432  0  1.024987  0
H  H109  1  0.34886905  0.34289252  0.23077837  1  0.091794  0  0.10312  0.089411  0  1.024875  0
H  H110  1  0.65113119  0.84289063  0.73077473  1  0.091657  0  0.103191  0.089476  0  1.024968  0
H  H111  1  0.65112852  0.65710822  0.76922331  1  0.091719  0  0.103137  0.0894  0  1.024917  0
H  H112  1  0.66965250  0.64472893  0.25479621  1  0.063785  0  0.096272  0.07008  0  1.007659  0
H  H113  1  0.66965164  0.85527092  0.24520298  1  0.063798  0  0.096257  0.070062  0  1.007732  0
H  H114  1  0.33034507  0.35526713  0.74520325  1  0.06379  0  0.096257  0.07002  0  1.007714  0
H  H115  1  0.33034936  0.14473043  0.75479644  1  0.063777  0  0.096295  0.070107  0  1.007616  0
H  H116  1  0.65975932  0.60515153  0.31353734  1  0.049796  0  0.093492  0.060902  0  1.00633  0
H  H117  1  0.65976055  0.89484656  0.18646162  1  0.049817  0  0.093525  0.060936  0  1.006309  0
H  H118  1  0.34023996  0.39484336  0.68646235  1  0.049862  0  0.093515  0.060879  0  1.006374  0
H  H119  1  0.34024561  0.10515185  0.81353700  1  0.049844  0  0.09351  0.06092  0  1.006299  0
H  H120  1  0.80588703  0.69040791  0.35728144  1  0.077525  0  0.097194  0.074138  0  1.014935  0
H  H121  1  0.80588600  0.80958834  0.14271707  1  0.077534  0  0.097187  0.074168  0  1.014939  0
H  H122  1  0.19411311  0.30958699  0.64271669  1  0.077552  0  0.097195  0.074157  0  1.014981  0
H  H123  1  0.19411844  0.19040713  0.85728387  1  0.077841  0  0.097222  0.074182  0  1.014834  0
H  H124  1  0.83865887  0.70793742  0.29279552  1  0.055023  0  0.097834  0.071074  0  0.999023  0
H  H125  1  0.83865655  0.79205940  0.20720341  1  0.054939  0  0.097863  0.071109  0  0.998977  0
H  H126  1  0.16134128  0.29205572  0.70720275  1  0.054979  0  0.097849  0.071084  0  0.999039  0
H  H127  1  0.16134273  0.20793724  0.79279769  1  0.055112  0  0.097838  0.071018  0  0.999063  0
H  H128  1  0.98274659  0.31798912  0.00642043  1  0.450559  0  0.293793  0.250878  0  1.017366  0
H  H129  1  0.98274073  0.18201084  0.49357819  1  0.450508  0  0.293749  0.25081  0  1.017462  0
H  H130  1  0.01725871  0.68201223  0.99357782  1  0.4505  0  0.293752  0.250829  0  1.017429  0
H  H131  1  0.01725512  0.81798523  0.50642010  1  0.450498  0  0.293756  0.250813  0  1.017417  0
H  H132  1  0.19790052  0.47357774  0.96253550  1  0.488751  0  0.311592  0.293704  0  0.977999  0
H  H133  1  0.19789682  0.02642926  0.53746804  1  0.488841  0  0.311556  0.293683  0  0.978094  0
H  H134  1  0.80210220  0.52643119  0.03746929  1  0.488783  0  0.311564  0.293688  0  0.978117  0
H  H135  1  0.80210504  0.97357091  0.46253200  1  0.488826  0  0.311564  0.293684  0  0.978104  0
H  H136  1  0.08897904  0.39361683  0.09374311  1  0.046164  0  0.098848  0.077015  0  0.978981  0
H  H137  1  0.08898236  0.10638482  0.40625657  1  0.046259  0  0.098823  0.076961  0  0.978975  0
H  H138  1  0.91101681  0.60638451  0.90625748  1  0.046307  0  0.098834  0.076985  0  0.978945  0
H  H139  1  0.91101435  0.89361184  0.59374142  1  0.046133  0  0.098859  0.077007  0  0.978946  0
H  H140  1  0.97176750  0.44676309  0.07266826  1  0.061329  0  0.093711  0.064211  0  1.014075  0
H  H141  1  0.97177156  0.05323746  0.42733202  1  0.061298  0  0.093734  0.064228  0  1.014091  0
H  H142  1  0.02822749  0.55323649  0.92733169  1  0.061295  0  0.093734  0.064211  0  1.014139  0
H  H143  1  0.02822945  0.94675743  0.57266805  1  0.061445  0  0.093743  0.064231  0  1.014159  0
H  H144  1  0.11413600  0.53819827  0.05988490  1  0.015961  0  0.100719  0.076801  0  1.002369  0
H  H145  1  0.11414328  0.96180481  0.44011745  1  0.016111  0  0.100734  0.076848  0  1.002365  0
H  H146  1  0.88585728  0.46180422  0.94011859  1  0.016106  0  0.100733  0.076871  0  1.002332  0
H  H147  1  0.88586460  0.03819419  0.55988203  1  0.016112  0  0.100743  0.076863  0  1.002407  0
H  H148  1  0.22766063  0.46943036  0.05876869  1  0.065707  0  0.105029  0.072095  0  1.022928  0
H  H149  1  0.22766461  0.03057764  0.44123520  1  0.065641  0  0.105081  0.072161  0  1.022889  0
H  H150  1  0.77233522  0.53057682  0.94123624  1  0.065656  0  0.105088  0.072145  0  1.022894  0
H  H151  1  0.77233812  0.96942546  0.55876486  1  0.065694  0  0.105046  0.072106  0  1.022941  0
H  H152  1  0.88116164  0.36480116  0.67573290  1  0.53257  0  0.310034  0.29951  0  0.980069  0
H  H153  1  0.88116549  0.13519842  0.82426829  1  0.532417  0  0.310021  0.299504  0  0.980073  0
H  H154  1  0.11883678  0.63519901  0.32426675  1  0.53257  0  0.310048  0.299508  0  0.980066  0
H  H155  1  0.11883723  0.86480058  0.17573158  1  0.532435  0  0.310049  0.299496  0  0.980072  0
H  H156  1  0.66103137  0.18110396  0.66748940  1  0.503092  0  0.31759  0.297432  0  0.952922  0
H  H157  1  0.66103425  0.31889458  0.83250998  1  0.503159  0  0.317611  0.297478  0  0.952886  0
H  H158  1  0.33896620  0.81889562  0.33250977  1  0.503109  0  0.317588  0.297423  0  0.952941  0
H  H159  1  0.33896590  0.68110266  0.16748886  1  0.503105  0  0.317575  0.29743  0  0.952909  0
H  H160  1  0.97705473  0.24061896  0.70740326  1  0.017564  0  0.089969  0.052351  0  1.013488  0
H  H161  1  0.97705788  0.25938291  0.79259734  1  0.018624  0  0.089957  0.052335  0  1.01348  0
H  H162  1  0.02294370  0.75938180  0.29259569  1  0.017511  0  0.089959  0.052332  0  1.013521  0
H  H163  1  0.02294141  0.74061903  0.20740099  1  0.018687  0  0.089958  0.052348  0  1.013462  0
H  H164  1  0.99272860  0.23945135  0.63765759  1  0.10926  0  0.11002  0.105626  0  1.014216  0
H  H165  1  0.99273130  0.26054992  0.86234407  1  0.109181  0  0.110042  0.105639  0  1.014247  0
H  H166  1  0.00726725  0.76054882  0.36234206  1  0.109231  0  0.110022  0.105604  0  1.014238  0
H  H167  1  0.00726970  0.73945142  0.13765535  1  0.109169  0  0.110038  0.105632  0  1.014276  0
H  H168  1  0.83752909  0.15079126  0.61354217  1  0.055367  0  0.097514  0.069584  0  1.026871  0
H  H169  1  0.83752817  0.34920717  0.88645931  1  0.055343  0  0.097525  0.069592  0  1.026906  0
H  H170  1  0.16246933  0.84920656  0.38645793  1  0.055408  0  0.097486  0.069558  0  1.026872  0
H  H171  1  0.16247025  0.65079123  0.11354087  1  0.0553  0  0.09748  0.069557  0  1.026872  0
H  H172  1  0.86734190  0.12299918  0.67518312  1  0.02888  0  0.101323  0.07788  0  0.999844  0
H  H173  1  0.86734395  0.37700156  0.82482020  1  0.028858  0  0.101364  0.07791  0  0.999842  0
H  H174  1  0.13265567  0.87700097  0.32481887  1  0.028843  0  0.101347  0.077902  0  0.999834  0
H  H175  1  0.13265362  0.62299978  0.17518000  1  0.028863  0  0.101348  0.077915  0  0.999863  0
H  H176  1  0.38621621  0.73584910  0.69220999  1  0.459388  0  0.320254  0.283292  0  0.930513  0
H  H177  1  0.38620122  0.76414990  0.80778843  1  0.459163  0  0.320218  0.283376  0  0.930487  0
H  H178  1  0.61379768  0.26415048  0.30778918  1  0.459191  0  0.320213  0.283383  0  0.93048  0
H  H179  1  0.61379720  0.23585320  0.19221085  1  0.459112  0  0.320213  0.28331  0  0.930435  0
H  H180  1  0.31154739  0.64013176  0.61135023  1  0.040071  0  0.095365  0.066703  0  1.012519  0
H  H181  1  0.31153528  0.85987611  0.88864407  1  0.040113  0  0.095359  0.066708  0  1.012525  0
H  H182  1  0.68846221  0.35987135  0.38864866  1  0.039913  0  0.095404  0.066743  0  1.012382  0
H  H183  1  0.68846400  0.14013053  0.11135297  1  0.040034  0  0.095409  0.066763  0  1.012394  0
H  H184  1  0.27243569  0.60031047  0.66770852  1  0.11306  0  0.102442  0.0962  0  1.026507  0
H  H185  1  0.27243510  0.89969394  0.83227910  1  0.112872  0  0.102461  0.096283  0  1.026549  0
H  H186  1  0.72756704  0.39969266  0.33228725  1  0.112955  0  0.10249  0.096296  0  1.026588  0
H  H187  1  0.72757020  0.10031152  0.16771739  1  0.113024  0  0.102474  0.096317  0  1.026557  0
H  H188  1  0.61993548  0.57493720  0.62527874  1  0.499372  0  0.316519  0.289501  0  0.966443  0
H  H189  1  0.61993289  0.92505407  0.87471516  1  0.499507  0  0.316553  0.289552  0  0.96646  0
H  H190  1  0.38006896  0.42505594  0.37471914  1  0.499487  0  0.316572  0.289581  0  0.966367  0
H  H191  1  0.38007155  0.07494493  0.12528394  1  0.499561  0  0.316595  0.289631  0  0.966381  0
H  H192  1  0.43651635  0.51400033  0.65729259  1  0.027768  0  0.099165  0.06589  0  0.994135  0
H  H193  1  0.43652254  0.98599636  0.84269568  1  0.027474  0  0.099134  0.065857  0  0.9942  0
H  H194  1  0.56347950  0.48599694  0.34270197  1  0.02756  0  0.099145  0.065876  0  0.994095  0
H  H195  1  0.56348448  0.01400557  0.15730344  1  0.027579  0  0.099163  0.065887  0  0.994195  0
H  H196  1  0.41841521  0.52016100  0.58906846  1  0.021852  0  0.108219  0.089391  0  0.971229  0
H  H197  1  0.41841494  0.97984040  0.91091893  1  0.02178  0  0.108272  0.089491  0  0.971202  0
H  H198  1  0.58158666  0.47983862  0.41092565  1  0.022041  0  0.10827  0.089496  0  0.971243  0
H  H199  1  0.58159036  0.02016212  0.08907949  1  0.021751  0  0.108259  0.089504  0  0.971142  0
C  C200  1  0.17936756  0.72158173  0.53049915  1  -0.207441  0  -0.025182  -0.142528  0  3.969781  0
C  C201  1  0.17936096  0.77842148  0.96950287  1  -0.207222  0  -0.025232  -0.142606  0  3.970147  0
C  C202  1  0.82063431  0.27842018  0.46950348  1  -0.207409  0  -0.025221  -0.142621  0  3.970007  0
C  C203  1  0.82062888  0.22158162  0.03049796  1  -0.207422  0  -0.025215  -0.142567  0  3.969798  0
C  C204  1  0.22467536  0.76850925  0.57614930  1  -0.072235  0  -0.100538  -0.12297  0  4.02513  0
C  C205  1  0.22466736  0.73149569  0.92385252  1  -0.072747  0  -0.100555  -0.12303  0  4.025441  0
C  C206  1  0.77533080  0.23149326  0.42385224  1  -0.072315  0  -0.100517  -0.122898  0  4.025365  0
C  C207  1  0.77532419  0.26850799  0.07614841  1  -0.072277  0  -0.100556  -0.123003  0  4.025217  0
C  C208  1  0.28705212  0.83310079  0.56551605  1  0.027562  0  -0.090933  -0.104734  0  3.963623  0
C  C209  1  0.28704923  0.66690412  0.93448411  1  0.02782  0  -0.090826  -0.104529  0  3.96335  0
C  C210  1  0.71295060  0.16690172  0.43448353  1  0.027701  0  -0.09089  -0.104736  0  3.963544  0
C  C211  1  0.71294491  0.33309781  0.06551501  1  0.027535  0  -0.090903  -0.104724  0  3.963594  0
C  C212  1  0.28755227  0.83473298  0.51164761  1  -0.23348  0  -0.014688  -0.114713  0  3.935193  0
C  C213  1  0.28755074  0.66527076  0.98835316  1  -0.233558  0  -0.01479  -0.114881  0  3.935132  0
C  C214  1  0.71244873  0.16526777  0.48835251  1  -0.233503  0  -0.014705  -0.1147  0  3.935017  0
C  C215  1  0.71244253  0.33473175  0.01164720  1  -0.23349  0  -0.014728  -0.114711  0  3.935231  0
C  C216  1  0.11476846  0.64669736  0.52351998  1  1.603586  0  0.22164  0.635563  0  4.22876  0
C  C217  1  0.11476179  0.85330530  0.97648205  1  1.603447  0  0.221697  0.63577  0  4.228402  0
C  C218  1  0.88523341  0.35330514  0.47648273  1  1.603283  0  0.221641  0.635646  0  4.228668  0
C  C219  1  0.88523062  0.14669779  0.02351918  1  1.603683  0  0.221654  0.635573  0  4.228662  0
C  C220  1  0.34507194  0.88832854  0.48226225  1  1.583439  0  0.203317  0.606843  0  4.252133  0
C  C221  1  0.34507435  0.61167618  0.01773767  1  1.58392  0  0.203403  0.606969  0  4.252137  0
C  C222  1  0.65492735  0.11167222  0.51773670  1  1.583881  0  0.203326  0.606842  0  4.25216  0
C  C223  1  0.65492236  0.38832691  0.98226317  1  1.583699  0  0.203406  0.606935  0  4.252138  0
C  C224  1  0.08459397  0.48769935  0.73786179  1  -0.211184  0  -0.01854  -0.104567  0  3.957672  0
C  C225  1  0.08459139  0.01229952  0.76213842  1  -0.211156  0  -0.018509  -0.104549  0  3.957625  0
C  C226  1  0.91540531  0.51229847  0.26213792  1  -0.211248  0  -0.018551  -0.104505  0  3.957619  0
C  C227  1  0.91540360  0.98770064  0.23786201  1  -0.210896  0  -0.018567  -0.10452  0  3.957476  0
C  C228  1  0.03295974  0.44770223  0.77318794  1  0.005965  0  -0.097091  -0.116809  0  3.991616  0
C  C229  1  0.03295910  0.05229901  0.72681345  1  0.005993  0  -0.097087  -0.116816  0  3.991491  0
C  C230  1  0.96704040  0.55229734  0.22681280  1  0.005983  0  -0.097126  -0.116938  0  3.991603  0
C  C231  1  0.96704019  0.94770349  0.27318808  1  0.005669  0  -0.097071  -0.116822  0  3.991549  0
C  C232  1  0.10133175  0.44661558  0.81848507  1  -0.063563  0  -0.090974  -0.105189  0  3.959108  0
C  C233  1  0.10133054  0.05338445  0.68151567  1  -0.063527  0  -0.091002  -0.105164  0  3.959069  0
C  C234  1  0.89867098  0.55338399  0.18151528  1  -0.063528  0  -0.090977  -0.105143  0  3.959164  0
C  C235  1  0.89866875  0.94661571  0.31848515  1  -0.063605  0  -0.090998  -0.105188  0  3.959177  0
C  C236  1  0.20489207  0.48546432  0.81653566  1  -0.206556  0  -0.023855  -0.121002  0  3.988133  0
C  C237  1  0.20488914  0.01453507  0.68346445  1  -0.206575  0  -0.023789  -0.120905  0  3.987996  0
C  C238  1  0.79510980  0.51453468  0.18346343  1  -0.206611  0  -0.02381  -0.120968  0  3.9881  0
C  C239  1  0.79510929  0.98546451  0.31653628  1  -0.206574  0  -0.023859  -0.121012  0  3.988243  0
C  C240  1  0.04132560  0.49881828  0.68589337  1  1.572201  0  0.187003  0.581668  0  4.281251  0
C  C241  1  0.04132612  0.00118296  0.81410722  1  1.572182  0  0.186945  0.581584  0  4.281321  0
C  C242  1  0.95867283  0.50118072  0.31410650  1  1.572181  0  0.186961  0.581612  0  4.281225  0
C  C243  1  0.95867317  0.99881954  0.18589431  1  1.572175  0  0.186971  0.581512  0  4.281333  0
C  C244  1  0.30077480  0.48945756  0.85435747  1  1.562888  0  0.182997  0.560099  0  4.322908  0
C  C245  1  0.30077470  0.01054354  0.64564237  1  1.562395  0  0.182953  0.560015  0  4.322859  0
C  C246  1  0.69922449  0.51054262  0.14564140  1  1.562448  0  0.182881  0.559984  0  4.323068  0
C  C247  1  0.69922373  0.98945545  0.35435789  1  1.562434  0  0.182887  0.559949  0  4.323049  0
C  C248  1  0.22843666  0.34099117  0.50218319  1  -0.139678  0  -0.027105  -0.144244  0  3.976648  0
C  C249  1  0.22844195  0.15900937  0.99781862  1  -0.139445  0  -0.027119  -0.144273  0  3.976518  0
C  C250  1  0.77155833  0.65900782  0.49781746  1  -0.139553  0  -0.027066  -0.144192  0  3.976538  0
C  C251  1  0.77156250  0.84099020  0.00218407  1  -0.139685  0  -0.027109  -0.144363  0  3.976662  0
C  C252  1  0.26951132  0.32526478  0.45023020  1  -0.087922  0  -0.094439  -0.107674  0  3.99938  0
C  C253  1  0.26951437  0.17473557  0.04977218  1  -0.088143  0  -0.094402  -0.107543  0  3.999124  0
C  C254  1  0.73048195  0.67473362  0.54977037  1  -0.0882  0  -0.094528  -0.107755  0  3.999398  0
C  C255  1  0.73049437  0.82526458  0.95023059  1  -0.087939  0  -0.094421  -0.107619  0  3.999363  0
C  C256  1  0.33073953  0.25426041  0.43812676  1  -0.004607  0  -0.100071  -0.112479  0  3.993865  0
C  C257  1  0.33074420  0.24574049  0.06187560  1  -0.004629  0  -0.099993  -0.112477  0  3.993764  0
C  C258  1  0.66925202  0.74573858  0.56187350  1  -0.004231  0  -0.100018  -0.112424  0  3.99408  0
C  C259  1  0.66926368  0.75426084  0.93812616  1  -0.004852  0  -0.100048  -0.112427  0  3.993758  0
C  C260  1  0.33634137  0.21687265  0.48095573  1  -0.243146  0  -0.018439  -0.121471  0  3.932515  0
C  C261  1  0.33634544  0.28312884  0.01904632  1  -0.242757  0  -0.018543  -0.121618  0  3.932454  0
C  C262  1  0.66365277  0.78312635  0.51904453  1  -0.243035  0  -0.018469  -0.121409  0  3.932502  0
C  C263  1  0.66365643  0.71687191  0.98095458  1  -0.242991  0  -0.018496  -0.121644  0  3.932477  0
C  C264  1  0.15645377  0.40701472  0.52815712  1  1.545222  0  0.199736  0.616294  0  4.254997  0
C  C265  1  0.15645494  0.09298762  0.97184543  1  1.545013  0  0.199772  0.61624  0  4.254964  0
C  C266  1  0.84354552  0.59298603  0.47184456  1  1.54521  0  0.199723  0.616256  0  4.254979  0
C  C267  1  0.84354520  0.90701370  0.02815750  1  1.545209  0  0.199837  0.616551  0  4.25479  0
C  C268  1  0.39134474  0.14106168  0.48364218  1  1.604274  0  0.22205  0.640069  0  4.211103  0
C  C269  1  0.39134452  0.35894153  0.01636004  1  1.604216  0  0.222048  0.640204  0  4.210935  0
C  C270  1  0.60865111  0.85893849  0.51635668  1  1.604227  0  0.222081  0.640188  0  4.210964  0
C  C271  1  0.60865305  0.64106098  0.98364111  1  1.604214  0  0.222084  0.64023  0  4.210898  0
C  C272  1  0.90119317  0.82666215  0.70302590  1  0.336019  0  -0.052068  -0.011855  0  3.860393  0
C  C273  1  0.90119804  0.67333773  0.79697273  1  0.33593  0  -0.05203  -0.011756  0  3.86041  0
C  C274  1  0.09880612  0.17333742  0.29697523  1  0.335998  0  -0.052059  -0.011773  0  3.860226  0
C  C275  1  0.09879867  0.32665951  0.20302690  1  0.336005  0  -0.052052  -0.011819  0  3.860515  0
C  C276  1  0.02862683  0.80544110  0.69033990  1  0.303342  0  -0.059433  -0.025836  0  3.891871  0
C  C277  1  0.02863333  0.69455752  0.80965817  1  0.303405  0  -0.059429  -0.025812  0  3.891898  0
C  C278  1  0.97136988  0.19456082  0.30966117  1  0.303387  0  -0.059488  -0.025934  0  3.891923  0
C  C279  1  0.97136424  0.30543737  0.19034035  1  0.303641  0  -0.059361  -0.025581  0  3.891804  0
C  C280  1  0.91441434  0.69607743  0.66000088  1  1.817814  0  0.338033  0.649782  0  4.201674  0
C  C281  1  0.91441718  0.80392185  0.83999803  1  1.817819  0  0.33809  0.649806  0  4.201487  0
C  C282  1  0.08558924  0.30392391  0.33999971  1  1.817832  0  0.338059  0.649911  0  4.201639  0
C  C283  1  0.08558469  0.19607421  0.16000143  1  1.817701  0  0.338018  0.649835  0  4.201822  0
C  C284  1  0.55829452  0.37964944  0.50689310  1  0.260604  0  -0.061196  -0.020593  0  3.866615  0
C  C285  1  0.55829470  0.12034916  0.99310643  1  0.260604  0  -0.061207  -0.020562  0  3.866604  0
C  C286  1  0.44171164  0.62035425  0.49310704  1  0.260436  0  -0.061191  -0.020552  0  3.866398  0
C  C287  1  0.44171146  0.87964221  0.00689277  1  0.260527  0  -0.061251  -0.020634  0  3.866485  0
C  C288  1  0.53123208  0.35528347  0.56063170  1  0.294467  0  -0.057035  -0.031377  0  3.89928  0
C  C289  1  0.53123259  0.14471632  0.93936842  1  0.294483  0  -0.057083  -0.031497  0  3.899487  0
C  C290  1  0.46877151  0.64471846  0.43936780  1  0.294866  0  -0.056969  -0.031245  0  3.899115  0
C  C291  1  0.46877185  0.85527915  0.06063213  1  0.295076  0  -0.057013  -0.031317  0  3.899151  0
C  C292  1  0.67986922  0.44670266  0.57357586  1  1.833689  0  0.333345  0.635877  0  4.234457  0
C  C293  1  0.67986899  0.05329646  0.92642397  1  1.833705  0  0.333333  0.635841  0  4.234557  0
C  C294  1  0.32013179  0.55330161  0.42642436  1  1.833679  0  0.333404  0.635948  0  4.234219  0
C  C295  1  0.32013288  0.94669609  0.07357539  1  1.833589  0  0.333419  0.636029  0  4.233976  0
C  C296  1  0.33323153  0.03093160  0.23373303  1  0.332371  0  -0.054692  -0.017558  0  3.880776  0
C  C297  1  0.33323994  0.46906932  0.26626699  1  0.331916  0  -0.05474  -0.017643  0  3.880619  0
C  C298  1  0.66676261  0.96906624  0.76626473  1  0.332188  0  -0.054692  -0.017544  0  3.880728  0
C  C299  1  0.66675419  0.53093261  0.73373368  1  0.332229  0  -0.054701  -0.017501  0  3.881012  0
C  C300  1  0.38431141  0.10078261  0.27359417  1  0.331054  0  -0.061707  -0.030255  0  3.883352  0
C  C301  1  0.38432011  0.39921886  0.22640548  1  0.274755  0  -0.06168  -0.030336  0  3.883249  0
C  C302  1  0.61568101  0.89921640  0.72640259  1  0.274872  0  -0.061754  -0.03042  0  3.88347  0
C  C303  1  0.61567575  0.60078247  0.77359628  1  0.274764  0  -0.061689  -0.030365  0  3.883311  0
C  C304  1  0.34658457  0.00029628  0.31751315  1  1.837307  0  0.338936  0.650987  0  4.205903  0
C  C305  1  0.34658665  0.49970521  0.18248694  1  1.837459  0  0.338981  0.651062  0  4.205892  0
C  C306  1  0.65341214  0.99970507  0.68248549  1  1.837439  0  0.338989  0.651088  0  4.205796  0
C  C307  1  0.65341092  0.50029554  0.81751319  1  1.837461  0  0.339009  0.65101  0  4.205887  0
C  C308  1  0.66557781  0.65990212  0.29863624  1  0.288726  0  -0.055067  -0.008159  0  3.880376  0
C  C309  1  0.66557810  0.84009597  0.20136310  1  0.288769  0  -0.055107  -0.008168  0  3.880526  0
C  C310  1  0.33442148  0.34009277  0.70136306  1  0.288667  0  -0.055094  -0.007981  0  3.880429  0
C  C311  1  0.33442548  0.15990303  0.79863638  1  0.288754  0  -0.055129  -0.008189  0  3.880361  0
C  C312  1  0.77007701  0.71013672  0.32246730  1  0.303473  0  -0.054744  -0.016801  0  3.865245  0
C  C313  1  0.77007575  0.78985956  0.17753164  1  0.303525  0  -0.054739  -0.016889  0  3.865293  0
C  C314  1  0.22992228  0.28985818  0.67753121  1  0.30354  0  -0.054701  -0.016844  0  3.86534  0
C  C315  1  0.22992526  0.21013650  0.82246899  1  0.303229  0  -0.054746  -0.016818  0  3.865206  0
C  C316  1  0.60358494  0.78578588  0.33676854  1  1.854255  0  0.337877  0.655257  0  4.201636  0
C  C317  1  0.60358208  0.71421342  0.16323106  1  1.854255  0  0.337936  0.655389  0  4.201528  0
C  C318  1  0.39641607  0.21421135  0.66323148  1  1.854058  0  0.337928  0.655434  0  4.201494  0
C  C319  1  0.39641635  0.28578675  0.83676937  1  1.854256  0  0.337922  0.655338  0  4.201613  0
C  C320  1  0.05502888  0.41864634  0.06077369  1  0.295942  0  -0.056906  -0.008094  0  3.878655  0
C  C321  1  0.05503028  0.08135474  0.43922556  1  0.296045  0  -0.056914  -0.00803  0  3.878609  0
C  C322  1  0.94496955  0.58135442  0.93922565  1  0.296019  0  -0.056951  -0.008037  0  3.878661  0
C  C323  1  0.94496987  0.91864250  0.56077368  1  0.296018  0  -0.056919  -0.00801  0  3.878737  0
C  C324  1  0.14058410  0.47745263  0.04419384  1  0.375274  0  -0.055025  -0.011025  0  3.848973  0
C  C325  1  0.14058884  0.02255133  0.45580726  1  0.375069  0  -0.055018  -0.011105  0  3.849002  0
C  C326  1  0.85941175  0.52255105  0.95580825  1  0.375075  0  -0.055111  -0.01122  0  3.849169  0
C  C327  1  0.85941560  0.97744767  0.54419183  1  0.375122  0  -0.055075  -0.011171  0  3.849243  0
C  C328  1  0.08472467  0.38637342  0.96826772  1  1.818522  0  0.314029  0.610119  0  4.261782  0
C  C329  1  0.08472356  0.11363014  0.53173237  1  1.818666  0  0.313948  0.609925  0  4.261955  0
C  C330  1  0.91527805  0.61363085  0.03173251  1  1.81872  0  0.313951  0.609925  0  4.261961  0
C  C331  1  0.91527486  0.88636886  0.46826672  1  1.818744  0  0.313969  0.609919  0  4.261925  0
C  C332  1  0.93050983  0.24104967  0.66987432  1  0.301786  0  -0.0578  -0.025283  0  3.873571  0
C  C333  1  0.93051360  0.25895281  0.83012721  1  0.302307  0  -0.057763  -0.02526  0  3.873453  0
C  C334  1  0.06948688  0.75895109  0.33012541  1  0.302207  0  -0.057765  -0.025238  0  3.873466  0
C  C335  1  0.06948740  0.74104912  0.16987191  1  0.302221  0  -0.057793  -0.025279  0  3.87349  0
C  C336  1  0.84481726  0.17243711  0.65682930  1  0.338587  0  -0.054455  -0.012306  0  3.865581  0
C  C337  1  0.84481835  0.32756248  0.84317272  1  0.338348  0  -0.054503  -0.012279  0  3.865732  0
C  C338  1  0.15518117  0.82756188  0.34317135  1  0.33848  0  -0.054406  -0.012222  0  3.865534  0
C  C339  1  0.15518094  0.67243710  0.15682763  1  0.338394  0  -0.054417  -0.012252  0  3.865622  0
C  C340  1  0.74397320  0.28783235  0.68143755  1  1.86437  0  0.332434  0.61563  0  4.225495  0
C  C341  1  0.74397964  0.21216731  0.81856305  1  1.86412  0  0.332537  0.615792  0  4.225504  0
C  C342  1  0.25602265  0.71216840  0.31856179  1  1.864249  0  0.332485  0.615703  0  4.225481  0
C  C343  1  0.25602222  0.78783168  0.18143760  1  1.86438  0  0.332519  0.615714  0  4.225442  0
C  C344  1  0.34504997  0.61967772  0.64642994  1  0.295187  0  -0.061524  -0.031895  0  3.882871  0
C  C345  1  0.34503980  0.88032486  0.85356201  1  0.2955  0  -0.061586  -0.031926  0  3.883112  0
C  C346  1  0.65495877  0.38032364  0.35356714  1  0.295384  0  -0.061588  -0.031961  0  3.883034  0
C  C347  1  0.65496206  0.11968176  0.14643698  1  0.295315  0  -0.061734  -0.032173  0  3.88325  0
C  C348  1  0.52899640  0.67131551  0.66525671  1  1.839939  0  0.327632  0.6271  0  4.220746  0
C  C349  1  0.52899067  0.82867520  0.83474114  1  1.838527  0  0.327823  0.627496  0  4.220782  0
C  C350  1  0.47101062  0.32867879  0.33474290  1  1.839143  0  0.327756  0.627413  0  4.220978  0
C  C351  1  0.47100948  0.17132379  0.16525952  1  1.839093  0  0.32781  0.627371  0  4.220881  0
C  C352  1  0.43473216  0.55453193  0.62924862  1  0.351593  0  -0.050836  -0.008425  0  3.884931  0
C  C353  1  0.43472873  0.94546769  0.87074084  1  0.351867  0  -0.050922  -0.008584  0  3.885169  0
C  C354  1  0.56527143  0.44546709  0.37074696  1  0.351572  0  -0.050921  -0.008582  0  3.885037  0
C  C355  1  0.56527571  0.05453600  0.12925852  1  0.352039  0  -0.050902  -0.008613  0  3.885209  0
S  S356  1  0.21425867  0.75658441  0.47435479  1  0.296748  0  0.142102  0.218033  0  2.967758  0
S  S357  1  0.21425327  0.74341862  0.02564663  1  0.296511  0  0.142165  0.218136  0  2.967742  0
S  S358  1  0.78574577  0.24341574  0.52564719  1  0.296604  0  0.142093  0.218046  0  2.967651  0
S  S359  1  0.78574001  0.25658507  0.97435351  1  0.296681  0  0.142124  0.218031  0  2.967657  0
S  S360  1  0.26606964  0.26878155  0.53592177  1  0.308327  0  0.135509  0.212369  0  2.996907  0
S  S361  1  0.26607426  0.23121956  0.96408046  1  0.30824  0  0.135517  0.212397  0  2.996819  0
S  S362  1  0.73392450  0.73121686  0.46407802  1  0.308273  0  0.135505  0.212327  0  2.996811  0
S  S363  1  0.73392761  0.76877884  0.03592206  1  0.308169  0  0.13552  0.212431  0  2.996816  0
S  S364  1  0.21697586  0.52423696  0.76018240  1  0.249278  0  0.113679  0.157643  0  2.923928  0
S  S365  1  0.21697585  0.97576448  0.73981814  1  0.249239  0  0.113661  0.157597  0  2.923909  0
S  S366  1  0.78302429  0.47576087  0.23981613  1  0.249303  0  0.113683  0.15764  0  2.92395  0
S  S367  1  0.78302171  0.02423802  0.26018417  1  0.249269  0  0.113725  0.157703  0  2.923927  0
N  N368  1  0.02419584  0.71992362  0.67431518  1  -1.196686  0  -0.438585  -0.424938  0  3.439686  0
N  N369  1  0.02420049  0.78007500  0.82568445  1  -1.19698  0  -0.438628  -0.424974  0  3.439608  0
N  N370  1  0.97580517  0.28007712  0.32568650  1  -1.196425  0  -0.438567  -0.424983  0  3.439732  0
N  N371  1  0.97579966  0.21991990  0.17431445  1  -1.196767  0  -0.438734  -0.425254  0  3.43974  0
N  N372  1  0.84170987  0.75718924  0.67421826  1  -1.241676  0  -0.429981  -0.411154  0  3.458728  0
N  N373  1  0.84171539  0.74281128  0.82577780  1  -1.241651  0  -0.429908  -0.411121  0  3.45885  0
N  N374  1  0.15829027  0.24281153  0.32577991  1  -1.241709  0  -0.429935  -0.411192  0  3.458906  0
N  N375  1  0.15828389  0.25718655  0.17422190  1  -1.241606  0  -0.429918  -0.411128  0  3.458785  0
N  N376  1  0.61966757  0.39583443  0.59602938  1  -1.259977  0  -0.42743  -0.40711  0  3.5091  0
N  N377  1  0.61966662  0.10416296  0.90397029  1  -1.259969  0  -0.427358  -0.407007  0  3.509106  0
N  N378  1  0.38033515  0.60416867  0.40397029  1  -1.260416  0  -0.427412  -0.407193  0  3.509105  0
N  N379  1  0.38033525  0.89583017  0.09602954  1  -1.260463  0  -0.427415  -0.407202  0  3.509205  0
N  N380  1  0.63742039  0.44568105  0.52340842  1  -1.179889  0  -0.438111  -0.42644  0  3.428982  0
N  N381  1  0.63741983  0.05431750  0.97659139  1  -1.179929  0  -0.438088  -0.426415  0  3.429094  0
N  N382  1  0.36258319  0.55432381  0.47659150  1  -1.179237  0  -0.438172  -0.426575  0  3.428914  0
N  N383  1  0.36258375  0.94567387  0.02340780  1  -1.179181  0  -0.438171  -0.426623  0  3.428913  0
N  N384  1  0.35467091  0.08038985  0.32479909  1  -1.204737  0  -0.439122  -0.430156  0  3.420263  0
N  N385  1  0.35467564  0.41961164  0.17520059  1  -1.204749  0  -0.439157  -0.43005  0  3.420366  0
N  N386  1  0.64532322  0.91961150  0.67519877  1  -1.20482  0  -0.439229  -0.430183  0  3.420351  0
N  N387  1  0.64532450  0.58038969  0.82480039  1  -1.204807  0  -0.439175  -0.43001  0  3.420308  0
N  N388  1  0.33058192  0.97015067  0.26528465  1  -1.261863  0  -0.433356  -0.407566  0  3.482971  0
N  N389  1  0.33058896  0.52985053  0.23471597  1  -1.261992  0  -0.433354  -0.40751  0  3.482848  0
N  N390  1  0.66941050  0.02984891  0.73471491  1  -1.262133  0  -0.433442  -0.407663  0  3.48296  0
N  N391  1  0.66940775  0.47015081  0.76528384  1  -1.26211  0  -0.433429  -0.407591  0  3.483131  0
N  N392  1  0.56940710  0.71169513  0.31658460  1  -1.270987  0  -0.434222  -0.402624  0  3.469152  0
N  N393  1  0.56940495  0.78830477  0.18341513  1  -1.270997  0  -0.434206  -0.402662  0  3.469119  0
N  N394  1  0.43059476  0.28830210  0.68341581  1  -1.27107  0  -0.434192  -0.402692  0  3.469167  0
N  N395  1  0.43059606  0.21169599  0.81658421  1  -1.271009  0  -0.434206  -0.402646  0  3.469121  0
N  N396  1  0.72114459  0.78899306  0.33743517  1  -1.224182  0  -0.434929  -0.434582  0  3.443095  0
N  N397  1  0.72114173  0.71100441  0.16256440  1  -1.224271  0  -0.435009  -0.434643  0  3.442953  0
N  N398  1  0.27885556  0.21100242  0.66256382  1  -1.224065  0  -0.435068  -0.434795  0  3.443165  0
N  N399  1  0.27885670  0.28899282  0.83743640  1  -1.224266  0  -0.434968  -0.43458  0  3.443134  0
N  N400  1  0.04524859  0.35934844  0.01186428  1  -1.19761  0  -0.445062  -0.429062  0  3.51237  0
N  N401  1  0.04524450  0.14065322  0.48813546  1  -1.197901  0  -0.444928  -0.428884  0  3.512285  0
N  N402  1  0.95475499  0.64065348  0.98813523  1  -1.197959  0  -0.444975  -0.42901  0  3.51233  0
N  N403  1  0.95475307  0.85934519  0.51186355  1  -1.19794  0  -0.44494  -0.42888  0  3.512196  0
N  N404  1  0.13468097  0.45814254  0.98603548  1  -1.220203  0  -0.441532  -0.417995  0  3.432136  0
N  N405  1  0.13468172  0.04186216  0.51396548  1  -1.220274  0  -0.441554  -0.417997  0  3.432322  0
N  N406  1  0.86531832  0.54186290  0.01396569  1  -1.22021  0  -0.441445  -0.417835  0  3.432278  0
N  N407  1  0.86532101  0.95813801  0.48603378  1  -1.220294  0  -0.441491  -0.41792  0  3.43238  0
N  N408  1  0.85435452  0.30875238  0.67606213  1  -1.285243  0  -0.427601  -0.410745  0  3.493222  0
N  N409  1  0.85436093  0.19124839  0.82393849  1  -1.285213  0  -0.427644  -0.410806  0  3.493239  0
N  N410  1  0.14564219  0.69124780  0.32393674  1  -1.285502  0  -0.427664  -0.41076  0  3.493106  0
N  N411  1  0.14564265  0.80875178  0.17606077  1  -1.285394  0  -0.427692  -0.410775  0  3.493189  0
N  N412  1  0.73707321  0.20903725  0.67837794  1  -1.198289  0  -0.433985  -0.41485  0  3.438586  0
N  N413  1  0.73707789  0.29096242  0.82162267  1  -1.198109  0  -0.434077  -0.415041  0  3.438718  0
N  N414  1  0.26292350  0.79096351  0.32162140  1  -1.19831  0  -0.434033  -0.414953  0  3.438686  0
N  N415  1  0.26292312  0.70903599  0.17837751  1  -1.19809  0  -0.434013  -0.41493  0  3.438606  0
N  N416  1  0.41481884  0.68005387  0.68024684  1  -1.203881  0  -0.443508  -0.437106  0  3.441777  0
N  N417  1  0.41480719  0.81994514  0.81974803  1  -1.202276  0  -0.443495  -0.437427  0  3.441871  0
N  N418  1  0.58519076  0.31994455  0.31975217  1  -1.203  0  -0.44348  -0.437382  0  3.441881  0
N  N419  1  0.58519124  0.18005855  0.18025133  1  -1.202845  0  -0.44342  -0.437177  0  3.44194  0
N  N420  1  0.54062225  0.59990374  0.63159314  1  -1.219916  0  -0.437104  -0.424509  0  3.467309  0
N  N421  1  0.54061628  0.90009286  0.86840004  1  -1.220237  0  -0.437193  -0.424617  0  3.4672  0
N  N422  1  0.45938391  0.40009233  0.36840515  1  -1.219884  0  -0.437229  -0.424604  0  3.467329  0
N  N423  1  0.45938645  0.09990849  0.13159860  1  -1.220321  0  -0.437227  -0.424621  0  3.467244  0
O  O424  1  0.08856168  0.62101531  0.56520772  1  -1.196664  0  -0.380099  -0.655305  0  2.252945  0
O  O425  1  0.08855786  0.87898737  0.93479279  1  -1.196556  0  -0.380135  -0.655436  0  2.252826  0
O  O426  1  0.91144448  0.37898719  0.43479460  1  -1.196583  0  -0.380096  -0.655396  0  2.252899  0
O  O427  1  0.91143799  0.12101573  0.06520727  1  -1.196592  0  -0.380111  -0.655338  0  2.252879  0
O  O428  1  0.09311158  0.61403597  0.47552356  1  -1.189433  0  -0.385511  -0.655766  0  2.314247  0
O  O429  1  0.09310614  0.88596537  0.02447935  1  -1.189167  0  -0.385514  -0.655791  0  2.314053  0
O  O430  1  0.90688856  0.38596712  0.52447923  1  -1.189143  0  -0.3855  -0.655744  0  2.31416  0
O  O431  1  0.90688370  0.11403714  0.97552180  1  -1.189601  0  -0.385484  -0.655728  0  2.314188  0
O  O432  1  0.35308461  0.86599801  0.43211621  1  -1.1536  0  -0.360804  -0.599863  0  2.253585  0
O  O433  1  0.35309013  0.63400788  0.06788308  1  -1.153903  0  -0.360927  -0.599983  0  2.253579  0
O  O434  1  0.64691296  0.13400275  0.56788274  1  -1.153828  0  -0.360832  -0.59985  0  2.253586  0
O  O435  1  0.64690658  0.36599463  0.93211728  1  -1.153878  0  -0.360883  -0.59991  0  2.253563  0
O  O436  1  0.38650027  0.95437844  0.50648586  1  -1.222934  0  -0.414853  -0.727237  0  2.394023  0
O  O437  1  0.38649875  0.54562583  0.99351447  1  -1.223022  0  -0.414834  -0.727191  0  2.394042  0
O  O438  1  0.61350073  0.04562349  0.49351286  1  -1.223085  0  -0.414832  -0.727227  0  2.39403  0
O  O439  1  0.61349796  0.45437786  0.00648528  1  -1.22293  0  -0.414866  -0.727285  0  2.39403  0
O  O440  1  0.95279912  0.45994940  0.66557766  1  -1.17827  0  -0.370844  -0.619881  0  2.185452  0
O  O441  1  0.95279949  0.04005189  0.83442329  1  -1.178313  0  -0.370834  -0.61985  0  2.185485  0
O  O442  1  0.04719931  0.54004960  0.33442144  1  -1.178226  0  -0.370809  -0.619836  0  2.185495  0
O  O443  1  0.04719979  0.95995119  0.16557911  1  -1.178196  0  -0.3708  -0.619803  0  2.185493  0
O  O444  1  0.09398294  0.54622784  0.66233604  1  -1.182556  0  -0.374064  -0.629549  0  2.243223  0
O  O445  1  0.09398402  0.95377425  0.83766516  1  -1.182505  0  -0.374023  -0.629517  0  2.243186  0
O  O446  1  0.90601635  0.45377291  0.33766525  1  -1.18258  0  -0.374036  -0.629557  0  2.243109  0
O  O447  1  0.90601527  0.04622825  0.16233677  1  -1.18258  0  -0.374078  -0.629499  0  2.243191  0
O  O448  1  0.39616028  0.52107210  0.84559227  1  -1.181951  0  -0.375978  -0.634618  0  2.176873  0
O  O449  1  0.39615826  0.97892865  0.65440795  1  -1.181954  0  -0.375988  -0.634632  0  2.176834  0
O  O450  1  0.60383986  0.47892925  0.15440716  1  -1.18197  0  -0.375968  -0.63457  0  2.176882  0
O  O451  1  0.60384017  0.02107151  0.34559404  1  -1.181949  0  -0.375981  -0.634574  0  2.176839  0
O  O452  1  0.28567145  0.45864845  0.89511941  1  -1.184316  0  -0.374675  -0.615809  0  2.298129  0
O  O453  1  0.28567246  0.04135208  0.60487959  1  -1.183822  0  -0.374606  -0.615691  0  2.298105  0
O  O454  1  0.71432698  0.54135348  0.10488010  1  -1.183844  0  -0.374526  -0.61566  0  2.298103  0
O  O455  1  0.71432769  0.95864633  0.39512020  1  -1.183832  0  -0.374541  -0.615662  0  2.298097  0
O  O456  1  0.12018841  0.45679155  0.50054783  1  -1.231505  0  -0.424697  -0.758643  0  2.369116  0
O  O457  1  0.12018942  0.04321080  0.99945477  1  -1.231554  0  -0.424733  -0.758623  0  2.368972  0
O  O458  1  0.87981088  0.54320978  0.49945393  1  -1.231562  0  -0.424648  -0.758546  0  2.369038  0
O  O459  1  0.87981330  0.95679228  0.00054880  1  -1.231518  0  -0.424753  -0.758761  0  2.36903  0
O  O460  1  0.12981485  0.41400146  0.57688750  1  -1.171076  0  -0.368442  -0.606036  0  2.18284  0
O  O461  1  0.12981721  0.08599913  0.92311523  1  -1.170922  0  -0.368431  -0.605997  0  2.182898  0
O  O462  1  0.87018530  0.58599928  0.42311457  1  -1.170983  0  -0.368481  -0.606092  0  2.182913  0
O  O463  1  0.87018122  0.91399926  0.07688730  1  -1.171037  0  -0.368489  -0.606154  0  2.182928  0
O  O464  1  0.40151593  0.12582946  0.52989258  1  -1.191381  0  -0.386293  -0.649922  0  2.297134  0
O  O465  1  0.40151016  0.37417567  0.97010925  1  -1.191289  0  -0.386281  -0.650017  0  2.296965  0
O  O466  1  0.59848336  0.87416955  0.47010573  1  -1.191456  0  -0.386315  -0.650019  0  2.297052  0
O  O467  1  0.59848397  0.62582801  0.02989167  1  -1.191334  0  -0.386324  -0.650018  0  2.296978  0
O  O468  1  0.42312687  0.09703817  0.43978710  1  -1.211408  0  -0.375488  -0.665725  0  2.26085  0
O  O469  1  0.42312892  0.40296386  0.06021452  1  -1.211516  0  -0.375498  -0.665716  0  2.260823  0
O  O470  1  0.57687155  0.90296317  0.56021232  1  -1.211421  0  -0.375461  -0.665713  0  2.260822  0
O  O471  1  0.57686865  0.59703865  0.93978585  1  -1.211447  0  -0.37549  -0.665738  0  2.260849  0
O  O472  1  0.88466585  0.62775940  0.63786944  1  -1.219499  0  -0.389396  -0.659107  0  2.305943  0
O  O473  1  0.88466680  0.87224048  0.86213000  1  -1.219396  0  -0.389423  -0.659112  0  2.305752  0
O  O474  1  0.11533945  0.37224312  0.36212937  1  -1.219524  0  -0.389376  -0.659107  0  2.305869  0
O  O475  1  0.11533678  0.12775616  0.13787072  1  -1.219538  0  -0.38936  -0.659108  0  2.306036  0
O  O476  1  0.75763602  0.49203947  0.59597413  1  -1.219616  0  -0.380055  -0.658326  0  2.289552  0
O  O477  1  0.75763510  0.00795901  0.90402629  1  -1.219643  0  -0.380023  -0.658273  0  2.289565  0
O  O478  1  0.24236412  0.50796656  0.40402634  1  -1.219496  0  -0.380157  -0.658336  0  2.289356  0
O  O479  1  0.24236591  0.99203295  0.09597337  1  -1.21942  0  -0.380203  -0.658463  0  2.28909  0
O  O480  1  0.53563625  0.84272799  0.35094776  1  -1.221084  0  -0.397688  -0.671664  0  2.275835  0
O  O481  1  0.53563436  0.65727135  0.14905115  1  -1.221163  0  -0.397707  -0.671717  0  2.275992  0
O  O482  1  0.46436561  0.15726924  0.64905226  1  -1.221189  0  -0.397688  -0.671754  0  2.27593  0
O  O483  1  0.46436407  0.34272941  0.85094858  1  -1.221134  0  -0.397705  -0.671707  0  2.275914  0
O  O484  1  0.35151190  0.96163112  0.35411664  1  -1.212315  0  -0.391851  -0.656824  0  2.276466  0
O  O485  1  0.35151178  0.53837184  0.14588381  1  -1.21241  0  -0.391858  -0.656929  0  2.276439  0
O  O486  1  0.64848567  0.03837199  0.64588303  1  -1.212427  0  -0.391818  -0.656824  0  2.276426  0
O  O487  1  0.64848750  0.46162891  0.85411631  1  -1.21238  0  -0.391857  -0.656898  0  2.276397  0
O  O488  1  0.07663759  0.35122764  0.92089503  1  -1.206622  0  -0.328489  -0.582907  0  2.174079  0
O  O489  1  0.07663273  0.14877769  0.57910453  1  -1.206566  0  -0.328531  -0.582885  0  2.174077  0
O  O490  1  0.92336771  0.64877956  0.07910482  1  -1.206601  0  -0.328489  -0.582836  0  2.174142  0
O  O491  1  0.92336656  0.85122190  0.42089386  1  -1.20664  0  -0.328546  -0.5829  0  2.17411  0
O  O492  1  0.65941022  0.33492959  0.68853353  1  -1.223479  0  -0.312153  -0.573341  0  2.239606  0
O  O493  1  0.65941586  0.16507013  0.81146563  1  -1.22331  0  -0.312204  -0.573416  0  2.239621  0
O  O494  1  0.34058735  0.66507234  0.31146558  1  -1.22336  0  -0.312189  -0.573408  0  2.239585  0
O  O495  1  0.34058601  0.83492827  0.18853494  1  -1.223394  0  -0.312171  -0.573374  0  2.239578  0
O  O496  1  0.60588526  0.72024509  0.68014380  1  -1.212687  0  -0.308901  -0.551016  0  2.193942  0
O  O497  1  0.60586762  0.77974614  0.81985792  1  -1.212511  0  -0.30893  -0.551098  0  2.194187  0
O  O498  1  0.39412777  0.27974803  0.31985798  1  -1.212497  0  -0.308919  -0.551139  0  2.19413  0
O  O499  1  0.39412909  0.22025284  0.18014429  1  -1.21267  0  -0.308931  -0.551082  0  2.194216  0
