# generated using pymatgen
data_Co2H19C25N3O8
_symmetry_space_group_name_H-M   'P 1'
_cell_length_a   15.65467009
_cell_length_b   15.65401915
_cell_length_c   21.50161765
_cell_angle_alpha   90.00004055
_cell_angle_beta   90.00011181
_cell_angle_gamma   120.00492567
_symmetry_Int_Tables_number   1
_chemical_formula_structural   Co2H19C25N3O8
_chemical_formula_sum   'Co12 H114 C150 N18 O48'
_cell_volume   4562.99495677
_cell_formula_units_Z   6
loop_
 _symmetry_equiv_pos_site_id
 _symmetry_equiv_pos_as_xyz
  1  'x, y, z'
loop_
 _atom_site_type_symbol
 _atom_site_label
 _atom_site_symmetry_multiplicity
 _atom_site_fract_x
 _atom_site_fract_y
 _atom_site_fract_z
 _atom_site_occupancy
 _atom_site_pbe_bader_charge
 _atom_site_pbe_bader_spin_density
 _atom_site_pbe_cm5_charge
 _atom_site_pbe_ddec_charge
 _atom_site_pbe_ddec_spin_density
 _atom_site_pbe_ddec_sum_bond_order
 _atom_site_pbe_magmom
Co  Co0  1  0.47458488  0.18045257  0.17644339  1  1.325495  2.619957  0.697382  0.998363  2.835805  2.541803  2.587
Co  Co1  1  0.29425629  0.47454325  0.34323358  1  1.326347  2.620101  0.697565  0.999077  2.834582  2.542901  2.588
Co  Co2  1  0.81964343  0.29410265  0.50974603  1  1.327875  2.62007  0.697305  0.998232  2.834086  2.543093  2.587
Co  Co3  1  0.52541336  0.81954856  0.67643993  1  1.325528  2.619997  0.697468  0.998539  2.835853  2.541817  2.587
Co  Co4  1  0.70574167  0.52545299  0.84323301  1  1.326328  2.620057  0.697505  0.99899  2.834525  2.542804  2.587
Co  Co5  1  0.18035411  0.70589797  0.00974702  1  1.327888  2.620091  0.697324  0.998296  2.834124  2.543118  2.587
Co  Co6  1  0.55597907  0.06264951  0.08802170  1  1.282787  2.607854  0.666915  0.865191  2.834391  2.519032  2.591
Co  Co7  1  0.49338945  0.55596896  0.25486132  1  1.280855  2.607859  0.666816  0.865204  2.836794  2.518732  2.591
Co  Co8  1  0.93732150  0.49327574  0.42132305  1  1.281599  2.607938  0.666817  0.865268  2.834715  2.518255  2.591
Co  Co9  1  0.44401807  0.93735209  0.58801772  1  1.282796  2.607852  0.666952  0.865191  2.834383  2.519203  2.591
Co  Co10  1  0.50661553  0.44403366  0.75486275  1  1.280779  2.607838  0.666639  0.864948  2.836745  2.518864  2.591
Co  Co11  1  0.06267615  0.50672009  0.92132342  1  1.28153  2.607968  0.666856  0.865351  2.834747  2.518277  2.591
H  H12  1  0.49836399  0.14656899  0.71287559  1  0.096351  0.000388  0.108618  0.118626  9.3e-05  1.00137  0.0
H  H13  1  0.35183336  0.49847604  0.87971094  1  0.118141  0.000383  0.108551  0.118682  9.2e-05  1.000931  0.0
H  H14  1  0.85348579  0.35197772  0.04611258  1  0.086336  0.000392  0.108444  0.118753  9.3e-05  1.001052  0.0
H  H15  1  0.50163013  0.85342503  0.21287294  1  0.096261  0.000388  0.108611  0.118603  9.3e-05  1.001332  0.0
H  H16  1  0.64816721  0.50152424  0.37971156  1  0.118184  0.000383  0.108524  0.118633  9.2e-05  1.000908  0.0
H  H17  1  0.14651271  0.64802604  0.54611174  1  0.086278  0.000392  0.108502  0.118876  9.3e-05  1.000999  0.0
H  H18  1  0.51616300  0.95061065  0.84540259  1  0.073148  0.000583  0.104387  0.1121  0.000245  1.001004  0.0
H  H19  1  0.56536931  0.51598985  0.01229543  1  0.074774  0.000584  0.104321  0.111825  0.000245  1.001469  0.0
H  H20  1  0.04939099  0.56556563  0.17873371  1  0.084397  0.000592  0.104544  0.112209  0.000246  1.000833  0.0
H  H21  1  0.48384229  0.04938849  0.34540274  1  0.073221  0.000583  0.104393  0.112095  0.000245  1.001027  0.0
H  H22  1  0.43462770  0.48400877  0.51229771  1  0.074778  0.000584  0.104346  0.111906  0.000245  1.00138  0.0
H  H23  1  0.95060514  0.43443635  0.67873112  1  0.084367  0.000592  0.104598  0.112295  0.000246  1.000816  0.0
H  H24  1  0.62614752  0.25602917  0.89280776  1  0.091729  0.000201  0.107302  0.115461  -2.4e-05  1.004274  0.0
H  H25  1  0.37022570  0.62633289  0.05962710  1  0.096788  0.000199  0.107313  0.115311  -2.4e-05  1.004169  0.0
H  H26  1  0.74390605  0.37029506  0.22601990  1  0.063605  0.000199  0.107414  0.115077  -2.6e-05  1.00485  0.0
H  H27  1  0.37386053  0.74397267  0.39280905  1  0.091732  0.000201  0.107312  0.115482  -2.4e-05  1.004211  0.0
H  H28  1  0.62977753  0.37367263  0.55962635  1  0.096954  0.000199  0.107313  0.115299  -2.4e-05  1.004291  0.0
H  H29  1  0.25609068  0.62970155  0.72601875  1  0.063673  0.000199  0.107371  0.115024  -2.6e-05  1.004896  0.0
H  H30  1  0.60266175  0.02032574  0.94758914  1  0.057581  0.000159  0.105351  0.086444  -0.000189  1.002715  0.0
H  H31  1  0.58235312  0.60258059  0.11438034  1  0.059062  0.00016  0.105142  0.085847  -0.00019  1.002561  0.0
H  H32  1  0.97967138  0.58240347  0.28088344  1  0.058648  0.00016  0.105355  0.08674  -0.000189  1.002132  0.0
H  H33  1  0.39734367  0.97967784  0.44758593  1  0.057598  0.000159  0.105363  0.086468  -0.000189  1.002712  0.0
H  H34  1  0.41765046  0.39741858  0.61438255  1  0.059138  0.00016  0.105155  0.085901  -0.00019  1.002503  0.0
H  H35  1  0.02032384  0.41759378  0.78087951  1  0.058619  0.00016  0.105357  0.086759  -0.000189  1.002132  0.0
H  H36  1  0.64995514  0.14707704  0.96455770  1  0.06806  0.000744  0.109641  0.096183  -6e-06  0.996011  0.001
H  H37  1  0.50299729  0.64996103  0.13141762  1  0.061287  0.000742  0.109722  0.096613  -6e-06  0.995184  0.001
H  H38  1  0.85291744  0.50298023  0.29784949  1  0.056125  0.000737  0.109799  0.096741  -7e-06  0.995963  0.001
H  H39  1  0.35005365  0.85292841  0.46455854  1  0.068205  0.000745  0.109658  0.096189  -6e-06  0.995968  0.001
H  H40  1  0.49700781  0.35004186  0.63141712  1  0.061288  0.000742  0.109763  0.096692  -6e-06  0.995301  0.001
H  H41  1  0.14707758  0.49701606  0.79784858  1  0.056195  0.000737  0.109829  0.096821  -7e-06  0.995991  0.001
H  H42  1  0.41986997  0.11641446  0.94686723  1  0.063833  0.003371  0.111588  0.113361  0.001387  0.967149  0.001
H  H43  1  0.30350038  0.41987486  0.11370759  1  0.086383  0.003334  0.111652  0.113388  0.001386  0.966804  0.001
H  H44  1  0.88344157  0.30351466  0.28011498  1  0.050867  0.003392  0.111731  0.113265  0.001387  0.967459  0.001
H  H45  1  0.58014649  0.88360236  0.44686795  1  0.063874  0.003371  0.111568  0.113308  0.001387  0.967095  0.001
H  H46  1  0.69650041  0.58011561  0.61370378  1  0.086509  0.003334  0.111621  0.113409  0.001386  0.966899  0.001
H  H47  1  0.11654477  0.69647741  0.78011785  1  0.050669  0.003391  0.111742  0.113289  0.001386  0.967559  0.001
H  H48  1  0.53629041  0.20190328  0.97858495  1  0.094673  5.9e-05  0.125398  0.131473  -0.000168  0.957521  0.0
H  H49  1  0.33446066  0.53633367  0.14536154  1  0.092615  6.4e-05  0.125476  0.13134  -0.000165  0.958255  0.0
H  H50  1  0.79798962  0.33447145  0.31185766  1  0.093874  6.2e-05  0.125493  0.131414  -0.000168  0.957368  0.0
H  H51  1  0.46372255  0.79810706  0.47858221  1  0.094914  5.8e-05  0.125403  0.131431  -0.000168  0.957523  0.0
H  H52  1  0.66554023  0.46366203  0.64536599  1  0.092538  6.4e-05  0.125455  0.131387  -0.000165  0.958184  0.0
H  H53  1  0.20200116  0.66552280  0.81185644  1  0.094054  6.2e-05  0.125509  0.131463  -0.000168  0.957404  0.0
H  H54  1  0.35799117  0.95242896  0.95271301  1  0.111225  0.002017  0.116332  0.124112  0.00085  0.971297  0.001
H  H55  1  0.40551664  0.35796123  0.11959976  1  0.071322  0.002056  0.116513  0.124463  0.000849  0.971618  0.001
H  H56  1  0.04740932  0.40555868  0.28590886  1  0.100808  0.002024  0.116348  0.124668  0.000846  0.971581  0.001
H  H57  1  0.64201583  0.04757692  0.45271524  1  0.11123  0.002017  0.116337  0.124087  0.00085  0.971391  0.001
H  H58  1  0.59448962  0.64203913  0.61959816  1  0.071252  0.002056  0.116485  0.124413  0.000849  0.971604  0.001
H  H59  1  0.95257682  0.59442212  0.78590682  1  0.100779  0.002025  0.116319  0.124632  0.000846  0.971764  0.001
H  H60  1  0.44260789  0.90964126  0.95361764  1  0.0724  -0.000443  0.12255  0.12779  -0.000509  0.959857  0.0
H  H61  1  0.53292797  0.44254723  0.12049236  1  0.083405  -0.000443  0.122744  0.12802  -0.000506  0.959932  0.0
H  H62  1  0.09024316  0.53297749  0.28688374  1  0.091951  -0.000453  0.122472  0.127958  -0.000516  0.959818  0.0
H  H63  1  0.55740103  0.09036654  0.45361699  1  0.072286  -0.000443  0.122606  0.127835  -0.000509  0.959882  0.0
H  H64  1  0.46707721  0.55744911  0.62048821  1  0.083432  -0.000443  0.122733  0.128028  -0.000506  0.959876  0.0
H  H65  1  0.90974756  0.46700641  0.78688947  1  0.091941  -0.000452  0.122471  0.127999  -0.000515  0.959734  0.0
H  H66  1  0.32525148  0.96436172  0.18212957  1  0.079524  0.001497  0.121235  0.097556  0.000168  0.992698  0.001
H  H67  1  0.36099033  0.32516016  0.34894339  1  0.127961  0.001529  0.121174  0.09769  0.000171  0.993056  0.001
H  H68  1  0.03564633  0.36074860  0.51557714  1  0.131727  0.001526  0.121123  0.097577  0.000169  0.992814  0.001
H  H69  1  0.67474910  0.03563584  0.68212824  1  0.079535  0.001497  0.121232  0.097528  0.000167  0.992728  0.001
H  H70  1  0.63900975  0.67484039  0.84894606  1  0.127984  0.001529  0.121176  0.097713  0.000171  0.993045  0.001
H  H71  1  0.96435242  0.63925469  0.01558108  1  0.131817  0.001526  0.121135  0.097595  0.000169  0.992791  0.001
H  H72  1  0.14600859  0.85477421  0.19583350  1  0.08745  0.000826  0.109371  0.117454  0.000415  0.993958  0.0
H  H73  1  0.29127204  0.14590854  0.36269435  1  0.072207  0.000834  0.109332  0.117043  0.000416  0.993594  0.0
H  H74  1  0.14519025  0.29109716  0.52945430  1  0.037996  0.000818  0.109394  0.117207  0.000414  0.993642  0.0
H  H75  1  0.85398986  0.14522047  0.69583062  1  0.087495  0.000826  0.109365  0.11746  0.000414  0.994005  0.0
H  H76  1  0.70873111  0.85409286  0.86269349  1  0.07208  0.000834  0.109329  0.117028  0.000415  0.99361  0.0
H  H77  1  0.85480828  0.70890517  0.02945811  1  0.038241  0.000818  0.109381  0.117219  0.000414  0.993596  0.0
H  H78  1  0.12230720  0.11719362  0.22088443  1  0.048499  0.001056  0.110246  0.12075  0.000503  0.98712  0.0
H  H79  1  0.00522235  0.12231201  0.38782434  1  0.108027  0.001046  0.110527  0.121342  0.000502  0.987483  0.0
H  H80  1  0.88272582  0.00495202  0.55436776  1  0.101213  0.001036  0.110409  0.120681  0.000503  0.987709  0.0
H  H81  1  0.87769116  0.88280388  0.72088476  1  0.048327  0.001057  0.110229  0.12073  0.000503  0.987159  0.0
H  H82  1  0.99478037  0.87768745  0.88782391  1  0.107812  0.001046  0.110533  0.121332  0.000502  0.987448  0.0
H  H83  1  0.11727171  0.99505150  0.05437114  1  0.10112  0.001036  0.110382  0.120644  0.000503  0.987708  0.0
H  H84  1  0.30307880  0.21499963  0.20665682  1  0.062851  0.001477  0.116784  0.089203  0.000131  1.018686  0.001
H  H85  1  0.08824630  0.30308258  0.37360785  1  0.086671  0.001483  0.117027  0.089729  0.00013  1.018027  0.001
H  H86  1  0.78495483  0.08791686  0.54003809  1  0.126472  0.001482  0.117149  0.090209  0.00013  1.018035  0.001
H  H87  1  0.69691849  0.78499757  0.70665777  1  0.062824  0.001477  0.116804  0.089259  0.000131  1.018687  0.001
H  H88  1  0.91175270  0.69691539  0.87360999  1  0.086682  0.001483  0.117078  0.089787  0.00013  1.018061  0.001
H  H89  1  0.21504502  0.91208678  0.04004157  1  0.126535  0.001482  0.117148  0.090184  0.000129  1.01804  0.001
H  H90  1  0.97471074  0.96279122  0.22647135  1  0.057598  -7.2e-05  0.104642  0.101074  -2.3e-05  0.998983  0.0
H  H91  1  0.01191862  0.97470837  0.39341532  1  0.013329  -0.000115  0.104413  0.10104  -2.4e-05  0.998849  0.0
H  H92  1  0.03707702  0.01170893  0.55999231  1  0.060913  -7.7e-05  0.104541  0.101451  -2.4e-05  0.999048  0.0
H  H93  1  0.02528646  0.03720365  0.72646909  1  0.057588  -7.2e-05  0.104612  0.101043  -2.3e-05  0.998999  0.0
H  H94  1  0.98808375  0.02529148  0.89341442  1  0.013264  -0.000115  0.104403  0.10102  -2.4e-05  0.998858  0.0
H  H95  1  0.96292144  0.98829624  0.05999318  1  0.060815  -7.7e-05  0.104559  0.10147  -2.4e-05  0.999056  0.0
H  H96  1  0.98978232  0.77648845  0.20277542  1  0.059448  -6.3e-05  0.104696  0.104059  -7e-06  0.999674  0.0
H  H97  1  0.21312427  0.98965928  0.36923775  1  0.063173  -5.6e-05  0.104602  0.103836  -6e-06  0.999649  0.0
H  H98  1  0.22334639  0.21311344  0.53627382  1  0.100284  -3.7e-05  0.104663  0.103671  -8e-06  0.999772  0.0
H  H99  1  0.01021623  0.22351001  0.70278114  1  0.059558  -6.3e-05  0.104712  0.104095  -7e-06  0.999556  0.0
H  H100  1  0.78688039  0.01034066  0.86923377  1  0.063216  -5.6e-05  0.104647  0.103908  -6e-06  0.999737  0.0
H  H101  1  0.77665335  0.78689157  0.03627245  1  0.100331  -3.7e-05  0.104639  0.103659  -9e-06  0.999769  0.0
H  H102  1  0.84381988  0.62246425  0.21460462  1  0.07669  0.000953  0.105583  0.113657  0.000463  1.018708  0.0
H  H103  1  0.22123153  0.84375129  0.38080103  1  0.033358  0.000983  0.105564  0.113635  0.000463  1.018544  0.0
H  H104  1  0.37748973  0.22129147  0.54784515  1  0.075949  0.00095  0.10549  0.113679  0.000463  1.018226  0.0
H  H105  1  0.15617690  0.37753096  0.71460830  1  0.076733  0.000953  0.105576  0.113738  0.000463  1.018701  0.0
H  H106  1  0.77876934  0.15624486  0.88079665  1  0.033404  0.000983  0.105567  0.113632  0.000463  1.01852  0.0
H  H107  1  0.62250777  0.77871202  0.04784030  1  0.076008  0.00095  0.105495  0.113646  0.000463  1.018214  0.0
H  H108  1  0.66261646  0.52371524  0.23030328  1  0.091248  0.001518  0.120476  0.097118  0.000321  1.011499  0.001
H  H109  1  0.13885555  0.66256653  0.39657090  1  0.094645  0.001514  0.120291  0.097061  0.000321  1.010935  0.001
H  H110  1  0.47627489  0.13882523  0.56331613  1  0.094203  0.001512  0.120301  0.096865  0.000321  1.011624  0.001
H  H111  1  0.33738103  0.47628064  0.73030542  1  0.091323  0.001518  0.120504  0.09717  0.000322  1.011431  0.001
H  H112  1  0.86114227  0.33743023  0.89657138  1  0.094709  0.001514  0.120293  0.09705  0.000321  1.010926  0.001
H  H113  1  0.52372268  0.86117831  0.06331630  1  0.094077  0.001512  0.120292  0.096803  0.000321  1.011634  0.001
H  H114  1  0.63547916  0.77337606  0.23438070  1  0.117617  0.001458  0.120217  0.097198  0.000343  1.006559  0.001
H  H115  1  0.86201856  0.63530381  0.40096829  1  0.116667  0.001457  0.120368  0.097576  0.000343  1.007105  0.001
H  H116  1  0.22662434  0.86197790  0.56752234  1  0.173778  0.001446  0.120382  0.097253  0.000344  1.00647  0.001
H  H117  1  0.36452036  0.22662038  0.73437995  1  0.117557  0.001459  0.120218  0.097171  0.000343  1.006559  0.001
H  H118  1  0.13797945  0.36469535  0.90097008  1  0.116671  0.001457  0.120361  0.097545  0.000342  1.007131  0.001
H  H119  1  0.77337563  0.13802583  0.06752202  1  0.173933  0.001446  0.120381  0.097266  0.000344  1.006446  0.001
H  H120  1  0.81588598  0.88415187  0.22135579  1  0.063416  0.000891  0.110456  0.118514  0.00044  0.992868  0.0
H  H121  1  0.93160538  0.81572955  0.38804610  1  0.071527  0.000889  0.110488  0.118528  0.00044  0.992828  0.0
H  H122  1  0.11583280  0.93163637  0.55468371  1  0.07568  0.00088  0.110298  0.1177  0.000441  0.993659  0.0
H  H123  1  0.18411348  0.11584453  0.72135751  1  0.063314  0.000891  0.110432  0.118482  0.00044  0.992925  0.0
H  H124  1  0.06839741  0.18427368  0.88804584  1  0.071458  0.000889  0.110465  0.118478  0.00044  0.992889  0.0
H  H125  1  0.88416658  0.06836530  0.05468165  1  0.075678  0.00088  0.110286  0.117682  0.000441  0.993667  0.0
C  C126  1  0.56293822  0.21155728  0.80216522  1  -0.015364  0.00997  -0.018257  -0.027486  0.005184  3.978121  0.008
C  C127  1  0.35140889  0.56298892  0.96899772  1  0.003418  0.009963  -0.017928  -0.026471  0.005179  3.975954  0.008
C  C128  1  0.78842457  0.35153193  0.13539279  1  -0.008784  0.009913  -0.017932  -0.027351  0.005172  3.97797  0.008
C  C129  1  0.43706451  0.78844155  0.30216523  1  -0.015369  0.00997  -0.018207  -0.027405  0.005184  3.978092  0.008
C  C130  1  0.64858701  0.43701028  0.46899971  1  0.003771  0.009964  -0.017919  -0.02661  0.00518  3.975965  0.008
C  C131  1  0.21157460  0.64846797  0.63539205  1  -0.008824  0.009912  -0.01793  -0.027392  0.005171  3.97811  0.008
C  C132  1  0.51806218  0.13417038  0.75925630  1  -0.07106  0.000949  -0.073144  -0.104822  7.6e-05  3.90735  0.001
C  C133  1  0.38390404  0.51810697  0.92609957  1  -0.031755  0.000932  -0.073504  -0.105268  9.7e-05  3.907679  0.001
C  C134  1  0.86584800  0.38400875  0.09251655  1  -0.039415  0.000937  -0.073268  -0.105585  9.2e-05  3.908387  0.001
C  C135  1  0.48193589  0.86582385  0.25925455  1  -0.071213  0.000951  -0.073175  -0.104772  7.9e-05  3.907261  0.001
C  C136  1  0.61609434  0.48189328  0.42610153  1  -0.03173  0.000931  -0.073493  -0.105132  9.6e-05  3.907602  0.001
C  C137  1  0.13415345  0.61599495  0.59251568  1  -0.039419  0.000937  -0.073326  -0.105795  9.1e-05  3.908295  0.001
C  C138  1  0.50445381  0.04122081  0.77489183  1  -0.034996  0.011308  -0.015311  -0.021642  0.005734  3.973224  0.009
C  C139  1  0.46318512  0.50441387  0.94175472  1  -0.047803  0.011282  -0.015274  -0.023062  0.005725  3.975757  0.009
C  C140  1  0.95881417  0.46328440  0.10819592  1  -0.01633  0.011213  -0.015014  -0.021246  0.005731  3.974396  0.009
C  C141  1  0.49554662  0.95877502  0.27489248  1  -0.035093  0.011309  -0.015332  -0.021831  0.005734  3.973312  0.009
C  C142  1  0.53681534  0.49558697  0.44175332  1  -0.047839  0.011281  -0.015246  -0.023027  0.005724  3.97575  0.009
C  C143  1  0.04118342  0.53671689  0.60819441  1  -0.015858  0.011211  -0.015029  -0.021081  0.00573  3.974015  0.009
C  C144  1  0.52797993  0.02389769  0.83473572  1  0.027603  0.00104  -0.082831  -0.14063  0.00019  3.929104  0.0
C  C145  1  0.50395783  0.52786168  0.00160921  1  0.013521  0.001072  -0.082102  -0.139327  0.000207  3.929593  0.0
C  C146  1  0.97611122  0.50411476  0.16804818  1  -0.003035  0.001078  -0.082718  -0.140309  0.000224  3.928839  0.0
C  C147  1  0.47202404  0.97610014  0.33473494  1  0.027852  0.001041  -0.082835  -0.140517  0.000192  3.929148  0.0
C  C148  1  0.49604279  0.47213835  0.50161064  1  0.013215  0.001071  -0.082237  -0.139629  0.000206  3.929636  0.0
C  C149  1  0.02388571  0.49588507  0.66804616  1  -0.003103  0.001077  -0.082753  -0.140462  0.000224  3.928825  0.0
C  C150  1  0.56795831  0.09927898  0.87898964  1  -0.007809  0.003341  -0.023922  0.077202  0.001767  4.013389  0.002
C  C151  1  0.46861051  0.56789760  0.04585238  1  -0.081067  0.003373  -0.024038  0.077515  0.001766  4.012094  0.002
C  C152  1  0.90070679  0.46875629  0.21227503  1  0.01117  0.003345  -0.024  0.077437  0.001764  4.011752  0.002
C  C153  1  0.43204786  0.90071952  0.37898924  1  -0.007622  0.003341  -0.023891  0.077164  0.001767  4.013437  0.002
C  C154  1  0.53139195  0.43210347  0.54585245  1  -0.080733  0.003373  -0.023971  0.077577  0.001766  4.012069  0.002
C  C155  1  0.09929096  0.53124431  0.71227313  1  0.011402  0.003346  -0.024002  0.077357  0.001764  4.011769  0.002
C  C156  1  0.58909261  0.19371141  0.86101011  1  -0.082821  1.7e-05  -0.082289  -0.144347  -0.000519  3.938583  0.0
C  C157  1  0.39539632  0.58914922  0.02785927  1  -0.072232  5.6e-05  -0.082317  -0.144517  -0.000493  3.936787  0.0
C  C158  1  0.80625663  0.39552248  0.19424374  1  -0.074833  5.3e-05  -0.0823  -0.143721  -0.000496  3.937502  0.0
C  C159  1  0.41091376  0.80628804  0.36101009  1  -0.082969  2.1e-05  -0.082333  -0.144385  -0.000516  3.938687  0.0
C  C160  1  0.60460505  0.41085153  0.52786222  1  -0.07253  5.4e-05  -0.082366  -0.14442  -0.000495  3.937008  0.0
C  C161  1  0.19374189  0.60447595  0.69424202  1  -0.075023  5.3e-05  -0.08226  -0.143564  -0.000496  3.937387  0.0
C  C162  1  0.58631891  0.08074971  0.94515212  1  0.237379  -0.000303  -0.069163  -0.142714  -0.000968  3.952464  -0.001
C  C163  1  0.50560636  0.58630211  0.11199395  1  0.261065  -0.000339  -0.069549  -0.143221  -0.000971  3.951555  -0.001
C  C164  1  0.91920755  0.50564848  0.27843519  1  0.260317  -0.000316  -0.069718  -0.144133  -0.000965  3.952356  -0.001
C  C165  1  0.41368916  0.91925504  0.44515263  1  0.237499  -0.000304  -0.069153  -0.142722  -0.000968  3.952672  -0.001
C  C166  1  0.49439621  0.41369678  0.61199581  1  0.261029  -0.000339  -0.06955  -0.143301  -0.000971  3.951554  -0.001
C  C167  1  0.08078775  0.49434739  0.77843464  1  0.260158  -0.000316  -0.069768  -0.144232  -0.000964  3.952419  -0.001
C  C168  1  0.47041855  0.12914616  0.98586898  1  0.25115  0.005587  -0.069284  -0.224448  0.003018  3.891752  0.003
C  C169  1  0.34131668  0.47045661  0.15269678  1  0.243038  0.005578  -0.069873  -0.224939  0.003026  3.892991  0.003
C  C170  1  0.87073116  0.34131870  0.31912368  1  0.245436  0.005559  -0.069969  -0.224223  0.003022  3.891991  0.003
C  C171  1  0.52959279  0.87086328  0.48586963  1  0.250699  0.005586  -0.069214  -0.224144  0.003016  3.891525  0.003
C  C172  1  0.65868680  0.52954167  0.65269569  1  0.242875  0.005581  -0.069885  -0.225095  0.003028  3.893075  0.003
C  C173  1  0.12926001  0.65867520  0.81912654  1  0.245248  0.005558  -0.069912  -0.224194  0.00302  3.892254  0.003
C  C174  1  0.42601119  0.14087283  0.04606013  1  1.568678  0.001817  0.204912  0.61177  0.001348  4.1583  0.003
C  C175  1  0.28516382  0.42607597  0.21286942  1  1.582949  0.001795  0.20506  0.612874  0.001346  4.159312  0.003
C  C176  1  0.85896949  0.28509766  0.37929029  1  1.578266  0.001791  0.205103  0.612937  0.001348  4.158637  0.003
C  C177  1  0.57399660  0.85914464  0.54605815  1  1.568287  0.001815  0.204765  0.611628  0.001345  4.158323  0.003
C  C178  1  0.71484089  0.57392790  0.71286981  1  1.582333  0.001794  0.205103  0.612968  0.001343  4.159055  0.003
C  C179  1  0.14102462  0.71489247  0.87929181  1  1.578193  0.001788  0.205076  0.612973  0.001346  4.159098  0.003
C  C180  1  0.41830420  0.95395278  0.98004867  1  0.224558  0.00529  -0.064624  -0.235216  0.002399  3.871591  0.003
C  C181  1  0.46433181  0.41826579  0.14692566  1  0.248711  0.005246  -0.065333  -0.236263  0.002389  3.872174  0.003
C  C182  1  0.04594026  0.46433500  0.31328077  1  0.209929  0.005299  -0.065199  -0.236542  0.002405  3.873107  0.003
C  C183  1  0.58170235  0.04605631  0.48004756  1  0.22443  0.00529  -0.064607  -0.235092  0.002399  3.871643  0.003
C  C184  1  0.53567090  0.58173321  0.64692488  1  0.248692  0.005246  -0.065209  -0.236062  0.00239  3.871956  0.003
C  C185  1  0.95405293  0.53565428  0.81327916  1  0.21013  0.005299  -0.065159  -0.236538  0.002406  3.873109  0.003
C  C186  1  0.37746220  0.89879750  0.04156715  1  1.593899  -0.003496  0.21975  0.618303  -0.004703  4.141663  0.001
C  C187  1  0.47868332  0.37743964  0.20845452  1  1.595011  -0.003485  0.219299  0.617955  -0.004683  4.141275  0.001
C  C188  1  0.10115046  0.47863636  0.37478084  1  1.57906  -0.003522  0.219113  0.618297  -0.004722  4.141899  0.001
C  C189  1  0.62253867  0.10120641  0.54156949  1  1.593853  -0.003492  0.21961  0.618092  -0.004702  4.141869  0.001
C  C190  1  0.52131314  0.62255968  0.70845095  1  1.595243  -0.003484  0.219174  0.617744  -0.004683  4.141595  0.001
C  C191  1  0.89884599  0.52135906  0.87478287  1  1.579499  -0.003518  0.219117  0.618304  -0.004718  4.141876  0.001
C  C192  1  0.58572124  0.31521452  0.78913508  1  1.560386  0.001946  0.219246  0.599864  0.000599  4.155431  0.001
C  C193  1  0.27061249  0.58583330  0.95584889  1  1.55799  0.001969  0.219106  0.600754  0.000585  4.153601  0.001
C  C194  1  0.68477369  0.27067934  0.12231089  1  1.555769  0.002061  0.218989  0.600713  0.000665  4.15359  0.001
C  C195  1  0.41428117  0.68478327  0.28913407  1  1.560613  0.001947  0.219197  0.599786  0.000601  4.15516  0.001
C  C196  1  0.72938567  0.41416227  0.45584773  1  1.557323  0.00197  0.219253  0.600814  0.000585  4.153692  0.001
C  C197  1  0.31522250  0.72931834  0.62231080  1  1.555614  0.002061  0.218989  0.600748  0.000664  4.153701  0.001
C  C198  1  0.47492430  0.96258168  0.72650267  1  1.572093  -0.00368  0.219697  0.595158  -0.004714  4.159516  -0.002
C  C199  1  0.51231807  0.47493099  0.89336025  1  1.555383  -0.003599  0.219051  0.595429  -0.004699  4.159827  -0.002
C  C200  1  0.03744033  0.51239383  0.05981985  1  1.553814  -0.003619  0.218937  0.594378  -0.004739  4.159638  -0.002
C  C201  1  0.52507781  0.03742105  0.22650427  1  1.571819  -0.003684  0.219669  0.595133  -0.004712  4.159433  -0.002
C  C202  1  0.48768148  0.52506530  0.39336112  1  1.555741  -0.003599  0.219032  0.59541  -0.004701  4.159688  -0.002
C  C203  1  0.96255612  0.48761081  0.55981962  1  1.553344  -0.003618  0.218966  0.594448  -0.004739  4.159434  -0.002
C  C204  1  0.27760362  0.99519329  0.19155209  1  0.502749  -0.009656  0.04527  0.098524  -0.010606  3.945436  -0.006
C  C205  1  0.28251694  0.27754419  0.35838912  1  0.378175  -0.009692  0.045767  0.098737  -0.010581  3.946569  -0.006
C  C206  1  0.00478433  0.28226090  0.52498290  1  0.413847  -0.009702  0.045628  0.09851  -0.010595  3.946323  -0.006
C  C207  1  0.72239515  0.00480615  0.69155127  1  0.502667  -0.009655  0.045262  0.098604  -0.010607  3.945452  -0.006
C  C208  1  0.71748465  0.72245492  0.85839100  1  0.37799  -0.009687  0.045694  0.098575  -0.010576  3.946567  -0.006
C  C209  1  0.99521499  0.71774444  0.02498646  1  0.414077  -0.009701  0.045636  0.098594  -0.010594  3.946217  -0.006
C  C210  1  0.17681479  0.93433613  0.19901331  1  -0.092804  0.002279  -0.083926  -0.17666  0.000717  3.939864  0.003
C  C211  1  0.24253676  0.17673769  0.36587037  1  0.048577  0.002318  -0.084096  -0.17628  0.000731  3.938126  0.003
C  C212  1  0.06561713  0.24230915  0.53252469  1  -0.058813  0.002272  -0.084091  -0.176555  0.000716  3.938455  0.003
C  C213  1  0.82318264  0.06566342  0.69901080  1  -0.092686  0.002283  -0.083905  -0.176715  0.00072  3.939858  0.003
C  C214  1  0.75746476  0.82326282  0.86587142  1  0.049  0.002317  -0.084011  -0.17614  0.00073  3.937985  0.003
C  C215  1  0.93438195  0.75769521  0.03252725  1  -0.05977  0.00227  -0.084161  -0.176674  0.000716  3.938331  0.003
C  C216  1  0.11636414  0.97598594  0.20973572  1  0.072884  -0.016015  -0.00132  0.132267  -0.017168  4.064357  -0.009
C  C217  1  0.14043311  0.11631382  0.37661412  1  -0.040727  -0.016077  -0.001808  0.131793  -0.017119  4.063188  -0.009
C  C218  1  0.02393898  0.14019040  0.54323918  1  0.043748  -0.016008  -0.001728  0.131697  -0.017185  4.064192  -0.009
C  C219  1  0.88363051  0.02401008  0.70973468  1  0.072776  -0.016018  -0.001316  0.132344  -0.01717  4.064292  -0.009
C  C220  1  0.85957047  0.88368725  0.87661442  1  -0.040797  -0.016071  -0.001811  0.131843  -0.017111  4.063115  -0.009
C  C221  1  0.97606106  0.85981564  0.04324139  1  0.044202  -0.016011  -0.00164  0.131783  -0.017187  4.064177  -0.009
C  C222  1  0.16397410  0.07950980  0.21246508  1  -0.046858  0.000702  -0.084464  -0.181426  -0.000779  3.948269  0.002
C  C223  1  0.08456489  0.16395799  0.37938877  1  -0.020996  0.00076  -0.084532  -0.181663  -0.00078  3.948194  0.002
C  C224  1  0.92041242  0.08428615  0.54590937  1  0.016671  0.000749  -0.084764  -0.18097  -0.000766  3.948421  0.002
C  C225  1  0.83602560  0.92048758  0.71246537  1  -0.046724  0.000707  -0.084422  -0.181376  -0.000775  3.948352  0.002
C  C226  1  0.91543541  0.83604128  0.87938913  1  -0.02079  0.000759  -0.084567  -0.181747  -0.00078  3.948201  0.002
C  C227  1  0.07958571  0.91571797  0.04591219  1  0.016295  0.000746  -0.084703  -0.180922  -0.000767  3.948596  0.002
C  C228  1  0.26520308  0.13497038  0.20450530  1  0.54818  -0.011157  0.044347  0.099568  -0.01183  3.975899  -0.006
C  C229  1  0.13037464  0.26519414  0.37142291  1  0.452774  -0.011154  0.044563  0.099747  -0.011771  3.974985  -0.006
C  C230  1  0.86497687  0.13007418  0.53788902  1  0.449653  -0.011215  0.044601  0.098765  -0.011833  3.975703  -0.006
C  C231  1  0.73479430  0.86502543  0.70450588  1  0.548091  -0.011161  0.044339  0.099517  -0.011834  3.975908  -0.006
C  C232  1  0.86962610  0.73480336  0.87142362  1  0.452643  -0.011151  0.044538  0.099735  -0.011768  3.975134  -0.006
C  C233  1  0.13502177  0.86993194  0.03789236  1  0.449883  -0.011215  0.044599  0.098904  -0.011836  3.975743  -0.006
C  C234  1  0.01022316  0.91924451  0.21680812  1  -0.080217  -0.014639  -0.082992  -0.121575  -0.015929  3.988925  -0.007
C  C235  1  0.09094253  0.01015829  0.38364562  1  0.015594  -0.01445  -0.082587  -0.121918  -0.01589  3.989037  -0.007
C  C236  1  0.08065011  0.09076030  0.55033960  1  0.010857  -0.014645  -0.082843  -0.12243  -0.015897  3.989733  -0.007
C  C237  1  0.98977555  0.08075261  0.71680865  1  -0.080228  -0.014625  -0.082977  -0.121585  -0.015914  3.988771  -0.007
C  C238  1  0.90906145  0.98984244  0.88364466  1  0.015371  -0.014452  -0.082543  -0.121792  -0.015892  3.98909  -0.007
C  C239  1  0.91934878  0.90924310  0.05033990  1  0.010849  -0.014646  -0.082859  -0.122493  -0.015898  3.9897  -0.007
C  C240  1  0.95408271  0.82001727  0.21184728  1  0.022856  -0.013819  -0.086165  -0.129675  -0.015301  3.993602  -0.007
C  C241  1  0.13393440  0.95396954  0.37844815  1  0.040648  -0.013693  -0.086291  -0.128907  -0.015218  3.993517  -0.007
C  C242  1  0.17988358  0.13389428  0.54535308  1  -0.144212  -0.013951  -0.086004  -0.12839  -0.015336  3.992277  -0.007
C  C243  1  0.04591497  0.17997957  0.71185024  1  0.022969  -0.01382  -0.086125  -0.129584  -0.015301  3.993352  -0.007
C  C244  1  0.86606683  0.04602624  0.87844616  1  0.040875  -0.013684  -0.08639  -0.129153  -0.015208  3.993884  -0.007
C  C245  1  0.82011391  0.86610921  0.04535135  1  -0.144103  -0.013955  -0.085969  -0.128291  -0.015341  3.992227  -0.007
C  C246  1  0.84781188  0.76326770  0.21796208  1  -0.160806  -0.017578  0.001452  0.140608  -0.018642  4.052695  -0.01
C  C247  1  0.08441011  0.84769694  0.38446578  1  -0.149415  -0.017598  0.001651  0.139912  -0.018593  4.052335  -0.01
C  C248  1  0.23668391  0.08443758  0.55134987  1  -0.04153  -0.017463  0.001252  0.139891  -0.018618  4.053447  -0.01
C  C249  1  0.15218629  0.23672741  0.71796383  1  -0.160654  -0.017564  0.001434  0.140536  -0.018628  4.052905  -0.01
C  C250  1  0.91558994  0.15230134  0.88446345  1  -0.149303  -0.017604  0.001736  0.140078  -0.018599  4.052361  -0.01
C  C251  1  0.76331498  0.91556583  0.05134622  1  -0.041637  -0.017461  0.00124  0.139757  -0.018616  4.053578  -0.01
C  C252  1  0.80086222  0.65958235  0.21930099  1  -0.003446  0.00137  -0.086886  -0.18175  -0.000379  3.94921  0.002
C  C253  1  0.14116451  0.80077522  0.38560851  1  0.035393  0.001457  -0.086643  -0.181095  -0.000357  3.948833  0.002
C  C254  1  0.34037010  0.14119736  0.55254475  1  -0.012242  0.001425  -0.086481  -0.181181  -0.000387  3.948783  0.002
C  C255  1  0.19913623  0.34041378  0.71930286  1  -0.003414  0.001369  -0.0869  -0.181923  -0.000379  3.949448  0.002
C  C256  1  0.85883565  0.19922168  0.88560659  1  0.035609  0.001461  -0.086705  -0.181213  -0.000355  3.948941  0.002
C  C257  1  0.65962806  0.85880679  0.05254093  1  -0.0125  0.001424  -0.08651  -0.181128  -0.000388  3.948757  0.002
C  C258  1  0.69968133  0.60382835  0.22718449  1  0.542844  -0.011711  0.039499  0.081901  -0.012724  3.962283  -0.006
C  C259  1  0.09577270  0.69958748  0.39350832  1  0.456557  -0.011766  0.039663  0.081957  -0.01271  3.962294  -0.006
C  C260  1  0.39615367  0.09576916  0.56029396  1  0.456923  -0.011768  0.039572  0.082285  -0.012699  3.961495  -0.006
C  C261  1  0.30031880  0.39616871  0.72718560  1  0.542829  -0.011702  0.039482  0.081927  -0.012713  3.962341  -0.006
C  C262  1  0.90422601  0.30041092  0.89350884  1  0.456548  -0.011773  0.039684  0.082073  -0.012718  3.962175  -0.006
C  C263  1  0.60384553  0.90423528  0.06029288  1  0.457356  -0.011767  0.039575  0.082366  -0.012697  3.961332  -0.006
C  C264  1  0.68520241  0.74377831  0.23013360  1  0.457431  -0.007833  0.044668  0.089758  -0.008631  3.946796  -0.004
C  C265  1  0.94132895  0.68506755  0.39669333  1  0.489512  -0.007914  0.044727  0.089726  -0.008595  3.946945  -0.004
C  C266  1  0.25621382  0.94131148  0.56333618  1  0.470797  -0.007959  0.045039  0.090939  -0.008605  3.946389  -0.004
C  C267  1  0.31479608  0.25621785  0.73013326  1  0.457449  -0.007828  0.044792  0.090012  -0.008626  3.946675  -0.004
C  C268  1  0.05867179  0.31493140  0.89669498  1  0.489458  -0.007914  0.044655  0.089686  -0.008595  3.946896  -0.004
C  C269  1  0.74378577  0.05869260  0.06333485  1  0.470542  -0.007957  0.045028  0.090907  -0.008604  3.946544  -0.004
C  C270  1  0.78605053  0.80462984  0.22310631  1  -0.025374  0.001459  -0.083727  -0.176877  -2.6e-05  3.937678  0.002
C  C271  1  0.98129845  0.78591795  0.38971205  1  0.01759  0.001427  -0.084026  -0.177002  -2.5e-05  3.937011  0.002
C  C272  1  0.19535134  0.98130952  0.55643807  1  -0.047167  0.001422  -0.083833  -0.176405  -4e-05  3.937513  0.002
C  C273  1  0.21394491  0.19536548  0.72310673  1  -0.025656  0.001459  -0.083719  -0.176883  -2.6e-05  3.937808  0.002
C  C274  1  0.01870518  0.21408316  0.88971220  1  0.017684  0.001431  -0.084018  -0.176972  -2.3e-05  3.937003  0.002
C  C275  1  0.80464657  0.01869363  0.05643494  1  -0.047047  0.00142  -0.083764  -0.17628  -4.1e-05  3.937524  0.002
N  N276  1  0.50238643  0.05504442  0.98862227  1  -0.996117  0.069655  -0.322772  -0.082893  0.036864  3.5069  0.06
N  N277  1  0.44737002  0.50238112  0.15548457  1  -1.004481  0.069708  -0.322443  -0.082582  0.03683  3.505255  0.06
N  N278  1  0.94487371  0.44737474  0.32190727  1  -0.979398  0.069594  -0.322042  -0.083431  0.03684  3.507647  0.06
N  N279  1  0.49761723  0.94496250  0.48862012  1  -0.995965  0.069655  -0.322862  -0.083082  0.036865  3.507169  0.06
N  N280  1  0.55263593  0.49762110  0.65548516  1  -1.004518  0.069709  -0.322441  -0.082584  0.036831  3.505293  0.06
N  N281  1  0.05511538  0.55261487  0.82190765  1  -0.979511  0.069594  -0.32207  -0.083498  0.036841  3.507815  0.06
N  N282  1  0.32240692  0.09467786  0.19432470  1  -1.192144  0.051744  -0.324731  -0.263195  0.026013  3.585301  0.05
N  N283  1  0.22786712  0.32236245  0.36118796  1  -1.196122  0.051777  -0.325043  -0.263729  0.026078  3.586443  0.05
N  N284  1  0.90530854  0.22758394  0.52766658  1  -1.190094  0.051704  -0.324891  -0.263074  0.025975  3.586186  0.05
N  N285  1  0.67758968  0.90531865  0.69432383  1  -1.19212  0.051749  -0.32479  -0.263328  0.026017  3.585357  0.05
N  N286  1  0.77213411  0.67763704  0.86118989  1  -1.196072  0.051778  -0.325023  -0.263666  0.026078  3.586423  0.05
N  N287  1  0.09469062  0.77241903  0.02766749  1  -1.189919  0.051701  -0.324927  -0.263275  0.025974  3.58622  0.05
N  N288  1  0.64131003  0.64423682  0.23252499  1  -1.187136  0.053295  -0.330043  -0.245043  0.029108  3.57924  0.046
N  N289  1  0.99700649  0.64120328  0.39897551  1  -1.211704  0.053456  -0.33027  -0.24526  0.029142  3.5798  0.046
N  N290  1  0.35574767  0.99697623  0.56564586  1  -1.245172  0.053516  -0.330403  -0.246414  0.029141  3.580548  0.046
N  N291  1  0.35868683  0.35575843  0.73252523  1  -1.187113  0.053298  -0.330096  -0.245175  0.029108  3.579344  0.046
N  N292  1  0.00299150  0.35879587  0.89897757  1  -1.212004  0.053461  -0.330217  -0.245264  0.029144  3.579761  0.046
N  N293  1  0.64425293  0.00302813  0.06564668  1  -1.245308  0.053513  -0.330427  -0.246512  0.029142  3.580569  0.046
O  O294  1  0.45547682  0.11385565  0.09571594  1  -1.138162  0.13916  -0.33025  -0.612184  0.075077  2.634083  0.119
O  O295  1  0.34168055  0.45536961  0.26252805  1  -1.148038  0.139314  -0.329675  -0.612351  0.075056  2.633026  0.119
O  O296  1  0.88608642  0.34154215  0.42898147  1  -1.15169  0.139244  -0.330304  -0.612749  0.075063  2.63322  0.119
O  O297  1  0.54451641  0.88614352  0.59571626  1  -1.138264  0.139164  -0.330196  -0.612135  0.075081  2.634162  0.119
O  O298  1  0.65833012  0.54464016  0.76252464  1  -1.147789  0.139271  -0.329633  -0.612357  0.075039  2.633438  0.119
O  O299  1  0.11391200  0.65845297  0.92898292  1  -1.151786  0.13924  -0.330216  -0.612644  0.075062  2.63318  0.119
O  O300  1  0.37392746  0.17943464  0.04649123  1  -1.1734  0.013582  -0.333442  -0.535871  0.006311  2.025261  0.01
O  O301  1  0.19451373  0.37416365  0.21330744  1  -1.182666  0.013557  -0.333451  -0.536204  0.006303  2.026832  0.01
O  O302  1  0.82032837  0.19446320  0.37966416  1  -1.172192  0.013558  -0.333263  -0.536114  0.006306  2.026401  0.01
O  O303  1  0.62609643  0.82059229  0.54649257  1  -1.172917  0.013581  -0.333441  -0.535961  0.006311  2.025182  0.01
O  O304  1  0.80549914  0.62584100  0.71330195  1  -1.182251  0.01356  -0.333525  -0.536265  0.006304  2.026253  0.01
O  O305  1  0.17966554  0.80552968  0.87966671  1  -1.171896  0.013558  -0.333368  -0.536293  0.006306  2.026794  0.01
O  O306  1  0.43079119  0.92755578  0.08987937  1  -1.151607  0.079681  -0.308306  -0.527205  0.0414  2.358562  0.068
O  O307  1  0.50326241  0.43078858  0.25675743  1  -1.152439  0.079675  -0.307735  -0.526728  0.041391  2.358892  0.068
O  O308  1  0.07244665  0.50322072  0.42311300  1  -1.134122  0.079639  -0.307923  -0.527214  0.041377  2.358298  0.068
O  O309  1  0.56920172  0.07244750  0.58987744  1  -1.151742  0.079679  -0.308268  -0.527139  0.041398  2.358838  0.068
O  O310  1  0.49673251  0.56921135  0.75675333  1  -1.1524  0.079667  -0.307638  -0.526626  0.041386  2.358976  0.068
O  O311  1  0.92755165  0.49677576  0.92311459  1  -1.134225  0.079642  -0.307927  -0.527227  0.041379  2.358323  0.068
O  O312  1  0.29169698  0.82425198  0.04162473  1  -1.183252  0.099743  -0.318976  -0.56236  0.052474  2.495274  0.079
O  O313  1  0.46752679  0.29169517  0.20851356  1  -1.177453  0.099438  -0.318801  -0.562203  0.052317  2.494231  0.079
O  O314  1  0.17570299  0.46744248  0.37476647  1  -1.177213  0.099626  -0.318621  -0.562342  0.052292  2.49665  0.079
O  O315  1  0.70830554  0.17575284  0.54163375  1  -1.18308  0.099739  -0.318918  -0.562286  0.052476  2.495142  0.079
O  O316  1  0.53246802  0.70830323  0.70850679  1  -1.17753  0.099434  -0.318829  -0.562219  0.05232  2.494453  0.079
O  O317  1  0.82429646  0.53255889  0.87477072  1  -1.177336  0.099625  -0.318652  -0.562379  0.052291  2.496697  0.079
O  O318  1  0.65491298  0.38126813  0.82157177  1  -1.158333  0.064706  -0.313393  -0.568617  0.033296  2.389338  0.056
O  O319  1  0.27378283  0.65511245  0.98820229  1  -1.160523  0.064693  -0.313352  -0.569028  0.033281  2.388306  0.056
O  O320  1  0.61870131  0.27389592  0.15466934  1  -1.166877  0.064626  -0.31388  -0.569458  0.033321  2.388625  0.056
O  O321  1  0.34508654  0.61872894  0.32157017  1  -1.158671  0.064708  -0.313386  -0.568618  0.033297  2.389292  0.056
O  O322  1  0.72621207  0.34488277  0.48820062  1  -1.16012  0.064687  -0.313358  -0.568922  0.033278  2.388402  0.056
O  O323  1  0.38129667  0.72610276  0.65466609  1  -1.166702  0.064625  -0.313878  -0.569466  0.033322  2.388675  0.056
O  O324  1  0.53329776  0.32875009  0.74861251  1  -1.162159  0.075025  -0.3188  -0.56832  0.038665  2.333335  0.062
O  O325  1  0.20470913  0.53335346  0.91531049  1  -1.160458  0.074901  -0.31871  -0.568972  0.038491  2.332313  0.062
O  O326  1  0.67130235  0.20466290  0.08184693  1  -1.162071  0.074989  -0.31825  -0.568286  0.038578  2.332603  0.062
O  O327  1  0.46670484  0.67124721  0.24861157  1  -1.162081  0.075031  -0.318774  -0.568279  0.038669  2.333226  0.062
O  O328  1  0.79528840  0.46664373  0.41530898  1  -1.160441  0.074902  -0.318865  -0.569106  0.038492  2.332404  0.062
O  O329  1  0.32869550  0.79533794  0.58184829  1  -1.162027  0.074993  -0.318258  -0.568313  0.038581  2.332637  0.062
O  O330  1  0.42878506  0.96487225  0.67858439  1  -1.158619  0.071142  -0.313708  -0.54712  0.036767  2.356148  0.062
O  O331  1  0.46390991  0.42877936  0.84543683  1  -1.152636  0.071185  -0.313407  -0.546934  0.036792  2.357259  0.062
O  O332  1  0.03509064  0.46397857  0.01188158  1  -1.158924  0.071171  -0.313409  -0.546546  0.03676  2.356891  0.062
O  O333  1  0.57122152  0.03513206  0.17858558  1  -1.158837  0.071158  -0.313718  -0.547095  0.036772  2.356034  0.062
O  O334  1  0.53608815  0.57121550  0.34543640  1  -1.152966  0.071187  -0.313445  -0.547013  0.036794  2.357112  0.062
O  O335  1  0.96490587  0.53602693  0.51187999  1  -1.158967  0.071176  -0.313446  -0.546595  0.036763  2.356618  0.062
O  O336  1  0.50419337  0.90070079  0.73695166  1  -1.142546  0.100456  -0.315459  -0.568584  0.051259  2.392539  0.084
O  O337  1  0.60349180  0.50427593  0.90381907  1  -1.143088  0.100536  -0.315362  -0.569011  0.051368  2.392586  0.084
O  O338  1  0.09933565  0.60354982  0.07029122  1  -1.146606  0.100597  -0.314942  -0.568329  0.051444  2.39254  0.084
O  O339  1  0.49580522  0.09929915  0.23695511  1  -1.142088  0.100449  -0.315413  -0.568552  0.051253  2.392665  0.084
O  O340  1  0.39650732  0.49572213  0.40381747  1  -1.143075  0.100547  -0.315333  -0.568978  0.051373  2.392616  0.084
O  O341  1  0.90066084  0.39645484  0.57028900  1  -1.146546  0.100588  -0.31494  -0.568373  0.051441  2.392711  0.084
