# generated using pymatgen
data_ZnH14C29N2(OF)6
_symmetry_space_group_name_H-M   'P 1'
_cell_length_a   16.41594815
_cell_length_b   22.48417663
_cell_length_c   30.39883279
_cell_angle_alpha   89.99990782
_cell_angle_beta   90.00008941
_cell_angle_gamma   90.00006031
_symmetry_Int_Tables_number   1
_chemical_formula_structural   ZnH14C29N2(OF)6
_chemical_formula_sum   'Zn8 H112 C232 N16 O48 F48'
_cell_volume   11220.18115029
_cell_formula_units_Z   8
loop_
 _symmetry_equiv_pos_site_id
 _symmetry_equiv_pos_as_xyz
  1  'x, y, z'
loop_
 _atom_site_type_symbol
 _atom_site_label
 _atom_site_symmetry_multiplicity
 _atom_site_fract_x
 _atom_site_fract_y
 _atom_site_fract_z
 _atom_site_occupancy
 _atom_site_pbe_bader_charge
 _atom_site_pbe_bader_spin_density
 _atom_site_pbe_cm5_charge
 _atom_site_pbe_ddec_charge
 _atom_site_pbe_ddec_spin_density
 _atom_site_pbe_ddec_sum_bond_order
 _atom_site_pbe_magmom
Zn  Zn0  1  0.06688140  0.53079930  0.21976703  1  1.29505  0  0.669777  0.826727  0  2.412856  0
Zn  Zn1  1  0.43311714  0.96920143  0.71976737  1  1.295034  0  0.669775  0.82672  0  2.412856  0
Zn  Zn2  1  0.56688106  0.96920052  0.78023225  1  1.293896  0  0.669751  0.826624  0  2.412878  0
Zn  Zn3  1  0.93311838  0.53079912  0.28023255  1  1.293879  0  0.669794  0.826772  0  2.412862  0
Zn  Zn4  1  0.93311784  0.46920192  0.78023303  1  1.295037  0  0.669758  0.826704  0  2.412787  0
Zn  Zn5  1  0.56688209  0.03079802  0.28023236  1  1.295057  0  0.669787  0.826755  0  2.412788  0
Zn  Zn6  1  0.43311940  0.03079803  0.21976715  1  1.29387  0  0.66975  0.82675  0  2.412821  0
Zn  Zn7  1  0.06688146  0.46920166  0.71976719  1  1.293865  0  0.669761  0.826692  0  2.412882  0
H  H8  1  0.09078481  0.47493834  0.13334369  1  0.155861  0  0.12628  0.102708  0  1.004774  0
H  H9  1  0.40921458  0.02506198  0.63334355  1  0.155877  0  0.126285  0.102723  0  1.004766  0
H  H10  1  0.59078469  0.02506180  0.86665654  1  0.155861  0  0.126279  0.102712  0  1.004741  0
H  H11  1  0.90921488  0.47493751  0.36665595  1  0.156017  0  0.12628  0.102713  0  1.004763  0
H  H12  1  0.90921442  0.52506244  0.86665604  1  0.15602  0  0.126256  0.102668  0  1.004807  0
H  H13  1  0.59078587  0.97493746  0.36665651  1  0.156018  0  0.126274  0.102707  0  1.004736  0
H  H14  1  0.40921454  0.97493765  0.13334353  1  0.156006  0  0.126268  0.102714  0  1.004756  0
H  H15  1  0.09078679  0.52506193  0.63334312  1  0.1559  0  0.126268  0.102696  0  1.004778  0
H  H16  1  0.20146673  0.46512843  0.07622017  1  0.120793  0  0.124564  0.140454  0  0.964241  0
H  H17  1  0.29853128  0.03487246  0.57622058  1  0.120792  0  0.124578  0.140473  0  0.964255  0
H  H18  1  0.70146739  0.03487090  0.92378015  1  0.120796  0  0.124575  0.140469  0  0.964221  0
H  H19  1  0.79853417  0.46512873  0.42378015  1  0.1207  0  0.124583  0.140494  0  0.964254  0
H  H20  1  0.79853373  0.53487190  0.92378022  1  0.12075  0  0.124575  0.140469  0  0.964276  0
H  H21  1  0.70146856  0.96512788  0.42377948  1  0.12079  0  0.12458  0.140476  0  0.96427  0
H  H22  1  0.29853245  0.96512944  0.07621958  1  0.120787  0  0.12457  0.14045  0  0.964234  0
H  H23  1  0.20147055  0.53487160  0.57622025  1  0.120811  0  0.124594  0.140509  0  0.964171  0
H  H24  1  0.35153928  0.57744962  0.15810061  1  0.112351  0  0.124034  0.140647  0  0.965156  0
H  H25  1  0.14846091  0.92254991  0.65810044  1  0.112335  0  0.124005  0.140615  0  0.965218  0
H  H26  1  0.85153783  0.92255043  0.84189924  1  0.112371  0  0.124023  0.140656  0  0.965163  0
H  H27  1  0.64846117  0.57744953  0.34190023  1  0.11236  0  0.124011  0.140597  0  0.965242  0
H  H28  1  0.64845995  0.42255027  0.84190077  1  0.11236  0  0.12401  0.140611  0  0.965163  0
H  H29  1  0.85153894  0.07744998  0.34189930  1  0.112351  0  0.124022  0.140629  0  0.965171  0
H  H30  1  0.14846140  0.07744902  0.15810082  1  0.112364  0  0.124019  0.140602  0  0.965215  0
H  H31  1  0.35153928  0.42254947  0.65810082  1  0.112313  0  0.124042  0.140672  0  0.965175  0
H  H32  1  0.23382944  0.58295338  0.21141149  1  0.137598  0  0.128119  0.103876  0  0.989416  0
H  H33  1  0.26617151  0.91704514  0.71141076  1  0.137594  0  0.128131  0.103903  0  0.989337  0
H  H34  1  0.73382722  0.91704612  0.78858892  1  0.137592  0  0.128128  0.103917  0  0.989345  0
H  H35  1  0.76616980  0.58295306  0.28858836  1  0.137602  0  0.128121  0.103898  0  0.98939  0
H  H36  1  0.76616980  0.41704695  0.78858956  1  0.137633  0  0.128116  0.103845  0  0.989532  0
H  H37  1  0.73382833  0.08295475  0.28858864  1  0.137585  0  0.128117  0.103873  0  0.98936  0
H  H38  1  0.26617202  0.08295288  0.21141147  1  0.137582  0  0.128114  0.103874  0  0.989399  0
H  H39  1  0.23382882  0.41704550  0.71141138  1  0.137557  0  0.128099  0.103857  0  0.989381  0
H  H40  1  0.45064685  0.35740080  0.04671295  1  0.126578  0  0.121419  0.128815  0  0.970507  0
H  H41  1  0.04934803  0.14259837  0.54671336  1  0.126609  0  0.121396  0.128824  0  0.970391  0
H  H42  1  0.95065080  0.14259872  0.95328626  1  0.126571  0  0.121401  0.128828  0  0.970399  0
H  H43  1  0.54935145  0.35740262  0.45328683  1  0.126607  0  0.121371  0.128788  0  0.970422  0
H  H44  1  0.54935238  0.64259953  0.95328744  1  0.126599  0  0.121411  0.12882  0  0.970356  0
H  H45  1  0.95065182  0.85740063  0.45328637  1  0.126565  0  0.121394  0.128826  0  0.970423  0
H  H46  1  0.04934843  0.85740117  0.04671315  1  0.126596  0  0.121384  0.128812  0  0.970409  0
H  H47  1  0.45064900  0.64259949  0.54671257  1  0.126576  0  0.121411  0.128831  0  0.97047  0
H  H48  1  0.44313055  0.65356823  0.01294372  1  0.128075  0  0.115208  0.122878  0  0.990815  0
H  H49  1  0.05686983  0.84643162  0.51294422  1  0.128071  0  0.115205  0.122869  0  0.990788  0
H  H50  1  0.94312941  0.84643188  0.98705555  1  0.128086  0  0.115199  0.122877  0  0.990708  0
H  H51  1  0.55686819  0.65356954  0.48705539  1  0.128051  0  0.11522  0.12291  0  0.990668  0
H  H52  1  0.55686991  0.34643166  0.98705733  1  0.128097  0  0.115213  0.122884  0  0.990785  0
H  H53  1  0.94313001  0.15356872  0.48705552  1  0.128062  0  0.11524  0.122926  0  0.990688  0
H  H54  1  0.05686861  0.15356979  0.01294418  1  0.128049  0  0.115236  0.122913  0  0.99067  0
H  H55  1  0.44313105  0.34643258  0.51294336  1  0.12807  0  0.115211  0.122883  0  0.990841  0
H  H56  1  0.48710677  0.89465429  0.37062903  1  0.054108  0  0.104224  0.105432  0  1.006768  0
H  H57  1  0.01289343  0.60534566  0.87062814  1  0.054119  0  0.104256  0.105456  0  1.00682  0
H  H58  1  0.98710546  0.60534630  0.62937027  1  0.054121  0  0.104221  0.105441  0  1.006766  0
H  H59  1  0.51289171  0.89465190  0.12937110  1  0.054094  0  0.104236  0.105443  0  1.006799  0
H  H60  1  0.51289308  0.10534471  0.62937234  1  0.054104  0  0.104212  0.105424  0  1.006771  0
H  H61  1  0.98710642  0.39465378  0.12937258  1  0.054104  0  0.104236  0.105425  0  1.006905  0
H  H62  1  0.01289438  0.39465537  0.37062880  1  0.05411  0  0.104222  0.105413  0  1.006791  0
H  H63  1  0.48710631  0.10534488  0.87062798  1  0.054087  0  0.104227  0.105433  0  1.006874  0
H  H64  1  0.41842235  0.82162330  0.41837101  1  0.076888  0  0.096323  0.106324  0  1.020037  0
H  H65  1  0.08157676  0.67837789  0.91836943  1  0.076946  0  0.096311  0.10631  0  1.02005  0
H  H66  1  0.91842163  0.67837724  0.58162856  1  0.076934  0  0.096314  0.106304  0  1.020072  0
H  H67  1  0.58157419  0.82161972  0.08162986  1  0.07685  0  0.096329  0.106317  0  1.019989  0
H  H68  1  0.58157383  0.17837659  0.58163004  1  0.076888  0  0.096304  0.106296  0  1.020087  0
H  H69  1  0.91842369  0.32162334  0.08163030  1  0.076928  0  0.096317  0.106319  0  1.020029  0
H  H70  1  0.08157700  0.32162354  0.41837051  1  0.076909  0  0.09632  0.106326  0  1.02002  0
H  H71  1  0.41842627  0.17837750  0.91836921  1  0.076903  0  0.096336  0.106326  0  1.020026  0
H  H72  1  0.20612077  0.83006480  0.33470685  1  0.07684  0  0.103746  0.113297  0  0.995352  0
H  H73  1  0.29387932  0.66993568  0.83470612  1  0.076824  0  0.103762  0.113303  0  0.995333  0
H  H74  1  0.70612149  0.66993691  0.66529354  1  0.076844  0  0.103755  0.113305  0  0.995284  0
H  H75  1  0.79387762  0.83006299  0.16529237  1  0.076869  0  0.103755  0.113325  0  0.995309  0
H  H76  1  0.79387847  0.16993642  0.66529354  1  0.07685  0  0.103734  0.113268  0  0.995365  0
H  H77  1  0.70612113  0.33006421  0.16529428  1  0.076839  0  0.103766  0.113316  0  0.995334  0
H  H78  1  0.29387836  0.33006387  0.33470554  1  0.076844  0  0.103743  0.113276  0  0.995341  0
H  H79  1  0.20612223  0.16993646  0.83470638  1  0.076867  0  0.10376  0.113322  0  0.995308  0
H  H80  1  0.27632748  0.90467913  0.28780010  1  0.08812  0  0.108678  0.115272  0  0.990102  0
H  H81  1  0.22367308  0.59532056  0.78779972  1  0.088105  0  0.10865  0.115231  0  0.99015  0
H  H82  1  0.77632701  0.59532219  0.71220002  1  0.088138  0  0.108687  0.115287  0  0.990095  0
H  H83  1  0.72367284  0.90467805  0.21219870  1  0.088173  0  0.108691  0.11528  0  0.99012  0
H  H84  1  0.72367297  0.09532165  0.71220029  1  0.088108  0  0.10868  0.115259  0  0.990129  0
H  H85  1  0.77632676  0.40467888  0.21220067  1  0.088099  0  0.108679  0.115258  0  0.990066  0
H  H86  1  0.22367283  0.40467992  0.28779972  1  0.088099  0  0.108656  0.115239  0  0.990091  0
H  H87  1  0.27632640  0.09532051  0.78780004  1  0.08812  0  0.108666  0.115257  0  0.990011  0
H  H88  1  0.02520333  0.66361297  0.36834929  1  0.10895  0  0.108594  0.115354  0  0.990204  0
H  H89  1  0.47479807  0.83638788  0.86834982  1  0.108913  0  0.108601  0.115331  0  0.99017  0
H  H90  1  0.52520115  0.83638727  0.63164766  1  0.108878  0  0.108586  0.115317  0  0.990188  0
H  H91  1  0.97479663  0.66361226  0.13165014  1  0.108947  0  0.108596  0.115361  0  0.990157  0
H  H92  1  0.97479651  0.33638825  0.63165012  1  0.108946  0  0.108593  0.115332  0  0.990169  0
H  H93  1  0.52520238  0.16361201  0.13164992  1  0.108924  0  0.108606  0.115361  0  0.990154  0
H  H94  1  0.47479747  0.16361351  0.36835010  1  0.108932  0  0.108597  0.115326  0  0.990169  0
H  H95  1  0.02520260  0.33638541  0.86835256  1  0.108914  0  0.108607  0.115352  0  0.990201  0
H  H96  1  0.09805395  0.73275535  0.41764064  1  0.085461  0  0.095563  0.103935  0  1.023853  0
H  H97  1  0.40194638  0.76724540  0.91764120  1  0.085441  0  0.095556  0.103915  0  1.023912  0
H  H98  1  0.59805519  0.76724539  0.58235735  1  0.085444  0  0.09552  0.103899  0  1.023912  0
H  H99  1  0.90194551  0.73275513  0.08235870  1  0.085445  0  0.095558  0.103917  0  1.023894  0
H  H100  1  0.90194406  0.26724632  0.58235876  1  0.085473  0  0.095542  0.10392  0  1.023901  0
H  H101  1  0.59805347  0.23275494  0.08235854  1  0.085429  0  0.095557  0.1039  0  1.023913  0
H  H102  1  0.40194588  0.23275628  0.41764074  1  0.085455  0  0.095568  0.103927  0  1.023891  0
H  H103  1  0.09805738  0.26724432  0.91764268  1  0.085203  0  0.095547  0.103928  0  1.023895  0
H  H104  1  0.30927525  0.72218408  0.33329671  1  0.084622  0  0.102754  0.110283  0  0.998103  0
H  H105  1  0.19072544  0.77781595  0.83329674  1  0.08464  0  0.102769  0.110303  0  0.998071  0
H  H106  1  0.80927370  0.77781726  0.66670377  1  0.084653  0  0.102745  0.110282  0  0.998067  0
H  H107  1  0.69072419  0.72218441  0.16670330  1  0.084608  0  0.102769  0.110292  0  0.998065  0
H  H108  1  0.69072398  0.27781625  0.66670401  1  0.084585  0  0.102735  0.110277  0  0.998034  0
H  H109  1  0.80927440  0.22218438  0.16670332  1  0.084638  0  0.102749  0.110288  0  0.998087  0
H  H110  1  0.19072493  0.22218263  0.33329663  1  0.084597  0  0.102759  0.110283  0  0.998083  0
H  H111  1  0.30927504  0.27781815  0.83329578  1  0.084647  0  0.102746  0.110295  0  0.998079  0
H  H112  1  0.23473238  0.65215041  0.28478137  1  0.078089  0  0.1048  0.106653  0  1.004087  0
H  H113  1  0.26526940  0.84784840  0.78478040  1  0.078093  0  0.104803  0.106638  0  1.004091  0
H  H114  1  0.73472680  0.84784910  0.71521904  1  0.078167  0  0.104809  0.106677  0  1.004088  0
H  H115  1  0.76526819  0.65215158  0.21521938  1  0.078081  0  0.104815  0.106646  0  1.004111  0
H  H116  1  0.76526869  0.34784725  0.71522034  1  0.078067  0  0.104819  0.106645  0  1.004073  0
H  H117  1  0.73473106  0.15215149  0.21521934  1  0.078105  0  0.104811  0.106659  0  1.004084  0
H  H118  1  0.26526817  0.15214901  0.28478168  1  0.078163  0  0.104784  0.106624  0  1.004148  0
H  H119  1  0.23472740  0.34785009  0.78478101  1  0.07821  0  0.104794  0.106657  0  1.004103  0
C  C120  1  0.14959837  0.49688046  0.13695601  1  0.482911  0  0.061813  0.111781  0  3.909049  0
C  C121  1  0.35039981  0.00311986  0.63695618  1  0.482932  0  0.061735  0.111659  0  3.909125  0
C  C122  1  0.64959882  0.00311928  0.86304426  1  0.482922  0  0.061765  0.111685  0  3.909161  0
C  C123  1  0.85040074  0.49688048  0.36304394  1  0.482775  0  0.0618  0.111779  0  3.909143  0
C  C124  1  0.85040025  0.50311988  0.86304438  1  0.482824  0  0.061804  0.111765  0  3.909195  0
C  C125  1  0.64959942  0.99688003  0.36304421  1  0.48278  0  0.061784  0.111757  0  3.909099  0
C  C126  1  0.35040164  0.99688061  0.13695547  1  0.482752  0  0.061858  0.111814  0  3.909052  0
C  C127  1  0.14960093  0.50311897  0.63695613  1  0.482969  0  0.061804  0.111812  0  3.90904  0
C  C128  1  0.21090152  0.49161681  0.10574103  1  0.038288  0  -0.069641  -0.190457  0  3.937008  0
C  C129  1  0.28909841  0.00838401  0.60574147  1  0.038277  0  -0.069657  -0.190476  0  3.937028  0
C  C130  1  0.71090145  0.00838342  0.89425864  1  0.038272  0  -0.069637  -0.190437  0  3.937105  0
C  C131  1  0.78909942  0.49161672  0.39425959  1  0.038591  0  -0.069663  -0.190481  0  3.937044  0
C  C132  1  0.78909894  0.50838441  0.89425969  1  0.038507  0  -0.069595  -0.190411  0  3.937028  0
C  C133  1  0.71090266  0.99161543  0.39425860  1  0.038272  0  -0.069652  -0.190476  0  3.937049  0
C  C134  1  0.28909840  0.99161647  0.10574109  1  0.038527  0  -0.069638  -0.19041  0  3.936995  0
C  C135  1  0.21090347  0.50838406  0.60574146  1  0.038269  0  -0.069673  -0.190568  0  3.936989  0
C  C136  1  0.28466579  0.52047535  0.11342390  1  0.262197  0  0.115439  0.237624  0  4.00828  0
C  C137  1  0.21533244  0.97952561  0.61342471  1  0.262305  0  0.115502  0.237671  0  4.008082  0
C  C138  1  0.78466638  0.97952553  0.88657524  1  0.262318  0  0.115402  0.237551  0  4.00828  0
C  C139  1  0.71533458  0.52047566  0.38657701  1  0.261991  0  0.115474  0.237642  0  4.008116  0
C  C140  1  0.71533405  0.47952454  0.88657682  1  0.262009  0  0.115415  0.237616  0  4.008114  0
C  C141  1  0.78466740  0.02047383  0.38657470  1  0.262306  0  0.115445  0.237632  0  4.008185  0
C  C142  1  0.21533468  0.02047525  0.11342450  1  0.26205  0  0.11545  0.23764  0  4.00815  0
C  C143  1  0.28466831  0.47952556  0.61342503  1  0.262319  0  0.115452  0.237662  0  4.008109  0
C  C144  1  0.29476763  0.55412653  0.15151877  1  0.061821  0  -0.069672  -0.191507  0  3.934318  0
C  C145  1  0.20523193  0.94587301  0.65151928  1  0.061823  0  -0.069679  -0.191488  0  3.934453  0
C  C146  1  0.79476685  0.94587347  0.84848038  1  0.061815  0  -0.069672  -0.191482  0  3.934469  0
C  C147  1  0.70523279  0.55412692  0.34848111  1  0.061832  0  -0.069656  -0.191427  0  3.934363  0
C  C148  1  0.70523282  0.44587380  0.84848195  1  0.061788  0  -0.069653  -0.19142  0  3.934307  0
C  C149  1  0.79476731  0.05412599  0.34848013  1  0.061817  0  -0.069673  -0.191503  0  3.934456  0
C  C150  1  0.20523300  0.05412687  0.15151936  1  0.061813  0  -0.069672  -0.191489  0  3.934347  0
C  C151  1  0.29476889  0.44587297  0.65151994  1  0.061915  0  -0.069692  -0.191531  0  3.934428  0
C  C152  1  0.23015856  0.55733807  0.18101987  1  0.479795  0  0.063556  0.112321  0  3.907401  0
C  C153  1  0.26984109  0.94266097  0.68101978  1  0.479741  0  0.063539  0.112212  0  3.907315  0
C  C154  1  0.73015707  0.94266144  0.81898020  1  0.47977  0  0.063528  0.112159  0  3.907284  0
C  C155  1  0.76984187  0.55733768  0.31898033  1  0.479804  0  0.063524  0.112253  0  3.907335  0
C  C156  1  0.76984068  0.44266227  0.81898052  1  0.479794  0  0.063485  0.112149  0  3.907504  0
C  C157  1  0.73015814  0.05733848  0.31897995  1  0.479762  0  0.063538  0.112286  0  3.907422  0
C  C158  1  0.26984216  0.05733801  0.18102019  1  0.479755  0  0.063544  0.112352  0  3.907411  0
C  C159  1  0.23015980  0.44266088  0.68102039  1  0.4796  0  0.063543  0.112241  0  3.907376  0
C  C160  1  0.37949847  0.45698367  0.07394088  1  1.324848  0  0.247834  0.439283  0  4.088225  0
C  C161  1  0.12049527  0.04301679  0.57394311  1  1.324408  0  0.24787  0.439465  0  4.088219  0
C  C162  1  0.87950342  0.04301669  0.92605630  1  1.324372  0  0.24794  0.439637  0  4.08801  0
C  C163  1  0.62049998  0.45698426  0.42605911  1  1.324959  0  0.247733  0.439204  0  4.088381  0
C  C164  1  0.62049894  0.54301578  0.92605852  1  1.324391  0  0.247737  0.439168  0  4.088006  0
C  C165  1  0.87950396  0.95698355  0.42605563  1  1.324366  0  0.247932  0.439652  0  4.08797  0
C  C166  1  0.12049765  0.95698453  0.07394278  1  1.324351  0  0.247867  0.439462  0  4.088104  0
C  C167  1  0.37950413  0.54301651  0.57394424  1  1.324443  0  0.247852  0.439502  0  4.088168  0
C  C168  1  0.44218989  0.45176228  0.03921853  1  -0.03242  0  -0.000852  -0.058959  0  3.982578  0
C  C169  1  0.05780558  0.04823825  0.53921971  1  -0.031602  0  -0.000907  -0.059006  0  3.982573  0
C  C170  1  0.94219373  0.04823946  0.96077936  1  -0.031612  0  -0.000976  -0.059096  0  3.982676  0
C  C171  1  0.55780794  0.45176231  0.46078180  1  -0.032027  0  -0.000898  -0.059034  0  3.982583  0
C  C172  1  0.55780630  0.54823806  0.96078088  1  -0.031585  0  -0.000898  -0.058974  0  3.982507  0
C  C173  1  0.94219427  0.95176164  0.46077936  1  -0.031571  0  -0.000942  -0.059048  0  3.982594  0
C  C174  1  0.05780612  0.95176265  0.03922004  1  -0.031554  0  -0.00093  -0.05901  0  3.98262  0
C  C175  1  0.44219495  0.54823892  0.53922089  1  -0.031575  0  -0.000963  -0.059093  0  3.982711  0
C  C176  1  0.46998421  0.50309041  0.01676535  1  0.054439  0  0.007517  0.034688  0  3.994804  0
C  C177  1  0.03001253  0.99691032  0.51676531  1  -0.016257  0  0.007612  0.034795  0  3.994756  0
C  C178  1  0.96998754  0.99691150  0.98323395  1  -0.01628  0  0.007656  0.034766  0  3.994938  0
C  C179  1  0.53001431  0.50309170  0.48323493  1  -0.01619  0  0.007628  0.034802  0  3.994793  0
C  C180  1  0.53001137  0.49690948  0.98323373  1  -0.016222  0  0.007657  0.034902  0  3.994648  0
C  C181  1  0.96998732  0.00309046  0.48323278  1  0.054559  0  0.007559  0.034729  0  3.994845  0
C  C182  1  0.03001352  0.00309150  0.01676579  1  0.054541  0  0.00759  0.034809  0  3.994937  0
C  C183  1  0.46998797  0.49690952  0.51676744  1  0.054448  0  0.007598  0.034764  0  3.994826  0
C  C184  1  0.43963512  0.56044895  0.02693641  1  -0.036582  0  -0.001628  -0.059194  0  3.979006  0
C  C185  1  0.06036286  0.93955131  0.52693647  1  -0.036409  0  -0.00159  -0.059151  0  3.97894  0
C  C186  1  0.93963895  0.93955294  0.97306318  1  -0.036148  0  -0.001666  -0.059239  0  3.979037  0
C  C187  1  0.56036409  0.56045029  0.47306379  1  -0.03665  0  -0.001609  -0.059149  0  3.979068  0
C  C188  1  0.56036168  0.43955139  0.97306365  1  -0.036373  0  -0.001604  -0.05925  0  3.979097  0
C  C189  1  0.93963820  0.06044902  0.47306194  1  -0.036585  0  -0.001651  -0.059248  0  3.979018  0
C  C190  1  0.06036272  0.06044873  0.02693721  1  -0.036582  0  -0.001566  -0.059085  0  3.979104  0
C  C191  1  0.43963819  0.43955227  0.52693792  1  -0.036419  0  -0.001626  -0.059211  0  3.978934  0
C  C192  1  0.37653799  0.56806847  0.06124395  1  1.353301  0  0.247669  0.439581  0  4.085561  0
C  C193  1  0.12346009  0.93193305  0.56124473  1  1.353315  0  0.247672  0.439569  0  4.085424  0
C  C194  1  0.87654050  0.93193248  0.93875461  1  1.353288  0  0.247618  0.439498  0  4.085564  0
C  C195  1  0.62346123  0.56806948  0.43875526  1  1.353515  0  0.247712  0.439685  0  4.085564  0
C  C196  1  0.62346185  0.43193098  0.93875710  1  1.353366  0  0.247669  0.439617  0  4.085811  0
C  C197  1  0.87654098  0.06806684  0.43875402  1  1.353308  0  0.247668  0.43957  0  4.085503  0
C  C198  1  0.12345874  0.06806785  0.06124480  1  1.35332  0  0.247612  0.439448  0  4.08551  0
C  C199  1  0.37654106  0.43193263  0.56124546  1  1.353484  0  0.247687  0.439639  0  4.085581  0
C  C200  1  0.47310124  0.39599731  0.02871061  1  0.015716  0  -0.055988  -0.057624  0  3.911205  0
C  C201  1  0.02689481  0.10400235  0.52871038  1  0.014952  0  -0.055986  -0.057671  0  3.911163  0
C  C202  1  0.97310458  0.10400312  0.97128896  1  0.015011  0  -0.055954  -0.057595  0  3.911189  0
C  C203  1  0.52689652  0.39599818  0.47128979  1  0.015001  0  -0.05592  -0.057509  0  3.91106  0
C  C204  1  0.52689556  0.60400214  0.97128979  1  0.015328  0  -0.05599  -0.057617  0  3.911148  0
C  C205  1  0.97310504  0.89599665  0.47128870  1  0.01503  0  -0.055977  -0.057682  0  3.911198  0
C  C206  1  0.02689588  0.89599765  0.02871078  1  0.015309  0  -0.055952  -0.057652  0  3.911245  0
C  C207  1  0.47310455  0.60400393  0.52871093  1  0.014926  0  -0.055993  -0.057635  0  3.91126  0
C  C208  1  0.46799108  0.61011502  0.00444704  1  -0.029304  0  -0.059326  -0.061923  0  3.919647  0
C  C209  1  0.03200805  0.88988529  0.50444681  1  -0.029204  0  -0.059289  -0.061836  0  3.919664  0
C  C210  1  0.96799186  0.88988600  0.99555323  1  -0.029441  0  -0.05932  -0.061894  0  3.91951  0
C  C211  1  0.53200759  0.61011540  0.49555310  1  -0.028881  0  -0.059344  -0.061963  0  3.91966  0
C  C212  1  0.53200754  0.38988487  0.99555302  1  -0.029495  0  -0.059313  -0.061872  0  3.919727  0
C  C213  1  0.96799179  0.11011460  0.49555226  1  -0.02892  0  -0.059324  -0.061899  0  3.919516  0
C  C214  1  0.03200738  0.11011567  0.00444716  1  -0.028988  0  -0.059352  -0.061961  0  3.919546  0
C  C215  1  0.46799165  0.38988582  0.50444795  1  -0.029078  0  -0.05932  -0.061929  0  3.919505  0
C  C216  1  0.42854048  0.94938840  0.29807553  1  1.582327  0  0.214788  0.591271  0  4.178901  0
C  C217  1  0.07146072  0.55061127  0.79807541  1  1.582281  0  0.214827  0.591275  0  4.17879  0
C  C218  1  0.92853931  0.55061170  0.70192405  1  1.582327  0  0.214777  0.59121  0  4.178817  0
C  C219  1  0.57145990  0.94938767  0.20192322  1  1.582311  0  0.214771  0.591175  0  4.178946  0
C  C220  1  0.57146119  0.05061016  0.70192486  1  1.5823  0  0.214791  0.591202  0  4.17889  0
C  C221  1  0.92853973  0.44938951  0.20192498  1  1.582298  0  0.214749  0.591126  0  4.17902  0
C  C222  1  0.07146114  0.44938952  0.29807568  1  1.582323  0  0.2148  0.591195  0  4.178838  0
C  C223  1  0.42853873  0.05061044  0.79807553  1  1.582297  0  0.214855  0.591405  0  4.178707  0
C  C224  1  0.38608787  0.90428863  0.32634110  1  -0.108262  0  -0.014384  -0.025903  0  3.964958  0
C  C225  1  0.11391219  0.59571142  0.82634096  1  -0.108274  0  -0.014382  -0.025898  0  3.96502  0
C  C226  1  0.88608790  0.59571233  0.67365845  1  -0.108252  0  -0.014483  -0.02601  0  3.964955  0
C  C227  1  0.61391062  0.90428622  0.17365836  1  -0.108311  0  -0.014472  -0.026008  0  3.965  0
C  C228  1  0.61391075  0.09571081  0.67365896  1  -0.10829  0  -0.014461  -0.026049  0  3.965026  0
C  C229  1  0.88608887  0.40428892  0.17365943  1  -0.108328  0  -0.014408  -0.025907  0  3.964907  0
C  C230  1  0.11391133  0.40428979  0.32634161  1  -0.108287  0  -0.014439  -0.025988  0  3.965042  0
C  C231  1  0.38608862  0.09571145  0.82634104  1  -0.108289  0  -0.014455  -0.026072  0  3.965003  0
C  C232  1  0.42524617  0.88038024  0.36315899  1  0.056662  0  -0.08312  -0.079554  0  3.979298  0
C  C233  1  0.07475339  0.61961973  0.86315846  1  0.056653  0  -0.083149  -0.079561  0  3.979358  0
C  C234  1  0.92524613  0.61962031  0.63684026  1  0.056662  0  -0.08308  -0.079516  0  3.979145  0
C  C235  1  0.57475228  0.88037698  0.13684083  1  0.056237  0  -0.083087  -0.07954  0  3.979341  0
C  C236  1  0.57475368  0.11961921  0.63684140  1  0.056637  0  -0.083092  -0.079496  0  3.979325  0
C  C237  1  0.92524828  0.38037971  0.13684193  1  0.056628  0  -0.083156  -0.079577  0  3.979434  0
C  C238  1  0.07475372  0.38038136  0.36315947  1  0.056626  0  -0.083074  -0.079466  0  3.979312  0
C  C239  1  0.42524817  0.11961935  0.86315858  1  0.056127  0  -0.08309  -0.079543  0  3.97929  0
C  C240  1  0.38624447  0.83885944  0.38983108  1  -0.04652  0  -0.100236  -0.142658  0  3.999735  0
C  C241  1  0.11375639  0.66114092  0.88983020  1  -0.046533  0  -0.100218  -0.142577  0  3.999675  0
C  C242  1  0.88624380  0.66114152  0.61016814  1  -0.046639  0  -0.100191  -0.142539  0  3.999629  0
C  C243  1  0.61375392  0.83885672  0.11016945  1  -0.046004  0  -0.10014  -0.142415  0  3.999639  0
C  C244  1  0.61375416  0.16114090  0.61016964  1  -0.046502  0  -0.100172  -0.142555  0  3.999659  0
C  C245  1  0.88624468  0.33885941  0.11016986  1  -0.046512  0  -0.100181  -0.142553  0  3.999644  0
C  C246  1  0.11375543  0.33885926  0.38983027  1  -0.046525  0  -0.100227  -0.142637  0  3.999688  0
C  C247  1  0.38624653  0.16114184  0.88982963  1  -0.045958  0  -0.100118  -0.142357  0  3.999562  0
C  C248  1  0.30712139  0.81991543  0.37980863  1  -0.042937  0  -0.019727  0.080761  0  3.954569  0
C  C249  1  0.19287823  0.68008495  0.87980747  1  -0.042975  0  -0.019774  0.080531  0  3.954668  0
C  C250  1  0.80712138  0.68008591  0.62019151  1  -0.042995  0  -0.019778  0.080548  0  3.954783  0
C  C251  1  0.69287698  0.81991319  0.12019126  1  -0.04307  0  -0.019884  0.080435  0  3.954885  0
C  C252  1  0.69287785  0.18008490  0.62019176  1  -0.042922  0  -0.019797  0.08061  0  3.954628  0
C  C253  1  0.80712162  0.31991538  0.12019226  1  -0.042991  0  -0.019802  0.080586  0  3.954595  0
C  C254  1  0.19287785  0.31991487  0.37980789  1  -0.042958  0  -0.019791  0.080572  0  3.954677  0
C  C255  1  0.30712408  0.18008536  0.87980749  1  -0.043053  0  -0.019848  0.080412  0  3.954779  0
C  C256  1  0.26763475  0.84433974  0.34300752  1  -0.017682  0  -0.092425  -0.132311  0  3.980449  0
C  C257  1  0.23236597  0.65566072  0.84300773  1  -0.017702  0  -0.092362  -0.132152  0  3.980354  0
C  C258  1  0.76763543  0.65566201  0.65699193  1  -0.017688  0  -0.092392  -0.132177  0  3.980402  0
C  C259  1  0.73236426  0.84433790  0.15699169  1  -0.017725  0  -0.092409  -0.132268  0  3.98046  0
C  C260  1  0.73236449  0.15566104  0.65699222  1  -0.017656  0  -0.092381  -0.1322  0  3.980387  0
C  C261  1  0.76763509  0.34433917  0.15699233  1  -0.017678  0  -0.092424  -0.132282  0  3.980424  0
C  C262  1  0.23236503  0.34433921  0.34300780  1  -0.01766  0  -0.092373  -0.132149  0  3.980325  0
C  C263  1  0.26763619  0.15566155  0.84300772  1  -0.017681  0  -0.09239  -0.132191  0  3.980437  0
C  C264  1  0.30665168  0.88599308  0.31653149  1  0.002611  0  -0.080359  -0.081158  0  3.966509  0
C  C265  1  0.19334836  0.61400655  0.81653074  1  0.002618  0  -0.080374  -0.081198  0  3.966523  0
C  C266  1  0.80665237  0.61400782  0.68346865  1  0.002639  0  -0.080338  -0.081173  0  3.966447  0
C  C267  1  0.69334800  0.88599159  0.18346865  1  0.00263  0  -0.080315  -0.081098  0  3.966406  0
C  C268  1  0.69334756  0.11400637  0.68346956  1  0.002632  0  -0.080314  -0.081071  0  3.966376  0
C  C269  1  0.80665331  0.38599290  0.18346965  1  0.002686  0  -0.080342  -0.081132  0  3.966377  0
C  C270  1  0.19334686  0.38599385  0.31653076  1  0.002656  0  -0.080327  -0.081134  0  3.966356  0
C  C271  1  0.30665306  0.11400741  0.81653108  1  0.002643  0  -0.080347  -0.081145  0  3.966371  0
C  C272  1  0.08104827  0.61068029  0.29436953  1  1.580237  0  0.215393  0.592365  0  4.177083  0
C  C273  1  0.41895353  0.88931983  0.79436995  1  1.580098  0  0.215415  0.592397  0  4.177132  0
C  C274  1  0.58104577  0.88931955  0.70562977  1  1.58006  0  0.215412  0.592381  0  4.177301  0
C  C275  1  0.91895162  0.61067982  0.20562996  1  1.580228  0  0.215401  0.592371  0  4.177088  0
C  C276  1  0.91895157  0.38931960  0.70563120  1  1.580195  0  0.215427  0.592525  0  4.176951  0
C  C277  1  0.58104875  0.11067961  0.20563077  1  1.580245  0  0.21536  0.592413  0  4.177144  0
C  C278  1  0.41895163  0.11067857  0.29437029  1  1.5801  0  0.215426  0.59248  0  4.177173  0
C  C279  1  0.08104518  0.38932096  0.79437142  1  1.580079  0  0.215503  0.592635  0  4.177258  0
C  C280  1  0.12538998  0.65353397  0.32364499  1  -0.063476  0  -0.01423  -0.02533  0  3.964099  0
C  C281  1  0.37461129  0.84646565  0.82364477  1  -0.063452  0  -0.014263  -0.025348  0  3.964061  0
C  C282  1  0.62538612  0.84646546  0.67635336  1  -0.063409  0  -0.014228  -0.025209  0  3.964148  0
C  C283  1  0.87460997  0.65353353  0.17635478  1  -0.063462  0  -0.014209  -0.025275  0  3.964044  0
C  C284  1  0.87461108  0.34646503  0.67635574  1  -0.063381  0  -0.014255  -0.025394  0  3.964031  0
C  C285  1  0.62538916  0.15353424  0.17635497  1  -0.063447  0  -0.014272  -0.025381  0  3.964087  0
C  C286  1  0.37461068  0.15353354  0.32364539  1  -0.063409  0  -0.014258  -0.025373  0  3.964089  0
C  C287  1  0.12538744  0.34646592  0.82364627  1  -0.063422  0  -0.014234  -0.025405  0  3.964254  0
C  C288  1  0.08765541  0.67671510  0.36111580  1  0.009902  0  -0.080301  -0.076444  0  3.965498  0
C  C289  1  0.41234537  0.82328487  0.86111597  1  0.009915  0  -0.0803  -0.076408  0  3.9654  0
C  C290  1  0.58765445  0.82328474  0.63888152  1  0.009924  0  -0.080267  -0.076393  0  3.965492  0
C  C291  1  0.91234397  0.67671522  0.13888360  1  0.009935  0  -0.080357  -0.076564  0  3.965508  0
C  C292  1  0.91234444  0.32328523  0.63888459  1  0.00984  0  -0.080303  -0.076404  0  3.965386  0
C  C293  1  0.58765508  0.17671457  0.13888344  1  0.009915  0  -0.080342  -0.076529  0  3.965431  0
C  C294  1  0.41234479  0.17671515  0.36111657  1  0.009891  0  -0.080282  -0.0764  0  3.965373  0
C  C295  1  0.08765526  0.32328467  0.86111810  1  0.009936  0  -0.080324  -0.076443  0  3.965508  0
C  C296  1  0.12920775  0.71583949  0.38868889  1  -0.074474  0  -0.100048  -0.142655  0  3.997338  0
C  C297  1  0.37079311  0.78416087  0.88868940  1  -0.074501  0  -0.10005  -0.142646  0  3.997401  0
C  C298  1  0.62920726  0.78416082  0.61130913  1  -0.074668  0  -0.099997  -0.142634  0  3.997365  0
C  C299  1  0.87079229  0.71583874  0.11131046  1  -0.074523  0  -0.099978  -0.142528  0  3.997287  0
C  C300  1  0.87079209  0.28416129  0.61131084  1  -0.074479  0  -0.100032  -0.142623  0  3.997334  0
C  C301  1  0.62920735  0.21583902  0.11131033  1  -0.07451  0  -0.099937  -0.142446  0  3.997303  0
C  C302  1  0.37079197  0.21583996  0.38868896  1  -0.074481  0  -0.100012  -0.14256  0  3.997383  0
C  C303  1  0.12920999  0.28416070  0.88869059  1  -0.074341  0  -0.100019  -0.142633  0  3.997373  0
C  C304  1  0.20935176  0.73280080  0.37906980  1  -0.013718  0  -0.018977  0.082053  0  3.9556  0
C  C305  1  0.29064846  0.76719914  0.87906993  1  -0.013723  0  -0.018973  0.082006  0  3.955679  0
C  C306  1  0.70935128  0.76720003  0.62092895  1  -0.013724  0  -0.01895  0.082056  0  3.955737  0
C  C307  1  0.79064770  0.73280041  0.12092954  1  -0.013736  0  -0.019025  0.081995  0  3.955634  0
C  C308  1  0.79064686  0.26719954  0.62092994  1  -0.013707  0  -0.018974  0.081966  0  3.955603  0
C  C309  1  0.70935139  0.23280075  0.12092980  1  -0.013707  0  -0.019061  0.081889  0  3.955668  0
C  C310  1  0.29064795  0.23280031  0.37906980  1  -0.013717  0  -0.018994  0.081952  0  3.955702  0
C  C311  1  0.20935337  0.26719992  0.87907052  1  -0.013701  0  -0.018982  0.082011  0  3.95561  0
C  C312  1  0.24716005  0.70923094  0.34146707  1  -0.064113  0  -0.094396  -0.133559  0  3.988696  0
C  C313  1  0.25284189  0.79076863  0.84146681  1  -0.064082  0  -0.09443  -0.133556  0  3.988705  0
C  C314  1  0.74715727  0.79076946  0.65853237  1  -0.06368  0  -0.09441  -0.133453  0  3.988655  0
C  C315  1  0.75284120  0.70923089  0.15853263  1  -0.064077  0  -0.094401  -0.133525  0  3.988651  0
C  C316  1  0.75284102  0.29076850  0.65853332  1  -0.064063  0  -0.094405  -0.133507  0  3.988598  0
C  C317  1  0.74715856  0.20923126  0.15853292  1  -0.064077  0  -0.094407  -0.133533  0  3.988659  0
C  C318  1  0.25284014  0.20922998  0.34146704  1  -0.063736  0  -0.094403  -0.133494  0  3.988582  0
C  C319  1  0.24715925  0.29077033  0.84146711  1  -0.064075  0  -0.094455  -0.133582  0  3.988656  0
C  C320  1  0.20562537  0.67014658  0.31408148  1  0.013118  0  -0.082863  -0.082617  0  3.980024  0
C  C321  1  0.29437588  0.82985261  0.81408089  1  0.013123  0  -0.082831  -0.082599  0  3.980016  0
C  C322  1  0.70562151  0.82985335  0.68591792  1  0.012792  0  -0.082906  -0.08282  0  3.980201  0
C  C323  1  0.79437461  0.67014695  0.18591892  1  0.01312  0  -0.082849  -0.0826  0  3.979996  0
C  C324  1  0.79437508  0.32985242  0.68591957  1  0.013118  0  -0.082836  -0.08258  0  3.979903  0
C  C325  1  0.70562397  0.17014728  0.18591852  1  0.013116  0  -0.082825  -0.082593  0  3.97998  0
C  C326  1  0.29437468  0.17014521  0.31408182  1  0.012678  0  -0.082861  -0.082634  0  3.98006  0
C  C327  1  0.20562219  0.32985383  0.81408148  1  0.013047  0  -0.082817  -0.082597  0  3.980069  0
C  C328  1  0.25988379  0.77493397  0.40827947  1  0.054376  0  -0.010175  -0.27054  0  3.84439  0
C  C329  1  0.24011712  0.72506635  0.90827928  1  0.054431  0  -0.01021  -0.270485  0  3.844197  0
C  C330  1  0.75988438  0.72506689  0.59171998  1  0.054437  0  -0.010233  -0.270643  0  3.844439  0
C  C331  1  0.74011633  0.77493272  0.09172015  1  0.054414  0  -0.010241  -0.270684  0  3.844354  0
C  C332  1  0.74011544  0.22506592  0.59172027  1  0.054391  0  -0.010198  -0.270649  0  3.844428  0
C  C333  1  0.75988334  0.27493488  0.09172045  1  0.054523  0  -0.010164  -0.270459  0  3.844183  0
C  C334  1  0.24011607  0.27493344  0.40827943  1  0.054431  0  -0.010222  -0.270607  0  3.844352  0
C  C335  1  0.25988656  0.22506539  0.90827991  1  0.054471  0  -0.010198  -0.270532  0  3.844365  0
C  C336  1  0.31729322  0.73430361  0.43629737  1  1.707167  0  0.30055  0.682286  0  3.962361  0
C  C337  1  0.18270716  0.76569620  0.93629741  1  1.707143  0  0.300557  0.682262  0  3.962416  0
C  C338  1  0.81729379  0.76569685  0.56370147  1  1.706903  0  0.300557  0.682346  0  3.962507  0
C  C339  1  0.68270746  0.73430238  0.06370197  1  1.707126  0  0.300587  0.682472  0  3.962216  0
C  C340  1  0.68270662  0.26569717  0.56370236  1  1.707158  0  0.300592  0.682398  0  3.96229  0
C  C341  1  0.81729390  0.23430413  0.06370265  1  1.706759  0  0.300496  0.682238  0  3.962488  0
C  C342  1  0.18270606  0.23430348  0.43629794  1  1.707131  0  0.300583  0.682379  0  3.962327  0
C  C343  1  0.31729726  0.26569618  0.93629744  1  1.707043  0  0.300552  0.682271  0  3.962562  0
C  C344  1  0.20596070  0.81247409  0.44017308  1  1.712757  0  0.302375  0.681572  0  3.964038  0
C  C345  1  0.29403848  0.68752482  0.94017266  1  1.712969  0  0.302405  0.681715  0  3.963938  0
C  C346  1  0.70596114  0.68752539  0.55982665  1  1.71283  0  0.302361  0.681652  0  3.963907  0
C  C347  1  0.79403888  0.81247429  0.05982682  1  1.712796  0  0.302387  0.681703  0  3.963877  0
C  C348  1  0.79403915  0.18752580  0.55982665  1  1.712757  0  0.302388  0.681706  0  3.963873  0
C  C349  1  0.70596014  0.31247462  0.05982675  1  1.712837  0  0.302374  0.681684  0  3.963931  0
C  C350  1  0.29403871  0.31247494  0.44017309  1  1.712919  0  0.302392  0.681701  0  3.963955  0
C  C351  1  0.20596462  0.18752560  0.94017324  1  1.712885  0  0.302493  0.681812  0  3.963854  0
N  N352  1  0.15918364  0.52901502  0.17393669  1  -1.240396  0  -0.315746  -0.197741  0  3.50817  0
N  N353  1  0.34081598  0.97098448  0.67393663  1  -1.240379  0  -0.315688  -0.197542  0  3.507951  0
N  N354  1  0.65918283  0.97098488  0.82606332  1  -1.240413  0  -0.315666  -0.19749  0  3.507877  0
N  N355  1  0.84081674  0.52901467  0.32606289  1  -1.24042  0  -0.315693  -0.197727  0  3.508118  0
N  N356  1  0.84081559  0.47098665  0.82606370  1  -1.24043  0  -0.31566  -0.197525  0  3.507989  0
N  N357  1  0.65918386  0.02901452  0.32606311  1  -1.24038  0  -0.31573  -0.197712  0  3.50816  0
N  N358  1  0.34081641  0.02901457  0.17393674  1  -1.240365  0  -0.315785  -0.197875  0  3.508232  0
N  N359  1  0.15918493  0.47098433  0.67393685  1  -1.240337  0  -0.315704  -0.19761  0  3.50794  0
N  N360  1  0.34923100  0.51511697  0.08189575  1  -1.159882  0  -0.229508  -0.216983  0  3.539148  0
N  N361  1  0.15076592  0.98488583  0.58189682  1  -1.159945  0  -0.229494  -0.216951  0  3.538962  0
N  N362  1  0.84923352  0.98488485  0.91810279  1  -1.159915  0  -0.229486  -0.217  0  3.53905  0
N  N363  1  0.65076936  0.51511672  0.41810549  1  -1.159939  0  -0.2296  -0.217092  0  3.5391  0
N  N364  1  0.65076823  0.48488247  0.91810497  1  -1.159899  0  -0.229538  -0.217007  0  3.53902  0
N  N365  1  0.84923393  0.01511539  0.41810259  1  -1.159928  0  -0.229474  -0.216963  0  3.539009  0
N  N366  1  0.15076815  0.01511593  0.08189695  1  -1.159891  0  -0.229448  -0.216912  0  3.539104  0
N  N367  1  0.34923597  0.48488406  0.58189753  1  -1.159969  0  -0.22942  -0.216965  0  3.538995  0
O  O368  1  0.35402263  0.41441192  0.09513020  1  -1.090685  0  -0.267603  -0.423899  0  2.066934  0
O  O369  1  0.14596325  0.08558449  0.59513339  1  -1.090685  0  -0.267629  -0.424062  0  2.067096  0
O  O370  1  0.85403367  0.08558531  0.90486663  1  -1.0907  0  -0.26764  -0.4241  0  2.066938  0
O  O371  1  0.64597271  0.41441480  0.40487083  1  -1.090698  0  -0.267494  -0.423824  0  2.067196  0
O  O372  1  0.64597112  0.58558753  0.90486789  1  -1.090641  0  -0.267529  -0.423874  0  2.066857  0
O  O373  1  0.85403416  0.91441407  0.40486569  1  -1.090729  0  -0.267665  -0.424166  0  2.066899  0
O  O374  1  0.14596678  0.91441458  0.09513343  1  -1.09065  0  -0.267652  -0.42408  0  2.066887  0
O  O375  1  0.35403444  0.58558553  0.59513351  1  -1.090764  0  -0.267619  -0.424054  0  2.066981  0
O  O376  1  0.34779344  0.61650873  0.07143673  1  -1.085939  0  -0.266453  -0.421415  0  2.07463  0
O  O377  1  0.15220650  0.88349187  0.57143760  1  -1.085867  0  -0.266469  -0.42144  0  2.074655  0
O  O378  1  0.84779523  0.88349131  0.92856114  1  -1.086108  0  -0.266419  -0.421363  0  2.074656  0
O  O379  1  0.65220525  0.61650891  0.42856274  1  -1.086132  0  -0.266457  -0.421466  0  2.074782  0
O  O380  1  0.65220763  0.38349160  0.92856465  1  -1.085936  0  -0.266424  -0.421409  0  2.074946  0
O  O381  1  0.84779456  0.11650757  0.42856016  1  -1.085905  0  -0.266455  -0.421415  0  2.074641  0
O  O382  1  0.15220583  0.11650947  0.07143925  1  -1.085956  0  -0.266417  -0.421361  0  2.07455  0
O  O383  1  0.34779460  0.38349276  0.57143864  1  -1.086075  0  -0.266497  -0.42146  0  2.074717  0
O  O384  1  0.49886725  0.96615754  0.31085039  1  -1.169091  0  -0.316518  -0.555381  0  2.358129  0
O  O385  1  0.00113399  0.53384210  0.81084957  1  -1.16905  0  -0.316547  -0.555399  0  2.357977  0
O  O386  1  0.99886601  0.53384217  0.68914926  1  -1.169064  0  -0.31648  -0.555317  0  2.358004  0
O  O387  1  0.50113377  0.96615722  0.18914835  1  -1.169088  0  -0.316494  -0.55531  0  2.358105  0
O  O388  1  0.50113382  0.03384102  0.68915034  1  -1.169042  0  -0.316509  -0.555343  0  2.358069  0
O  O389  1  0.99886585  0.46615912  0.18914951  1  -1.169095  0  -0.316463  -0.555259  0  2.358167  0
O  O390  1  0.00113505  0.46615994  0.31085047  1  -1.169078  0  -0.316517  -0.555308  0  2.35807  0
O  O391  1  0.49886425  0.03384089  0.81084974  1  -1.169052  0  -0.316541  -0.555396  0  2.358093  0
O  O392  1  0.39126511  0.96749226  0.26400052  1  -1.16776  0  -0.315457  -0.54382  0  2.315115  0
O  O393  1  0.10873721  0.53250748  0.76400012  1  -1.167768  0  -0.315469  -0.543796  0  2.315174  0
O  O394  1  0.89126401  0.53250692  0.73599838  1  -1.167754  0  -0.315466  -0.543792  0  2.315124  0
O  O395  1  0.60873530  0.96749193  0.23599822  1  -1.167693  0  -0.315435  -0.54375  0  2.315079  0
O  O396  1  0.60873656  0.03250674  0.73599988  1  -1.167788  0  -0.315468  -0.543753  0  2.315161  0
O  O397  1  0.89126446  0.46749285  0.23600028  1  -1.167776  0  -0.315473  -0.543789  0  2.315182  0
O  O398  1  0.10873583  0.46749297  0.26399971  1  -1.167812  0  -0.315494  -0.543805  0  2.315049  0
O  O399  1  0.39126150  0.03250618  0.76400020  1  -1.167798  0  -0.315507  -0.543898  0  2.315069  0
O  O400  1  0.11788860  0.59422032  0.25950604  1  -1.173138  0  -0.317948  -0.551327  0  2.338578  0
O  O401  1  0.38211127  0.90577988  0.75950510  1  -1.172993  0  -0.317951  -0.55133  0  2.338529  0
O  O402  1  0.61788623  0.90577865  0.74049296  1  -1.172886  0  -0.317877  -0.551282  0  2.338871  0
O  O403  1  0.88211065  0.59422019  0.24049445  1  -1.173146  0  -0.317974  -0.551359  0  2.338536  0
O  O404  1  0.88211246  0.40577912  0.74049435  1  -1.173167  0  -0.317955  -0.551394  0  2.338613  0
O  O405  1  0.61788979  0.09422046  0.24049431  1  -1.173175  0  -0.317903  -0.551285  0  2.338646  0
O  O406  1  0.38211057  0.09421812  0.25950678  1  -1.17295  0  -0.317944  -0.551387  0  2.338666  0
O  O407  1  0.11788675  0.40578148  0.75950759  1  -1.172865  0  -0.317915  -0.551379  0  2.338757  0
O  O408  1  0.01083485  0.59380705  0.30683841  1  -1.169045  0  -0.316002  -0.549368  0  2.324525  0
O  O409  1  0.48916394  0.90619304  0.80683854  1  -1.16907  0  -0.315995  -0.549351  0  2.324646  0
O  O410  1  0.51083112  0.90619318  0.69316017  1  -1.169144  0  -0.316069  -0.54943  0  2.324518  0
O  O411  1  0.98916319  0.59380755  0.19316143  1  -1.169026  0  -0.315971  -0.54933  0  2.324583  0
O  O412  1  0.98916499  0.40619328  0.69316199  1  -1.168981  0  -0.316003  -0.549409  0  2.324447  0
O  O413  1  0.51083590  0.09380551  0.19316185  1  -1.169051  0  -0.315998  -0.549407  0  2.324466  0
O  O414  1  0.48916568  0.09380627  0.30683858  1  -1.169098  0  -0.316039  -0.549415  0  2.324533  0
O  O415  1  0.01083361  0.40619323  0.80683995  1  -1.16913  0  -0.316106  -0.549502  0  2.324607  0
F  F416  1  0.35509251  0.76351213  0.47005031  1  -0.609987  0  -0.106113  -0.214461  0  1.29573  0
F  F417  1  0.14491163  0.73648672  0.97005101  1  -0.609993  0  -0.106136  -0.214486  0  1.295735  0
F  F418  1  0.85509172  0.73648792  0.52994856  1  -0.609777  0  -0.106136  -0.21448  0  1.295735  0
F  F419  1  0.64490882  0.76351138  0.02994866  1  -0.609999  0  -0.106138  -0.214523  0  1.295697  0
F  F420  1  0.64490794  0.23648776  0.52994877  1  -0.610011  0  -0.106154  -0.21451  0  1.295674  0
F  F421  1  0.85509492  0.26351361  0.02995102  1  -0.609678  0  -0.106088  -0.214465  0  1.295763  0
F  F422  1  0.14490934  0.26351242  0.47005118  1  -0.610018  0  -0.106144  -0.214508  0  1.295741  0
F  F423  1  0.35509711  0.23648628  0.97004943  1  -0.610004  0  -0.10609  -0.214436  0  1.295824  0
F  F424  1  0.37715081  0.71011287  0.41084216  1  -0.62489  0  -0.100985  -0.20668  0  1.297761  0
F  F425  1  0.12284767  0.78988566  0.91084311  1  -0.624851  0  -0.100971  -0.206661  0  1.297829  0
F  F426  1  0.87715149  0.78988675  0.58915640  1  -0.624849  0  -0.100975  -0.206695  0  1.297884  0
F  F427  1  0.62284983  0.71011154  0.08915655  1  -0.624804  0  -0.100955  -0.206694  0  1.297772  0
F  F428  1  0.62284781  0.28988657  0.58915692  1  -0.624874  0  -0.100984  -0.206694  0  1.297787  0
F  F429  1  0.87714974  0.21011200  0.08915762  1  -0.624832  0  -0.10096  -0.206652  0  1.297843  0
F  F430  1  0.12284836  0.21011225  0.41084399  1  -0.62481  0  -0.100947  -0.206657  0  1.297832  0
F  F431  1  0.37715428  0.28988746  0.91084252  1  -0.624908  0  -0.101033  -0.206706  0  1.297839  0
F  F432  1  0.27598704  0.68816446  0.45472967  1  -0.612967  0  -0.108134  -0.211249  0  1.299337  0
F  F433  1  0.22401279  0.81183576  0.95472870  1  -0.612962  0  -0.108122  -0.21123  0  1.299379  0
F  F434  1  0.77598823  0.81183553  0.54526913  1  -0.612998  0  -0.108092  -0.211211  0  1.299399  0
F  F435  1  0.72401357  0.68816463  0.04526973  1  -0.613021  0  -0.10814  -0.211282  0  1.299382  0
F  F436  1  0.72401158  0.31183588  0.54527040  1  -0.612977  0  -0.108105  -0.21122  0  1.29936  0
F  F437  1  0.77598767  0.18816680  0.04526873  1  -0.61297  0  -0.10811  -0.211236  0  1.299353  0
F  F438  1  0.22401283  0.18816481  0.45472994  1  -0.612975  0  -0.108129  -0.211245  0  1.299318  0
F  F439  1  0.27599115  0.31183392  0.95473100  1  -0.612919  0  -0.108093  -0.211227  0  1.29933  0
F  F440  1  0.16997681  0.77935475  0.47251643  1  -0.618291  0  -0.099462  -0.210251  0  1.310004  0
F  F441  1  0.33001942  0.72064276  0.97251731  1  -0.618512  0  -0.099447  -0.210238  0  1.310019  0
F  F442  1  0.66997660  0.72064382  0.52748261  1  -0.618465  0  -0.099445  -0.210261  0  1.309938  0
F  F443  1  0.83002333  0.77935593  0.02748351  1  -0.618437  0  -0.099465  -0.210279  0  1.309943  0
F  F444  1  0.83002243  0.22064514  0.52748363  1  -0.618285  0  -0.099477  -0.210285  0  1.309962  0
F  F445  1  0.66997616  0.27935713  0.02748374  1  -0.618433  0  -0.09943  -0.210265  0  1.310006  0
F  F446  1  0.33002142  0.27935696  0.47251680  1  -0.618507  0  -0.099437  -0.210241  0  1.309993  0
F  F447  1  0.16998200  0.22064396  0.97251820  1  -0.61852  0  -0.099481  -0.210256  0  1.30991  0
F  F448  1  0.14489324  0.84041952  0.41775836  1  -0.622171  0  -0.098204  -0.207067  0  1.311477  0
F  F449  1  0.35510770  0.65958166  0.91775769  1  -0.622093  0  -0.09823  -0.207121  0  1.311425  0
F  F450  1  0.64489310  0.65958125  0.58224197  1  -0.622073  0  -0.098197  -0.207082  0  1.311453  0
F  F451  1  0.85510698  0.84041838  0.08224282  1  -0.622057  0  -0.09823  -0.207116  0  1.31142  0
F  F452  1  0.85510661  0.15958125  0.58224203  1  -0.62216  0  -0.09819  -0.20708  0  1.311429  0
F  F453  1  0.64489214  0.34041867  0.08224303  1  -0.622084  0  -0.098228  -0.207121  0  1.311388  0
F  F454  1  0.35510675  0.34041997  0.41775776  1  -0.622099  0  -0.098226  -0.207115  0  1.311457  0
F  F455  1  0.14489347  0.15958284  0.91775856  1  -0.621993  0  -0.098295  -0.207203  0  1.311367  0
F  F456  1  0.24948307  0.85567647  0.46077452  1  -0.612288  0  -0.10459  -0.206325  0  1.305368  0
F  F457  1  0.25051678  0.64432107  0.96077214  1  -0.612357  0  -0.104594  -0.206398  0  1.305359  0
F  F458  1  0.74948278  0.64432305  0.53922590  1  -0.612304  0  -0.104589  -0.206343  0  1.30537  0
F  F459  1  0.75051840  0.85567712  0.03922631  1  -0.612279  0  -0.104561  -0.206335  0  1.30538  0
F  F460  1  0.75051739  0.14432298  0.53922554  1  -0.612299  0  -0.104594  -0.20636  0  1.305348  0
F  F461  1  0.74948002  0.35567793  0.03922595  1  -0.612343  0  -0.104575  -0.206344  0  1.305409  0
F  F462  1  0.25051585  0.35567862  0.46077285  1  -0.612313  0  -0.104599  -0.206379  0  1.305326  0
F  F463  1  0.24948510  0.14432144  0.96077309  1  -0.612341  0  -0.104607  -0.206403  0  1.305411  0
