# generated using pymatgen
data_CuH14C16N6O5F2
_symmetry_space_group_name_H-M   'P 1'
_cell_length_a   8.65046824
_cell_length_b   21.61652943
_cell_length_c   21.61710040
_cell_angle_alpha   87.68539720
_cell_angle_beta   78.45863368
_cell_angle_gamma   78.44944152
_symmetry_Int_Tables_number   1
_chemical_formula_structural   CuH14C16N6O5F2
_chemical_formula_sum   'Cu8 H112 C128 N48 O40 F16'
_cell_volume   3880.30941833
_cell_formula_units_Z   8
loop_
 _symmetry_equiv_pos_site_id
 _symmetry_equiv_pos_as_xyz
  1  'x, y, z'
loop_
 _atom_site_type_symbol
 _atom_site_label
 _atom_site_symmetry_multiplicity
 _atom_site_fract_x
 _atom_site_fract_y
 _atom_site_fract_z
 _atom_site_occupancy
 _atom_site_pbe_bader_charge
 _atom_site_pbe_bader_spin_density
 _atom_site_pbe_cm5_charge
 _atom_site_pbe_ddec_charge
 _atom_site_pbe_ddec_spin_density
 _atom_site_pbe_ddec_sum_bond_order
 _atom_site_pbe_magmom
Cu  Cu0  1  0.82770264  0.86992552  0.33989444  1  1.091873  0.594556  0.729119  0.809901  0.747702  2.31328  0.593
Cu  Cu1  1  0.03786216  0.63005067  0.16008746  1  1.094797  0.594855  0.729926  0.810688  0.748408  2.315567  0.593
Cu  Cu2  1  0.19771357  0.33985177  0.63007232  1  1.093913  0.594832  0.729897  0.810582  0.747727  2.31307  0.593
Cu  Cu3  1  0.16748498  0.16011983  0.86992588  1  1.09258  0.594878  0.730414  0.810666  0.747889  2.314803  0.593
Cu  Cu4  1  0.17229489  0.13007298  0.66010522  1  1.09166  0.59455  0.729142  0.809999  0.747696  2.313176  0.593
Cu  Cu5  1  0.96213002  0.36994925  0.83991330  1  1.094782  0.594852  0.729955  0.810714  0.748403  2.315539  0.593
Cu  Cu6  1  0.80227892  0.66014721  0.36992743  1  1.093805  0.594825  0.729911  0.810653  0.747712  2.313018  0.593
Cu  Cu7  1  0.83250312  0.83988292  0.13007164  1  1.092536  0.594876  0.73048  0.810724  0.747881  2.314926  0.593
H  H8  1  0.74807751  0.02253981  0.59045103  1  0.657479  -5.6e-05  0.287327  0.342848  -8.1e-05  1.00787  0.0
H  H9  1  0.36118632  0.47747607  0.90963972  1  0.661275  -5.6e-05  0.287388  0.342832  -8.1e-05  1.007792  0.0
H  H10  1  0.27077169  0.59028142  0.47751840  1  0.658677  -5.6e-05  0.287663  0.34372  -8.1e-05  1.006857  0.0
H  H11  1  0.33877885  0.90980958  0.02262454  1  0.65567  -5.6e-05  0.287183  0.343647  -8.1e-05  1.007973  0.0
H  H12  1  0.25192233  0.97746246  0.40955151  1  0.657055  -5.6e-05  0.287328  0.34289  -8.1e-05  1.007845  0.0
H  H13  1  0.63881616  0.52252337  0.09036042  1  0.661272  -5.6e-05  0.287316  0.342699  -8.1e-05  1.008004  0.0
H  H14  1  0.72922652  0.40972039  0.52248247  1  0.65872  -5.6e-05  0.28766  0.343701  -8.1e-05  1.00689  0.0
H  H15  1  0.66122070  0.09018798  0.97737476  1  0.655676  -5.6e-05  0.287164  0.343612  -8.1e-05  1.008045  0.0
H  H16  1  0.89139658  0.75357444  0.44196502  1  0.123387  -0.000392  0.125332  0.083536  -0.000647  1.053155  0.0
H  H17  1  0.08695701  0.74640073  0.05806831  1  0.157389  -0.000392  0.125048  0.082855  -0.00065  1.054185  0.0
H  H18  1  0.14525194  0.44181225  0.74655308  1  0.13897  -0.000392  0.12522  0.083444  -0.00065  1.053981  0.0
H  H19  1  0.33310244  0.05807615  0.75351631  1  0.151315  -0.000392  0.125233  0.083213  -0.000652  1.054491  0.0
H  H20  1  0.10860680  0.24642690  0.55803326  1  0.123347  -0.000392  0.125259  0.083418  -0.000647  1.0532  0.0
H  H21  1  0.91304435  0.25359636  0.94193414  1  0.157323  -0.000392  0.125073  0.08288  -0.00065  1.054079  0.0
H  H22  1  0.85475203  0.55818672  0.25344817  1  0.138983  -0.000392  0.12522  0.08346  -0.00065  1.053964  0.0
H  H23  1  0.66689438  0.94192376  0.24648335  1  0.151379  -0.000392  0.125228  0.083184  -0.000652  1.054425  0.0
H  H24  1  0.97823128  0.93631207  0.45747237  1  0.191008  -5e-06  0.140908  0.120526  -3.4e-05  0.996327  0.0
H  H25  1  0.37194547  0.56362507  0.04243487  1  0.195514  -5e-06  0.140962  0.120797  -3.4e-05  0.998161  0.0
H  H26  1  0.41443980  0.45744194  0.56375701  1  0.198111  -5e-06  0.140858  0.120359  -3.4e-05  0.996945  0.0
H  H27  1  0.43549976  0.04251137  0.93625252  1  0.19512  -5e-06  0.140805  0.120808  -3.4e-05  0.998104  0.0
H  H28  1  0.02176971  0.06368879  0.54252619  1  0.191044  -5e-06  0.140903  0.120531  -3.4e-05  0.99636  0.0
H  H29  1  0.62805703  0.43637248  0.95756619  1  0.19556  -5e-06  0.140989  0.120828  -3.4e-05  0.998196  0.0
H  H30  1  0.58555828  0.54255703  0.43624423  1  0.198109  -5e-06  0.140856  0.120337  -3.4e-05  0.996919  0.0
H  H31  1  0.56448590  0.95748949  0.06374722  1  0.195053  -5e-06  0.140783  0.120727  -3.4e-05  0.998106  0.0
H  H32  1  0.08473045  0.90810984  0.57375689  1  0.105377  1.1e-05  0.118171  0.113256  8e-06  0.996799  0.0
H  H33  1  0.56681340  0.59195155  0.92622104  1  0.111139  1.1e-05  0.117628  0.113334  8e-06  0.995085  0.0
H  H34  1  0.49296234  0.57368734  0.59193884  1  0.105921  1.1e-05  0.117565  0.113183  8e-06  0.996094  0.0
H  H35  1  0.65873775  0.92633500  0.90803541  1  0.099166  1.1e-05  0.117323  0.11232  8e-06  0.995093  0.0
H  H36  1  0.91527248  0.09189150  0.42624185  1  0.105366  1.1e-05  0.118202  0.11331  8e-06  0.996784  0.0
H  H37  1  0.43319026  0.40804836  0.07378123  1  0.11111  1.1e-05  0.117648  0.113326  8e-06  0.995056  0.0
H  H38  1  0.50704061  0.42631116  0.40806130  1  0.105977  1.2e-05  0.117598  0.113211  8e-06  0.996127  0.0
H  H39  1  0.34126137  0.07366775  0.09196407  1  0.099182  1.1e-05  0.117329  0.112323  8e-06  0.995094  0.0
H  H40  1  0.00609299  0.84357815  0.61258315  1  0.088679  6.1e-05  0.121726  0.120279  4.8e-05  0.980496  0.0
H  H41  1  0.46222844  0.65643349  0.88739018  1  0.131305  5.9e-05  0.121821  0.12021  4.8e-05  0.981164  0.0
H  H42  1  0.34968445  0.61250439  0.65642019  1  0.078753  6.2e-05  0.121465  0.119798  4.8e-05  0.980666  0.0
H  H43  1  0.61855929  0.88741766  0.84366372  1  0.088694  6.1e-05  0.121428  0.119581  4.8e-05  0.981352  0.0
H  H44  1  0.99390955  0.15642272  0.38741503  1  0.088627  6.1e-05  0.121699  0.12027  4.8e-05  0.980504  0.0
H  H45  1  0.53777437  0.34356596  0.11261199  1  0.131224  5.9e-05  0.121809  0.120187  4.8e-05  0.981124  0.0
H  H46  1  0.65031913  0.38749411  0.34358050  1  0.078754  6.2e-05  0.121466  0.119819  4.8e-05  0.980615  0.0
H  H47  1  0.38144293  0.11258509  0.15633502  1  0.088622  6.1e-05  0.121436  0.119599  4.8e-05  0.981322  0.0
H  H48  1  0.71629296  0.97843896  0.69778222  1  0.108408  3.9e-05  0.119346  0.120403  -2e-06  0.989699  0.0
H  H49  1  0.39204700  0.52152374  0.80235966  1  0.10168  3.7e-05  0.119635  0.120598  -3e-06  0.990018  0.0
H  H50  1  0.19457027  0.69753571  0.52143891  1  0.094265  3.9e-05  0.118117  0.117942  -2e-06  0.99019  0.0
H  H51  1  0.41364056  0.80245282  0.97866369  1  0.115086  3.8e-05  0.11894  0.119941  -2e-06  0.989941  0.0
H  H52  1  0.28371123  0.02156049  0.30221856  1  0.108339  3.9e-05  0.119329  0.12036  -2e-06  0.989748  0.0
H  H53  1  0.60795364  0.47847570  0.19764232  1  0.101545  3.7e-05  0.11963  0.120626  -3e-06  0.989986  0.0
H  H54  1  0.80543400  0.30246515  0.47856345  1  0.094151  3.9e-05  0.118085  0.117889  -2e-06  0.990268  0.0
H  H55  1  0.58636253  0.19754662  0.02133347  1  0.115006  3.8e-05  0.118926  0.119937  -2e-06  0.989883  0.0
H  H56  1  0.83934247  0.90370001  0.70650915  1  0.125482  0.000171  0.116065  0.119183  0.000104  1.009173  0.0
H  H57  1  0.44898419  0.59626725  0.79348720  1  0.138047  0.000171  0.116329  0.119825  0.000106  1.008807  0.0
H  H58  1  0.24260237  0.70639908  0.59618997  1  0.138178  0.000171  0.115674  0.117751  0.000104  1.010239  0.0
H  H59  1  0.54521512  0.79362044  0.90390166  1  0.131749  0.00017  0.116055  0.118802  0.000104  1.00967  0.0
H  H60  1  0.16065855  0.09629802  0.29349080  1  0.125546  0.000171  0.116072  0.119214  0.000104  1.009187  0.0
H  H61  1  0.55101583  0.40373219  0.20651423  1  0.138012  0.000171  0.11631  0.119812  0.000106  1.008792  0.0
H  H62  1  0.75740354  0.29360036  0.40381147  1  0.138199  0.000171  0.115696  0.117791  0.000104  1.010183  0.0
H  H63  1  0.45478625  0.20637995  0.09609439  1  0.131834  0.00017  0.116023  0.118705  0.000104  1.009815  0.0
H  H64  1  0.85718971  0.07531727  0.67585286  1  0.230945  0.000433  0.145681  0.132208  0.000216  1.018511  0.0
H  H65  1  0.60806184  0.42470968  0.82430774  1  0.218679  0.000439  0.146583  0.13309  0.000216  1.016946  0.0
H  H66  1  0.43242387  0.67586654  0.42464665  1  0.230858  0.000438  0.145586  0.130798  0.000216  1.018643  0.0
H  H67  1  0.53316720  0.82414913  0.07542069  1  0.245952  0.000434  0.14653  0.132756  0.000215  1.018189  0.0
H  H68  1  0.14281177  0.92468076  0.32414662  1  0.230932  0.000433  0.145711  0.132276  0.000216  1.018519  0.0
H  H69  1  0.39193940  0.57528977  0.17569128  1  0.218706  0.000439  0.146596  0.133069  0.000216  1.016958  0.0
H  H70  1  0.56757094  0.32413338  0.57535384  1  0.230882  0.000437  0.145614  0.130841  0.000216  1.018646  0.0
H  H71  1  0.46683107  0.17585126  0.92457610  1  0.245802  0.000434  0.146508  0.132731  0.000215  1.018239  0.0
H  H72  1  0.33104362  0.97612496  0.67279579  1  0.11916  0.000156  0.138363  0.113134  1.5e-05  0.984854  0.0
H  H73  1  0.97959291  0.52396346  0.82714972  1  0.160994  0.000153  0.138109  0.113643  1.5e-05  0.983027  0.0
H  H74  1  0.80685369  0.67284022  0.52394207  1  0.158473  0.000153  0.137726  0.112513  1.5e-05  0.984502  0.0
H  H75  1  0.00384343  0.82704832  0.97603372  1  0.12799  0.000154  0.138289  0.112572  1.4e-05  0.98478  0.0
H  H76  1  0.66895841  0.02387449  0.32720481  1  0.119217  0.000156  0.138357  0.113135  1.5e-05  0.984835  0.0
H  H77  1  0.02041074  0.47603552  0.17284948  1  0.161016  0.000153  0.138124  0.113647  1.5e-05  0.982993  0.0
H  H78  1  0.19315566  0.32715876  0.47605261  1  0.158494  0.000152  0.137754  0.112599  1.5e-05  0.984404  0.0
H  H79  1  0.99616084  0.17295065  0.02396604  1  0.128016  0.000154  0.138261  0.112586  1.4e-05  0.984771  0.0
H  H80  1  0.49944186  0.77693267  0.66050569  1  0.124848  2.3e-05  0.120237  0.165675  2.1e-05  0.972301  0.0
H  H81  1  0.93692759  0.72295930  0.83967545  1  0.132859  2.3e-05  0.120118  0.165565  2.1e-05  0.972704  0.0
H  H82  1  0.77617050  0.66042908  0.72280715  1  0.095643  2.4e-05  0.1202  0.165601  2.2e-05  0.973205  0.0
H  H83  1  0.16012139  0.83957466  0.77726247  1  0.135924  2.3e-05  0.120394  0.16577  2.1e-05  0.972427  0.0
H  H84  1  0.50056121  0.22306772  0.33949102  1  0.124439  2.3e-05  0.120224  0.165632  2.1e-05  0.972305  0.0
H  H85  1  0.06308194  0.27703968  0.16032376  1  0.132843  2.3e-05  0.120104  0.165569  2.1e-05  0.972693  0.0
H  H86  1  0.22382950  0.33957131  0.27719382  1  0.095669  2.4e-05  0.120191  0.165605  2.2e-05  0.973225  0.0
H  H87  1  0.83987564  0.16042761  0.22273580  1  0.135908  2.3e-05  0.120372  0.165742  2.1e-05  0.972409  0.0
H  H88  1  0.40067040  0.90840044  0.51094587  1  0.097004  1.6e-05  0.11067  0.141392  5e-06  0.987092  0.0
H  H89  1  0.82032777  0.59153856  0.98930451  1  0.094174  1.6e-05  0.111165  0.142192  5e-06  0.986942  0.0
H  H90  1  0.80922650  0.51071675  0.59156569  1  0.102466  1.5e-05  0.111439  0.142468  5e-06  0.98732  0.0
H  H91  1  0.91156372  0.98920733  0.90851619  1  0.100312  1.6e-05  0.111069  0.142101  5e-06  0.987043  0.0
H  H92  1  0.59933493  0.09160136  0.48905260  1  0.097076  1.6e-05  0.110687  0.141437  5e-06  0.987054  0.0
H  H93  1  0.17967594  0.40846277  0.01069581  1  0.094145  1.6e-05  0.111183  0.142227  5e-06  0.986984  0.0
H  H94  1  0.19077419  0.48928411  0.40843434  1  0.10242  1.5e-05  0.111439  0.142498  5e-06  0.987323  0.0
H  H95  1  0.08843708  0.01079212  0.09148681  1  0.100559  1.6e-05  0.111091  0.142149  5e-06  0.986919  0.0
H  H96  1  0.61810221  0.96224318  0.52957382  1  0.115772  1.9e-05  0.108797  0.114425  2e-05  1.005882  0.0
H  H97  1  0.11037552  0.53771434  0.97066053  1  0.104895  1.9e-05  0.108933  0.114314  2e-05  1.005268  0.0
H  H98  1  0.08063256  0.52929507  0.53778411  1  0.111936  1.9e-05  0.108843  0.114231  2e-05  1.005966  0.0
H  H99  1  0.14769092  0.97072230  0.96235646  1  0.11052  1.9e-05  0.108978  0.114965  2e-05  1.004687  0.0
H  H100  1  0.38190064  0.03775862  0.47042594  1  0.115842  1.9e-05  0.108748  0.114319  2e-05  1.005898  0.0
H  H101  1  0.88962744  0.46228605  0.02934220  1  0.103804  1.9e-05  0.108885  0.114305  2e-05  1.005244  0.0
H  H102  1  0.91936985  0.47070485  0.46221705  1  0.112096  1.9e-05  0.108869  0.114292  2e-05  1.006051  0.0
H  H103  1  0.85231289  0.02927573  0.03764423  1  0.110302  1.9e-05  0.108993  0.115016  2e-05  1.004611  0.0
H  H104  1  0.40652677  0.81071189  0.31347098  1  0.101476  5e-05  0.111302  0.161857  7.1e-05  0.961664  0.0
H  H105  1  0.53109899  0.68936557  0.18638282  1  0.105967  3.6e-05  0.111775  0.162654  7e-05  0.961851  0.0
H  H106  1  0.71718923  0.31357346  0.68928673  1  0.093864  4.9e-05  0.111898  0.163026  6.9e-05  0.962088  0.0
H  H107  1  0.71999633  0.18642696  0.81072268  1  0.093581  5.5e-05  0.111187  0.161912  6.9e-05  0.96235  0.0
H  H108  1  0.59346540  0.18928991  0.68653238  1  0.101514  5e-05  0.111333  0.161891  7.1e-05  0.9617  0.0
H  H109  1  0.46889106  0.31063246  0.81362220  1  0.105851  3.6e-05  0.111778  0.162683  7e-05  0.961927  0.0
H  H110  1  0.28280386  0.68642551  0.31071005  1  0.094024  4.9e-05  0.111862  0.163  7e-05  0.962184  0.0
H  H111  1  0.27999064  0.81357626  0.18927928  1  0.093057  5.5e-05  0.111181  0.161878  6.9e-05  0.962395  0.0
H  H112  1  0.56547012  0.84077933  0.26442149  1  0.155744  -0.000448  0.119001  0.171276  -0.000489  0.991925  0.0
H  H113  1  0.67085371  0.65934300  0.23552988  1  0.117665  -0.000445  0.118561  0.170674  -0.000492  0.992574  0.0
H  H114  1  0.90615515  0.26443662  0.65935461  1  0.150107  -0.000445  0.118738  0.171123  -0.00049  0.992585  0.0
H  H115  1  0.82968682  0.23554210  0.84078961  1  0.117639  -0.000443  0.118987  0.171313  -0.000491  0.9925  0.0
H  H116  1  0.43452191  0.15922153  0.73558132  1  0.155851  -0.000447  0.11898  0.171268  -0.000489  0.992134  0.0
H  H117  1  0.32914678  0.34065550  0.76447154  1  0.117715  -0.000445  0.118585  0.170749  -0.000492  0.99251  0.0
H  H118  1  0.09384388  0.73556566  0.34064283  1  0.150473  -0.000445  0.118762  0.17121  -0.00049  0.992454  0.0
H  H119  1  0.17030947  0.76445735  0.15921199  1  0.117624  -0.000443  0.119002  0.171314  -0.000491  0.992481  0.0
C  C120  1  0.91857357  0.79514001  0.46050434  1  0.984315  -0.000574  0.133697  0.144332  -0.000585  4.009126  0.0
C  C121  1  0.17429481  0.70484920  0.03950317  1  0.952347  -0.000581  0.133408  0.144416  -0.000588  4.010499  0.0
C  C122  1  0.21398590  0.46036682  0.70497670  1  0.970276  -0.000578  0.134036  0.14474  -0.000586  4.008113  0.0
C  C123  1  0.37889201  0.03952572  0.79507725  1  0.958511  -0.000577  0.133332  0.143495  -0.000587  4.009361  0.0
C  C124  1  0.08142983  0.20486038  0.53949441  1  0.983929  -0.000574  0.133819  0.1445  -0.000585  4.009181  0.0
C  C125  1  0.82570383  0.29514930  0.96050011  1  0.953501  -0.000581  0.133461  0.144472  -0.000588  4.010487  0.0
C  C126  1  0.78601760  0.53963310  0.29502454  1  0.970283  -0.000578  0.134009  0.14466  -0.000586  4.008146  0.0
C  C127  1  0.62110224  0.96047467  0.20492121  1  0.958548  -0.000577  0.133311  0.14354  -0.000587  4.009402  0.0
C  C128  1  0.96125851  0.88807470  0.46615585  1  0.971156  -0.000585  0.163446  0.107813  -0.000666  3.870118  0.0
C  C129  1  0.31552898  0.61189674  0.03380321  1  0.992096  -0.000591  0.162964  0.107896  -0.000672  3.87346  0.0
C  C130  1  0.34941120  0.46607466  0.61201978  1  0.973449  -0.000584  0.162835  0.108318  -0.000668  3.871601  0.0
C  C131  1  0.42728402  0.03386196  0.88800469  1  0.974443  -0.000584  0.162417  0.106197  -0.000669  3.875355  0.0
C  C132  1  0.03874357  0.11192617  0.53384280  1  0.970706  -0.000585  0.163452  0.107721  -0.000666  3.870067  0.0
C  C133  1  0.68446878  0.38810317  0.96619905  1  0.992103  -0.000591  0.162995  0.107921  -0.000672  3.873305  0.0
C  C134  1  0.65058981  0.53392432  0.38797970  1  0.973513  -0.000584  0.162899  0.108404  -0.000668  3.871579  0.0
C  C135  1  0.57270699  0.96613938  0.11199653  1  0.974471  -0.000584  0.1625  0.106414  -0.000669  3.875372  0.0
C  C136  1  0.98371026  0.88348285  0.58071630  1  0.328114  0.000114  -0.052287  -0.194738  9.3e-05  3.85485  0.0
C  C137  1  0.44806858  0.61653489  0.91928039  1  0.27974  0.000115  -0.051637  -0.194935  9.2e-05  3.851465  0.0
C  C138  1  0.36731346  0.58061227  0.61655407  1  0.343599  0.000112  -0.052039  -0.19488  9.3e-05  3.85497  0.0
C  C139  1  0.56452793  0.91935856  0.88350180  1  0.3355  0.00011  -0.051111  -0.192785  9.1e-05  3.850938  0.0
C  C140  1  0.01629136  0.11651802  0.41928281  1  0.328601  0.000114  -0.05227  -0.194841  9.3e-05  3.854686  0.0
C  C141  1  0.55193577  0.38346456  0.08072141  1  0.279869  0.000115  -0.051767  -0.194997  9.2e-05  3.851484  0.0
C  C142  1  0.63269275  0.41938623  0.38344634  1  0.343587  0.000112  -0.052048  -0.194949  9.3e-05  3.855022  0.0
C  C143  1  0.43547144  0.08064278  0.11649815  1  0.335531  0.00011  -0.05113  -0.192741  9.1e-05  3.850807  0.0
C  C144  1  0.82696446  0.93071023  0.60814395  1  0.546594  -2.4e-05  0.081966  0.296499  -5e-05  3.843662  0.0
C  C145  1  0.36599369  0.56925798  0.89191667  1  0.543621  -2.6e-05  0.082387  0.300162  -5.2e-05  3.84013  0.0
C  C146  1  0.25779594  0.60797200  0.56928395  1  0.532041  -2.3e-05  0.082099  0.295246  -4.9e-05  3.846149  0.0
C  C147  1  0.43523927  0.89203004  0.93086121  1  0.549028  -2.4e-05  0.081992  0.298657  -4.9e-05  3.8405  0.0
C  C148  1  0.17303708  0.06929111  0.39185618  1  0.545714  -2.4e-05  0.081958  0.29683  -4.9e-05  3.843278  0.0
C  C149  1  0.63401245  0.43074099  0.10808477  1  0.543592  -2.6e-05  0.082512  0.300256  -5.2e-05  3.840266  0.0
C  C150  1  0.74220646  0.39202886  0.43071673  1  0.532047  -2.3e-05  0.082169  0.295389  -4.9e-05  3.846084  0.0
C  C151  1  0.56476390  0.10796988  0.06913800  1  0.549145  -2.4e-05  0.081993  0.298443  -4.9e-05  3.840725  0.0
C  C152  1  0.82855603  0.94629960  0.67748696  1  0.279778  0.000683  -0.052863  -0.212271  0.000474  3.85121  0.001
C  C153  1  0.45201988  0.55368536  0.82253810  1  0.283804  0.000681  -0.053259  -0.214933  0.000474  3.854912  0.001
C  C154  1  0.27466638  0.67734190  0.55363336  1  0.290771  0.000679  -0.050633  -0.20663  0.000474  3.850906  0.001
C  C155  1  0.50574433  0.82263723  0.94648116  1  0.26499  0.000684  -0.051712  -0.211573  0.000474  3.852311  0.001
C  C156  1  0.17144754  0.05369985  0.32251326  1  0.279829  0.000683  -0.052842  -0.212351  0.000474  3.851241  0.001
C  C157  1  0.54798191  0.44631456  0.17746249  1  0.28391  0.000681  -0.053294  -0.21501  0.000474  3.855015  0.001
C  C158  1  0.72533727  0.32265896  0.44636845  1  0.291178  0.000679  -0.050576  -0.206567  0.000474  3.850722  0.001
C  C159  1  0.49425937  0.17736316  0.05351610  1  0.265009  0.000684  -0.051614  -0.211409  0.000474  3.852372  0.001
C  C160  1  0.96221586  0.03862898  0.67777037  1  0.955843  -0.001106  0.165341  0.09349  -0.001647  3.853669  0.0
C  C161  1  0.67830068  0.46140454  0.82230543  1  0.989195  -0.001181  0.165668  0.094254  -0.001682  3.855611  0.0
C  C162  1  0.50070212  0.67776386  0.46135412  1  0.962513  -0.001062  0.16658  0.096918  -0.001654  3.854596  0.0
C  C163  1  0.64003182  0.82220880  0.03870467  1  0.954633  -0.001139  0.1664  0.095877  -0.001667  3.855983  0.0
C  C164  1  0.03778561  0.96136999  0.32222865  1  0.955855  -0.001106  0.165307  0.09339  -0.001647  3.85367  0.0
C  C165  1  0.32169809  0.53859491  0.17769488  1  0.989191  -0.001181  0.165655  0.09438  -0.001682  3.855764  0.0
C  C166  1  0.49929889  0.32223511  0.53864537  1  0.962516  -0.001062  0.166593  0.096889  -0.001655  3.854569  0.0
C  C167  1  0.35996661  0.17779159  0.96129314  1  0.955285  -0.001139  0.166423  0.095879  -0.001666  3.855911  0.0
C  C168  1  0.20201585  0.98657119  0.67541216  1  1.010168  0.00017  0.150524  0.151884  7.1e-05  3.965511  0.001
C  C169  1  0.86365274  0.51348914  0.82455422  1  0.968567  0.000168  0.150157  0.152047  8e-05  3.9657  0.001
C  C170  1  0.68831264  0.67542135  0.51345676  1  0.963256  0.000174  0.150066  0.150938  7.6e-05  3.966422  0.001
C  C171  1  0.87739330  0.82447905  0.98655322  1  0.995988  0.000196  0.150006  0.153335  8e-05  3.967387  0.001
C  C172  1  0.79799035  0.01342825  0.32458779  1  1.010204  0.00017  0.150492  0.151782  7.2e-05  3.965614  0.001
C  C173  1  0.13634912  0.48651031  0.17544536  1  0.968613  0.000167  0.150151  0.152151  8e-05  3.965535  0.001
C  C174  1  0.31169377  0.32457762  0.48653967  1  0.962913  0.000175  0.14998  0.150786  7.7e-05  3.966465  0.001
C  C175  1  0.12260531  0.17552039  0.01344607  1  0.996053  0.000195  0.15001  0.153241  8e-05  3.967196  0.001
C  C176  1  0.68143710  0.90130032  0.60480388  1  0.028605  7.6e-05  -0.032697  -0.132607  5.4e-05  3.942596  0.0
C  C177  1  0.18770205  0.59865018  0.89537759  1  0.023994  7.5e-05  -0.032203  -0.132909  5.3e-05  3.945584  0.0
C  C178  1  0.08288432  0.60456374  0.59866605  1  0.012417  7.6e-05  -0.031269  -0.130581  5.4e-05  3.945023  0.0
C  C179  1  0.28624623  0.89543004  0.90152507  1  -0.011526  7.7e-05  -0.03234  -0.132772  5.4e-05  3.946202  0.0
C  C180  1  0.31856382  0.09870102  0.39519569  1  0.028991  7.7e-05  -0.032674  -0.13266  5.4e-05  3.942491  0.0
C  C181  1  0.81230447  0.40134927  0.10462440  1  0.02399  7.4e-05  -0.032237  -0.132863  5.3e-05  3.94561  0.0
C  C182  1  0.91712002  0.39543664  0.40133530  1  0.012288  7.6e-05  -0.031283  -0.130588  5.4e-05  3.945082  0.0
C  C183  1  0.71375742  0.10456893  0.09847414  1  -0.011568  7.7e-05  -0.032324  -0.132561  5.4e-05  3.945994  0.0
C  C184  1  0.64445672  0.84868590  0.64025488  1  0.397032  1.2e-05  0.100999  0.281552  7e-06  4.031263  0.0
C  C185  1  0.13348945  0.65126355  0.85993951  1  0.371036  1.2e-05  0.101579  0.283005  6e-06  4.030812  0.0
C  C186  1  0.99316691  0.64004443  0.65121898  1  0.405231  1.2e-05  0.101443  0.282216  7e-06  4.03191  0.0
C  C187  1  0.28475734  0.85993727  0.84896085  1  0.408778  1.2e-05  0.101764  0.282524  7e-06  4.031179  0.0
C  C188  1  0.35554427  0.15131496  0.35974368  1  0.39668  1.2e-05  0.101  0.281556  7e-06  4.031385  0.0
C  C189  1  0.86652063  0.34873590  0.14006128  1  0.37103  1.2e-05  0.101667  0.283056  7e-06  4.030765  0.0
C  C190  1  0.00683528  0.35995502  0.34878264  1  0.405003  1.2e-05  0.101455  0.282227  7e-06  4.031918  0.0
C  C191  1  0.71524218  0.14006312  0.15103705  1  0.408749  1.2e-05  0.101703  0.282341  7e-06  4.031233  0.0
C  C192  1  0.52259723  0.81830672  0.63261554  1  0.070259  6.9e-05  -0.109987  -0.335327  5.4e-05  4.010798  0.0
C  C193  1  0.97360457  0.68160518  0.86757444  1  0.134402  6.8e-05  -0.109336  -0.335237  5.3e-05  4.010151  0.0
C  C194  1  0.84080591  0.63248264  0.68151596  1  0.117878  6.8e-05  -0.109432  -0.335016  5.4e-05  4.00926  0.0
C  C195  1  0.15528502  0.86750845  0.81858735  1  0.111103  6.9e-05  -0.110324  -0.336014  5.4e-05  4.009926  0.0
C  C196  1  0.47740407  0.18169414  0.36738153  1  0.070558  6.9e-05  -0.11005  -0.335382  5.4e-05  4.010811  0.0
C  C197  1  0.02640226  0.31839427  0.13242607  1  0.133925  6.8e-05  -0.109297  -0.335192  5.3e-05  4.01014  0.0
C  C198  1  0.15919651  0.36751728  0.31848519  1  0.11823  6.8e-05  -0.109435  -0.335043  5.4e-05  4.009336  0.0
C  C199  1  0.84471365  0.13249335  0.18141306  1  0.111064  6.9e-05  -0.11028  -0.335978  5.4e-05  4.009762  0.0
C  C200  1  0.43712057  0.84131842  0.58586495  1  0.421571  1.4e-05  0.099056  0.316504  1e-05  4.084581  0.0
C  C201  1  0.86447278  0.65857900  0.91434199  1  0.375279  1.4e-05  0.098301  0.315983  9e-06  4.085957  0.0
C  C202  1  0.77840261  0.58571003  0.65852837  1  0.367972  1.4e-05  0.098055  0.313784  1e-05  4.085692  0.0
C  C203  1  0.02304459  0.91425054  0.84153486  1  0.372671  1.4e-05  0.099049  0.316342  9e-06  4.080924  0.0
C  C204  1  0.56288267  0.15868197  0.41413277  1  0.421333  1.4e-05  0.09915  0.316713  1e-05  4.084331  0.0
C  C205  1  0.13553497  0.34142139  0.08565713  1  0.375746  1.4e-05  0.098195  0.315889  9e-06  4.08614  0.0
C  C206  1  0.22159747  0.41428989  0.34147158  1  0.36792  1.4e-05  0.097964  0.313686  1e-05  4.085594  0.0
C  C207  1  0.97695587  0.08574985  0.15846564  1  0.372755  1.4e-05  0.099128  0.316484  9e-06  4.080797  0.0
C  C208  1  0.46784060  0.89269117  0.54820040  1  -0.017105  -1.1e-05  -0.106764  -0.231778  -2.6e-05  4.011495  0.0
C  C209  1  0.90899997  0.60723562  0.95202928  1  -0.033017  -1e-05  -0.107313  -0.232412  -2.5e-05  4.0096  0.0
C  C210  1  0.86063587  0.54799535  0.60724367  1  0.021671  -1e-05  -0.107469  -0.231768  -2.6e-05  4.010342  0.0
C  C211  1  0.01602507  0.95196202  0.89286262  1  -0.051251  -1e-05  -0.107163  -0.231891  -2.5e-05  4.011519  0.0
C  C212  1  0.53216171  0.10731016  0.45179779  1  -0.017114  -1.1e-05  -0.106785  -0.23193  -2.6e-05  4.011622  0.0
C  C213  1  0.09100422  0.39276382  0.04797150  1  -0.032987  -1e-05  -0.107364  -0.232529  -2.5e-05  4.009892  0.0
C  C214  1  0.13936808  0.45200551  0.39275665  1  0.021778  -1e-05  -0.107409  -0.231698  -2.6e-05  4.010135  0.0
C  C215  1  0.98397316  0.04803790  0.10713918  1  -0.051161  -1e-05  -0.10724  -0.23201  -2.5e-05  4.011515  0.0
C  C216  1  0.58952664  0.92226148  0.55872780  1  -0.003674  6e-05  -0.08281  -0.057875  5.4e-05  3.991289  0.0
C  C217  1  0.07080166  0.57767543  0.94149909  1  0.035342  5.9e-05  -0.08307  -0.058263  5.3e-05  3.989568  0.0
C  C218  1  0.01197899  0.55848793  0.57771150  1  0.011247  6e-05  -0.082903  -0.058008  5.4e-05  3.989949  0.0
C  C219  1  0.14826606  0.94150315  0.92243960  1  0.054909  6e-05  -0.083257  -0.059256  5.4e-05  3.993489  0.0
C  C220  1  0.41047691  0.07773986  0.44127150  1  -0.003678  6e-05  -0.082707  -0.057645  5.4e-05  3.991226  0.0
C  C221  1  0.92920338  0.42232449  0.05850179  1  0.036441  5.9e-05  -0.083  -0.058225  5.3e-05  3.989539  0.0
C  C222  1  0.98802319  0.44151246  0.42228966  1  0.010932  6e-05  -0.08295  -0.058136  5.4e-05  3.990173  0.0
C  C223  1  0.85173511  0.05849583  0.07756090  1  0.054746  6e-05  -0.083303  -0.059411  5.4e-05  3.993492  0.0
C  C224  1  0.48057695  0.88669410  0.35448327  1  1.578357  -0.00094  0.208332  0.654977  -0.000952  4.150455  -0.002
C  C225  1  0.72219582  0.61332913  0.14548714  1  1.588361  -0.000925  0.210108  0.658857  -0.000935  4.14419  -0.002
C  C226  1  0.86747876  0.35446105  0.61326811  1  1.566144  -0.000938  0.209152  0.657263  -0.00094  4.145423  -0.002
C  C227  1  0.83524670  0.14540160  0.88666820  1  1.574804  -0.000938  0.208684  0.655657  -0.000944  4.151147  -0.002
C  C228  1  0.51942785  0.11330629  0.64551761  1  1.578322  -0.000938  0.208332  0.655066  -0.00095  4.15025  -0.002
C  C229  1  0.27779697  0.38667173  0.85451372  1  1.588967  -0.000924  0.210063  0.658812  -0.000934  4.144266  -0.002
C  C230  1  0.13250998  0.64554076  0.38673043  1  1.565657  -0.000938  0.209061  0.657328  -0.00094  4.145455  -0.002
C  C231  1  0.16475105  0.85459832  0.11333054  1  1.575401  -0.000937  0.208719  0.655775  -0.000943  4.151215  -0.002
C  C232  1  0.51743420  0.82780943  0.31335848  1  -0.108839  0.008733  -0.167733  -0.474847  0.005622  3.887741  0.007
C  C233  1  0.65895627  0.67224765  0.18656026  1  -0.099654  0.008853  -0.167938  -0.475839  0.00564  3.889948  0.007
C  C234  1  0.84523873  0.31339996  0.67221851  1  -0.098227  0.008742  -0.168756  -0.477123  0.005621  3.887843  0.007
C  C235  1  0.83078382  0.18659851  0.82780258  1  -0.075077  0.008779  -0.167761  -0.475715  0.005634  3.888097  0.007
C  C236  1  0.48256195  0.17219096  0.68664517  1  -0.10885  0.008733  -0.167781  -0.474962  0.005622  3.887997  0.007
C  C237  1  0.34103894  0.32775180  0.81344125  1  -0.099522  0.008854  -0.167967  -0.475997  0.005642  3.889984  0.007
C  C238  1  0.15475614  0.68660137  0.32778004  1  -0.098759  0.008743  -0.168749  -0.477241  0.005622  3.887823  0.007
C  C239  1  0.16920975  0.81340141  0.17219680  1  -0.074394  0.008779  -0.167748  -0.475664  0.005635  3.888052  0.007
C  C240  1  0.64311224  0.77497042  0.33177538  1  1.531901  -0.003741  0.214225  0.662853  -0.004306  4.089516  -0.005
C  C241  1  0.75022729  0.72507969  0.16817764  1  1.56935  -0.003837  0.214105  0.662943  -0.004301  4.092795  -0.005
C  C242  1  0.91801404  0.33183267  0.72505937  1  1.528603  -0.003746  0.213326  0.662  -0.00431  4.089342  -0.005
C  C243  1  0.97485771  0.16828019  0.77493124  1  1.540135  -0.003793  0.213553  0.662314  -0.0043  4.091003  -0.005
C  C244  1  0.35687874  0.22502572  0.66822613  1  1.532207  -0.003741  0.214184  0.66294  -0.004308  4.089646  -0.005
C  C245  1  0.24976061  0.27492259  0.83182386  1  1.569817  -0.003837  0.214071  0.663024  -0.004302  4.092559  -0.005
C  C246  1  0.08197543  0.66816772  0.27494269  1  1.528672  -0.003745  0.213403  0.662183  -0.004311  4.089482  -0.005
C  C247  1  0.02512839  0.83171973  0.22506497  1  1.540088  -0.003793  0.213535  0.662285  -0.0043  4.091114  -0.005
N  N248  1  0.92584854  0.84955114  0.42660486  1  -1.205383  0.006842  -0.356858  -0.356982  0.004498  3.486133  0.007
N  N249  1  0.20202817  0.65040775  0.07336073  1  -1.239748  0.006802  -0.355577  -0.356178  0.004481  3.488931  0.007
N  N250  1  0.27551188  0.42650714  0.65055776  1  -1.217959  0.006761  -0.355776  -0.356501  0.004447  3.488497  0.007
N  N251  1  0.35219999  0.07339946  0.84948379  1  -1.215951  0.00661  -0.355536  -0.355125  0.004356  3.487029  0.007
N  N252  1  0.07415463  0.15044972  0.57339389  1  -1.204857  0.006844  -0.356869  -0.356935  0.004499  3.486168  0.007
N  N253  1  0.79797371  0.34958980  0.92663977  1  -1.240629  0.006805  -0.355699  -0.356317  0.004483  3.488848  0.007
N  N254  1  0.72448752  0.57349136  0.34944357  1  -1.218025  0.006766  -0.355776  -0.35648  0.004451  3.48861  0.007
N  N255  1  0.64778939  0.92660140  0.15051577  1  -1.215952  0.006611  -0.35553  -0.355193  0.004357  3.487188  0.007
N  N256  1  0.94685631  0.79782408  0.51839554  1  -0.689699  0.000966  -0.233861  -0.286902  0.000643  3.101454  0.001
N  N257  1  0.26321894  0.70219981  0.98162766  1  -0.700378  0.000963  -0.233269  -0.286233  0.00064  3.103192  0.001
N  N258  1  0.24502812  0.51824709  0.70228456  1  -0.68627  0.000959  -0.233161  -0.286118  0.000638  3.099065  0.001
N  N259  1  0.46523416  0.98165105  0.79776701  1  -0.682291  0.000943  -0.233352  -0.285968  0.000628  3.102917  0.001
N  N260  1  0.05314794  0.20217678  0.48160330  1  -0.6894  0.000967  -0.233907  -0.287003  0.000643  3.101424  0.001
N  N261  1  0.73678348  0.29779916  0.01837396  1  -0.700562  0.000963  -0.233367  -0.286344  0.00064  3.103294  0.001
N  N262  1  0.75497522  0.48175188  0.29771613  1  -0.686243  0.00096  -0.233185  -0.286141  0.000638  3.099072  0.001
N  N263  1  0.53476568  0.01834934  0.20223293  1  -0.682486  0.000943  -0.23336  -0.285964  0.000628  3.102911  0.001
N  N264  1  0.97454843  0.85758174  0.52107383  1  -0.828581  3.1e-05  -0.136744  0.182574  -9e-06  3.722889  0.0
N  N265  1  0.35334586  0.64243344  0.97892335  1  -0.813582  2.9e-05  -0.138197  0.180712  -1e-05  3.726094  0.0
N  N266  1  0.33235643  0.52095910  0.64250897  1  -0.829317  2.9e-05  -0.138076  0.180947  -9e-06  3.724581  0.0
N  N267  1  0.49565322  0.97897518  0.85752336  1  -0.836966  2.6e-05  -0.137657  0.181446  -1.2e-05  3.728192  0.0
N  N268  1  0.02545318  0.14241912  0.47892528  1  -0.828552  3.1e-05  -0.136755  0.18263  -9e-06  3.722728  0.0
N  N269  1  0.64665898  0.35756412  0.02107892  1  -0.813598  2.9e-05  -0.138084  0.180836  -1e-05  3.725978  0.0
N  N270  1  0.66764583  0.47903987  0.35749162  1  -0.829343  2.9e-05  -0.138084  0.180947  -9e-06  3.724568  0.0
N  N271  1  0.50434313  0.02102568  0.14247630  1  -0.836857  2.5e-05  -0.137694  0.181368  -1.2e-05  3.728297  0.0
N  N272  1  0.96156614  0.97668628  0.68103243  1  -0.815263  0.002027  -0.13686  0.187991  0.001157  3.738646  0.002
N  N273  1  0.61898510  0.52332985  0.81889784  1  -0.82406  0.002032  -0.137945  0.188  0.001159  3.744408  0.002
N  N274  1  0.43802421  0.68097968  0.52328277  1  -0.825258  0.002031  -0.13783  0.185582  0.00116  3.741993  0.002
N  N275  1  0.64245796  0.81892957  0.97678818  1  -0.808444  0.002026  -0.136779  0.188407  0.001156  3.739559  0.002
N  N276  1  0.03843613  0.02331175  0.31896863  1  -0.815339  0.002027  -0.136781  0.188066  0.001157  3.738595  0.002
N  N277  1  0.38101785  0.47666960  0.18110183  1  -0.824111  0.002033  -0.137901  0.187964  0.001159  3.744483  0.002
N  N278  1  0.56197695  0.31902024  0.47671726  1  -0.825516  0.00203  -0.137863  0.185633  0.001159  3.741838  0.002
N  N279  1  0.35754599  0.18106941  0.02320954  1  -0.809023  0.002026  -0.136746  0.188457  0.001156  3.739293  0.002
N  N280  1  0.11346430  0.94252157  0.67965078  1  -0.673532  0.007958  -0.222615  -0.268033  0.00501  3.102097  0.006
N  N281  1  0.73527687  0.55751694  0.82022564  1  -0.673275  0.007995  -0.221755  -0.267818  0.005026  3.10507  0.006
N  N282  1  0.55567567  0.67960767  0.55747522  1  -0.663333  0.007981  -0.221501  -0.265804  0.005024  3.103553  0.006
N  N283  1  0.79291255  0.82025437  0.94256332  1  -0.675124  0.007959  -0.222905  -0.26897  0.005005  3.104242  0.006
N  N284  1  0.88654053  0.05747693  0.32035103  1  -0.673486  0.007958  -0.222644  -0.267993  0.00501  3.102271  0.006
N  N285  1  0.26472592  0.44248156  0.17977347  1  -0.673246  0.007995  -0.221776  -0.267873  0.005026  3.105106  0.006
N  N286  1  0.44433192  0.32039178  0.44252334  1  -0.663216  0.00798  -0.221556  -0.265885  0.005023  3.103401  0.006
N  N287  1  0.20709264  0.17974460  0.05743552  1  -0.674999  0.007959  -0.222954  -0.268939  0.005005  3.104069  0.006
N  N288  1  0.11328964  0.04643676  0.67429882  1  -1.190093  0.072915  -0.374372  -0.328451  0.047959  3.622107  0.062
N  N289  1  0.83371339  0.45362270  0.82578565  1  -1.212705  0.073228  -0.375227  -0.33109  0.04814  3.625454  0.062
N  N290  1  0.65955729  0.67432602  0.45358222  1  -1.197724  0.073006  -0.374884  -0.329689  0.048047  3.622145  0.062
N  N291  1  0.78773384  0.82563889  0.04643668  1  -1.200549  0.072987  -0.376399  -0.333186  0.048052  3.627684  0.062
N  N292  1  0.88671230  0.95356221  0.32569973  1  -1.190307  0.072909  -0.374398  -0.328445  0.047957  3.622058  0.062
N  N293  1  0.16628778  0.54637627  0.17421485  1  -1.212753  0.073226  -0.375226  -0.331227  0.048139  3.625616  0.062
N  N294  1  0.34043860  0.32567201  0.54641578  1  -1.197626  0.072999  -0.374779  -0.329576  0.048043  3.622108  0.062
N  N295  1  0.21226474  0.17436244  0.95356168  1  -1.200696  0.072985  -0.37637  -0.333149  0.04805  3.627483  0.062
O  O296  1  0.59615726  0.91123603  0.36509771  1  -1.131699  0.096905  -0.334478  -0.566323  0.06064  2.318243  0.089
O  O297  1  0.87294230  0.58877356  0.13492407  1  -1.140294  0.096778  -0.335891  -0.568338  0.060521  2.31839  0.089
O  O298  1  0.00768934  0.36501159  0.58872862  1  -1.124786  0.096885  -0.33594  -0.56783  0.060582  2.316916  0.089
O  O299  1  0.96151062  0.13474270  0.91117925  1  -1.128782  0.096797  -0.335998  -0.567378  0.060541  2.317532  0.089
O  O300  1  0.40383895  0.08876483  0.63490445  1  -1.131494  0.096928  -0.334386  -0.56629  0.060654  2.318093  0.089
O  O301  1  0.12705122  0.41122400  0.86507772  1  -1.140474  0.096784  -0.335898  -0.568353  0.060525  2.318471  0.089
O  O302  1  0.99230606  0.63498928  0.41126845  1  -1.124395  0.096883  -0.335895  -0.567841  0.06058  2.31711  0.089
O  O303  1  0.03848078  0.86525722  0.08881994  1  -1.12887  0.096824  -0.336065  -0.567516  0.060557  2.317473  0.089
O  O304  1  0.33454352  0.91006342  0.37547290  1  -1.188817  0.020204  -0.314024  -0.548498  0.012584  2.186872  0.017
O  O305  1  0.62060385  0.58993983  0.12448308  1  -1.189772  0.020216  -0.314356  -0.549801  0.012631  2.182213  0.017
O  O306  1  0.74492022  0.37546759  0.58983947  1  -1.18229  0.020211  -0.313761  -0.548918  0.012625  2.185143  0.017
O  O307  1  0.71023540  0.12438784  0.91004757  1  -1.187997  0.020164  -0.313302  -0.547887  0.012576  2.188409  0.017
O  O308  1  0.66544475  0.08994027  0.62452869  1  -1.189012  0.020201  -0.314082  -0.548555  0.012583  2.186954  0.017
O  O309  1  0.37938730  0.41006150  0.87551564  1  -1.190192  0.020216  -0.314274  -0.549728  0.012631  2.182326  0.017
O  O310  1  0.25507077  0.62453469  0.41016130  1  -1.182059  0.020218  -0.313694  -0.548956  0.012629  2.185025  0.017
O  O311  1  0.28975354  0.87560830  0.08995124  1  -1.188495  0.020164  -0.313281  -0.547894  0.012576  2.188616  0.017
O  O312  1  0.61783796  0.71909883  0.33296870  1  -1.111147  0.095917  -0.3054  -0.516765  0.0607  2.249029  0.086
O  O313  1  0.67021397  0.78095962  0.16699620  1  -1.116508  0.096312  -0.305392  -0.516886  0.06098  2.249498  0.086
O  O314  1  0.83677251  0.33306188  0.78091853  1  -1.111975  0.09588  -0.304905  -0.515879  0.060674  2.248466  0.086
O  O315  1  0.95073242  0.16709285  0.71906145  1  -1.113185  0.095955  -0.304559  -0.516532  0.060789  2.246845  0.086
O  O316  1  0.38215545  0.28090297  0.66703225  1  -1.111461  0.095957  -0.305413  -0.516854  0.060727  2.248764  0.086
O  O317  1  0.32977431  0.21904124  0.83300326  1  -1.11683  0.096339  -0.305461  -0.517007  0.060997  2.24917  0.086
O  O318  1  0.16321772  0.66693851  0.21908159  1  -1.111954  0.095902  -0.304945  -0.515944  0.060688  2.248439  0.086
O  O319  1  0.04925642  0.83290565  0.28093746  1  -1.11292  0.095986  -0.304557  -0.516534  0.060809  2.246818  0.086
O  O320  1  0.77134196  0.78650977  0.34612068  1  -1.121224  0.098291  -0.322272  -0.559474  0.061352  2.420908  0.091
O  O321  1  0.90432732  0.71352386  0.15385713  1  -1.130343  0.098237  -0.322169  -0.559431  0.061349  2.422312  0.091
O  O322  1  0.05784865  0.34611942  0.71350528  1  -1.116381  0.098308  -0.321768  -0.559522  0.061336  2.420704  0.091
O  O323  1  0.11744182  0.15401037  0.78647394  1  -1.116006  0.098348  -0.32268  -0.559178  0.061381  2.423022  0.091
O  O324  1  0.22865829  0.21348920  0.65388075  1  -1.12132  0.098277  -0.322193  -0.559451  0.061343  2.42124  0.091
O  O325  1  0.09566609  0.28647700  0.84614428  1  -1.130544  0.098231  -0.322093  -0.55937  0.061345  2.42244  0.091
O  O326  1  0.94214770  0.65388144  0.28649438  1  -1.116457  0.098306  -0.321737  -0.559549  0.061335  2.42089  0.091
O  O327  1  0.88255356  0.84599238  0.21352220  1  -1.116216  0.098334  -0.322632  -0.559074  0.061372  2.423242  0.091
O  O328  1  0.82987264  0.98525026  0.56983833  1  -1.175815  1.9e-05  -0.399511  -0.550705  -1.2e-05  2.272586  0.0
O  O329  1  0.38548242  0.51469840  0.93018549  1  -1.175129  1.8e-05  -0.399411  -0.55113  -1.3e-05  2.272396  0.0
O  O330  1  0.31542819  0.56966940  0.51477223  1  -1.178059  2e-05  -0.400203  -0.551618  -1.2e-05  2.27266  0.0
O  O331  1  0.40023481  0.93034850  0.98535420  1  -1.172913  2e-05  -0.398981  -0.552084  -1.2e-05  2.273448  0.0
O  O332  1  0.17012991  0.01475154  0.43016291  1  -1.175395  1.9e-05  -0.399551  -0.550882  -1.2e-05  2.272538  0.0
O  O333  1  0.61452201  0.48530057  0.06981529  1  -1.175054  1.8e-05  -0.399367  -0.55101  -1.3e-05  2.27248  0.0
O  O334  1  0.68457249  0.43033241  0.48522735  1  -1.178117  2e-05  -0.400252  -0.55167  -1.2e-05  2.272721  0.0
O  O335  1  0.59976862  0.06964906  0.01464593  1  -1.173039  2e-05  -0.398993  -0.552043  -1.2e-05  2.273583  0.0
F  F336  1  0.73462579  0.82329539  0.68393346  1  -0.634812  2.5e-05  -0.09685  -0.143819  8e-06  1.337611  0.0
F  F337  1  0.24189241  0.67669910  0.81628220  1  -0.637942  2.5e-05  -0.098069  -0.145485  8e-06  1.337384  0.0
F  F338  1  0.05795740  0.68366689  0.67664552  1  -0.642431  2.5e-05  -0.098366  -0.145319  8e-06  1.338793  0.0
F  F339  1  0.41866337  0.81628873  0.82360650  1  -0.642405  2.5e-05  -0.097782  -0.144756  8e-06  1.337252  0.0
F  F340  1  0.26537210  0.17670547  0.31606583  1  -0.63447  2.5e-05  -0.096878  -0.14387  8e-06  1.337661  0.0
F  F341  1  0.75811745  0.32329987  0.18371905  1  -0.637908  2.5e-05  -0.098111  -0.145554  8e-06  1.337363  0.0
F  F342  1  0.94204587  0.31633256  0.32335619  1  -0.642375  2.5e-05  -0.098346  -0.145308  8e-06  1.338799  0.0
F  F343  1  0.58133405  0.18371119  0.17639019  1  -0.642348  2.5e-05  -0.097745  -0.14469  8e-06  1.337437  0.0
F  F344  1  0.31902167  0.81133940  0.57633415  1  -0.645178  9e-06  -0.090953  -0.144922  -5e-06  1.38377  0.0
F  F345  1  0.70684306  0.68853039  0.92384604  1  -0.646617  9e-06  -0.090209  -0.144124  -6e-06  1.386195  0.0
F  F346  1  0.63026526  0.57621891  0.68848869  1  -0.642538  9e-06  -0.090074  -0.143285  -5e-06  1.38496  0.0
F  F347  1  0.89546272  0.92373274  0.81151426  1  -0.638762  9e-06  -0.090427  -0.144257  -6e-06  1.381949  0.0
F  F348  1  0.68098318  0.18866146  0.42366173  1  -0.644947  9e-06  -0.090997  -0.14501  -5e-06  1.383647  0.0
F  F349  1  0.29316491  0.31147047  0.07615262  1  -0.646715  9e-06  -0.090131  -0.144057  -6e-06  1.386252  0.0
F  F350  1  0.36973481  0.42378195  0.31151079  1  -0.642552  9e-06  -0.090047  -0.143255  -5e-06  1.384966  0.0
F  F351  1  0.10453503  0.07626907  0.18848707  1  -0.638782  9e-06  -0.090434  -0.144254  -5e-06  1.381983  0.0
