# generated using pymatgen
data_Co2H21C25(NO3)3
_symmetry_space_group_name_H-M   'P 1'
_cell_length_a   15.87075890
_cell_length_b   15.86614126
_cell_length_c   21.25780826
_cell_angle_alpha   89.99887901
_cell_angle_beta   90.00107086
_cell_angle_gamma   120.03024714
_symmetry_Int_Tables_number   1
_chemical_formula_structural   Co2H21C25(NO3)3
_chemical_formula_sum   'Co12 H126 C150 N18 O54'
_cell_volume   4634.31636853
_cell_formula_units_Z   6
loop_
 _symmetry_equiv_pos_site_id
 _symmetry_equiv_pos_as_xyz
  1  'x, y, z'
loop_
 _atom_site_type_symbol
 _atom_site_label
 _atom_site_symmetry_multiplicity
 _atom_site_fract_x
 _atom_site_fract_y
 _atom_site_fract_z
 _atom_site_occupancy
 _atom_site_pbe_bader_charge
 _atom_site_pbe_bader_spin_density
 _atom_site_pbe_cm5_charge
 _atom_site_pbe_ddec_charge
 _atom_site_pbe_ddec_spin_density
 _atom_site_pbe_ddec_sum_bond_order
 _atom_site_pbe_magmom
Co  Co0  1  0.44263266  0.29542134  0.08942454  1  1.348484  2.658517  0.681618  1.011989  2.879647  2.434926  2.641
Co  Co1  1  0.51542578  0.48723804  0.19315541  1  1.26695  2.593216  0.660055  0.855853  2.801853  2.45322  2.574
Co  Co2  1  0.70444848  0.14736878  0.42259773  1  1.352396  2.661201  0.683163  1.014402  2.882847  2.435752  2.644
Co  Co3  1  0.51235181  0.02781637  0.52631256  1  1.268879  2.597363  0.661743  0.857586  2.807838  2.457743  2.578
Co  Co4  1  0.85301654  0.55781304  0.75574394  1  1.349163  2.658997  0.682025  1.012924  2.880037  2.435903  2.642
Co  Co5  1  0.97202646  0.48467928  0.85947707  1  1.269684  2.597289  0.661181  0.857827  2.806606  2.45583  2.578
Co  Co6  1  0.55772170  0.70475243  0.58934501  1  1.349217  2.660211  0.68285  1.013301  2.881894  2.438515  2.643
Co  Co7  1  0.48469214  0.51295765  0.69303862  1  1.269843  2.59686  0.661663  0.856728  2.806688  2.459962  2.578
Co  Co8  1  0.29542660  0.85303531  0.92270478  1  1.352101  2.659073  0.681727  1.012466  2.879929  2.436224  2.642
Co  Co9  1  0.48770417  0.97219572  0.02639601  1  1.268828  2.597043  0.661285  0.856851  2.807458  2.457224  2.578
Co  Co10  1  0.14672247  0.44170972  0.25672982  1  1.344704  2.654994  0.681883  1.010861  2.874767  2.435384  2.638
Co  Co11  1  0.02898630  0.51561332  0.36084173  1  1.272524  2.606437  0.662864  0.861399  2.816112  2.448564  2.586
H  H12  1  0.52769009  0.33023631  0.56182494  1  0.090382  0.000537  0.103744  0.110987  0.000203  1.010604  0.0
H  H13  1  0.55381100  0.55309606  0.43559882  1  0.057657  0.000433  0.102846  0.110573  0.000173  1.013235  0.0
H  H14  1  0.60496695  0.32619404  0.36838036  1  0.081998  0.000235  0.101517  0.102041  9e-06  1.02088  0.0
H  H15  1  0.61593422  0.55694347  0.32552014  1  0.077107  0.000456  0.105122  0.083741  -0.000116  1.012225  0.0
H  H16  1  0.63347405  0.46121768  0.29831214  1  0.083104  0.000682  0.109617  0.099819  3.6e-05  0.998934  0.0
H  H17  1  0.39730292  0.29017991  0.32687725  1  0.047459  0.003976  0.10901  0.110023  0.001624  0.971066  0.001
H  H18  1  0.49961452  0.30775774  0.28181674  1  0.067349  0.000228  0.121095  0.12645  -7.2e-05  0.956503  0.0
H  H19  1  0.46807151  0.54042048  0.33535515  1  0.039033  -0.000319  0.119839  0.119093  -0.000482  0.963915  0.0
H  H20  1  0.38781626  0.42014699  0.36259534  1  0.068507  0.003267  0.111656  0.115803  0.001378  0.966872  0.001
H  H21  1  0.30069892  0.35758068  0.09407409  1  0.110396  0.001923  0.119298  0.091764  0.000447  1.009199  0.001
H  H22  1  0.12500326  0.29240360  0.08518814  1  0.081924  0.000814  0.107078  0.116894  0.000313  1.008909  0.0
H  H23  1  0.09599467  0.00897329  0.05001517  1  0.10746  0.000975  0.111999  0.1253  0.000434  0.984538  0.0
H  H24  1  0.27424554  0.08775730  0.06034333  1  0.124939  0.001846  0.118339  0.092582  0.000442  1.014013  0.001
H  H25  1  0.94955156  0.02067101  0.04880265  1  0.01251  -0.000228  0.10448  0.101251  -0.000198  0.998313  0.0
H  H26  1  0.97608664  0.22219489  0.08096649  1  0.044094  -8.4e-05  0.105462  0.10639  4.3e-05  1.000047  0.0
H  H27  1  0.83552692  0.23930668  0.07048406  1  0.058259  0.000903  0.103224  0.112001  0.000433  1.030074  0.0
H  H28  1  0.65657443  0.16489258  0.05586943  1  0.096075  0.001551  0.116776  0.090252  0.000348  1.008261  0.001
H  H29  1  0.61760462  0.88686100  0.04839652  1  0.118485  0.001319  0.118621  0.09744  0.000238  1.016037  0.001
H  H30  1  0.79434184  0.94824248  0.06179003  1  0.074968  0.000801  0.109887  0.117284  0.00043  0.995  0.0
H  H31  1  0.53419969  0.30178453  0.98770259  1  0.60749  -0.000489  0.317552  0.395582  -0.000657  0.885216  0.0
H  H32  1  0.47859819  0.19236248  0.01109621  1  0.645457  0.000568  0.288044  0.376869  0.000448  0.968494  0.001
H  H33  1  0.66996835  0.19816453  0.89500800  1  0.102772  0.000539  0.104077  0.111723  0.000203  1.0099  0.0
H  H34  1  0.44708040  0.00051410  0.76909322  1  0.10207  0.000425  0.102885  0.110672  0.00017  1.013388  0.0
H  H35  1  0.67399031  0.27837931  0.70132708  1  0.071425  0.000237  0.101107  0.101357  1.2e-05  1.021924  0.0
H  H36  1  0.44297359  0.05840175  0.65897182  1  0.023071  0.000453  0.105126  0.08431  -0.000108  1.0107  0.0
H  H37  1  0.53848978  0.17178426  0.63160148  1  0.065576  0.000687  0.109414  0.099997  3.8e-05  0.998828  0.001
H  H38  1  0.70985292  0.10749195  0.65987699  1  0.070592  0.003944  0.109281  0.110992  0.001623  0.970199  0.002
H  H39  1  0.69179681  0.19154512  0.61426524  1  0.068378  0.000235  0.121156  0.12676  -7.5e-05  0.956454  0.0
H  H40  1  0.45970295  0.92690414  0.66853478  1  0.039512  -0.000262  0.12004  0.119735  -0.000451  0.962525  0.0
H  H41  1  0.58010467  0.96745314  0.69574603  1  0.073796  0.003312  0.111792  0.116158  0.001402  0.965618  0.001
H  H42  1  0.64212334  0.94331226  0.42672032  1  0.145102  0.001915  0.119506  0.091455  0.000435  1.009176  0.001
H  H43  1  0.70717740  0.83259887  0.41794786  1  0.119512  0.000833  0.107407  0.117021  0.000342  1.008918  0.0
H  H44  1  0.99077515  0.08708309  0.38326873  1  0.10268  0.000938  0.112596  0.126083  0.000411  0.984671  0.0
H  H45  1  0.91213297  0.18672766  0.39348817  1  0.119878  0.001838  0.118179  0.09163  0.000426  1.012769  0.001
H  H46  1  0.97859252  0.92865233  0.38152526  1  0.073152  -6.9e-05  0.105104  0.102126  -0.000101  0.996097  0.0
H  H47  1  0.77732507  0.75405293  0.41485077  1  0.084345  -2.8e-05  0.106043  0.107018  2.7e-05  0.999187  0.0
H  H48  1  0.75981348  0.59622919  0.40243519  1  0.105676  0.000765  0.103313  0.111735  0.000368  1.031326  0.0
H  H49  1  0.83434017  0.49160470  0.38732720  1  0.152936  0.001271  0.118095  0.092875  0.000155  1.008375  0.001
H  H50  1  0.11218391  0.73096004  0.38122807  1  0.130829  0.001282  0.118746  0.097628  0.000325  1.017113  0.001
H  H51  1  0.05093597  0.84623765  0.39568549  1  0.080493  0.000809  0.110198  0.117651  0.000393  0.994214  0.0
H  H52  1  0.69727895  0.23224411  0.32101462  1  0.593434  -0.000456  0.318092  0.396855  -0.000626  0.883917  0.0
H  H53  1  0.80615081  0.28821830  0.34528840  1  0.626833  0.000666  0.288439  0.377844  0.000483  0.966907  0.001
H  H54  1  0.80229897  0.47067601  0.22865790  1  0.081689  0.000422  0.103497  0.111265  0.000136  1.010361  0.0
H  H55  1  0.99942546  0.44634858  0.10198600  1  0.057977  0.000356  0.102711  0.110711  0.000129  1.014144  0.0
H  H56  1  0.72159366  0.39595111  0.03484910  1  0.093033  0.000246  0.101313  0.101669  2.7e-05  1.021065  0.0
H  H57  1  0.94103938  0.38438731  0.99197761  1  0.044168  0.000457  0.105357  0.084196  -0.000108  1.010995  0.0
H  H58  1  0.82766828  0.36665115  0.96482974  1  0.064617  0.000694  0.109574  0.099797  3.9e-05  0.998216  0.001
H  H59  1  0.89216497  0.60233929  0.99303364  1  0.054074  0.003997  0.109288  0.110886  0.001636  0.970079  0.002
H  H60  1  0.80802997  0.50012751  0.94751311  1  0.081875  0.000234  0.121061  0.126786  -6.9e-05  0.956095  0.0
H  H61  1  0.07262947  0.53274388  0.00151982  1  0.060804  -0.000268  0.119924  0.119319  -0.000453  0.963113  0.0
H  H62  1  0.03207433  0.61247735  0.02893759  1  0.078538  0.003305  0.112102  0.116649  0.0014  0.965489  0.001
H  H63  1  0.05696444  0.69983195  0.76011739  1  0.111681  0.001919  0.118928  0.091217  0.000449  1.008979  0.001
H  H64  1  0.16767864  0.87569143  0.75153368  1  0.066076  0.000832  0.107143  0.117  0.000327  1.007793  0.0
H  H65  1  0.91333470  0.90487432  0.71716918  1  0.092777  0.000978  0.112282  0.12525  0.000438  0.984296  0.0
H  H66  1  0.81363579  0.72649687  0.72716752  1  0.072593  0.001842  0.118087  0.092285  0.000435  1.012987  0.001
H  H67  1  0.07154632  0.05124854  0.71571079  1  0.051317  -0.00018  0.104607  0.101819  -0.000207  0.998258  0.0
H  H68  1  0.24644544  0.02456704  0.74773243  1  0.04702  -7e-05  0.105667  0.10671  5.9e-05  0.99964  0.0
H  H69  1  0.40426558  0.16523645  0.73703150  1  0.06514  0.000897  0.103015  0.111408  0.000437  1.030254  0.0
H  H70  1  0.50887361  0.34426304  0.72230221  1  0.087118  0.001542  0.116783  0.090513  0.00034  1.007592  0.001
H  H71  1  0.26975067  0.38300280  0.71517394  1  0.127523  0.001331  0.118704  0.097259  0.000238  1.016691  0.001
H  H72  1  0.15434932  0.20620903  0.72870263  1  0.074653  0.000801  0.109701  0.117136  0.000429  0.994967  0.0
H  H73  1  0.76666349  0.46483225  0.65512123  1  0.613386  -0.000499  0.317451  0.396473  -0.000654  0.885048  0.0
H  H74  1  0.71391420  0.52178591  0.67758325  1  0.645974  0.000588  0.288132  0.377109  0.000452  0.968299  0.001
H  H75  1  0.47209188  0.66982284  0.06176535  1  0.094357  0.000537  0.103774  0.111241  0.000204  1.010395  0.0
H  H76  1  0.44666092  0.44712452  0.93565651  1  0.059068  0.000432  0.102707  0.110211  0.000173  1.013671  0.0
H  H77  1  0.39506531  0.67368587  0.86824492  1  0.080949  0.00024  0.10099  0.101271  1.2e-05  1.021936  0.0
H  H78  1  0.38448474  0.44303143  0.82560055  1  0.019059  0.000447  0.10546  0.084242  -0.000111  1.011137  0.0
H  H79  1  0.36664532  0.53856765  0.79834292  1  0.081609  0.000703  0.109611  0.099937  4e-05  0.998581  0.001
H  H80  1  0.60287151  0.70989964  0.82690412  1  0.049106  0.004012  0.109337  0.110434  0.001637  0.970211  0.002
H  H81  1  0.50045781  0.69233327  0.78196240  1  0.06751  0.000227  0.121008  0.126757  -7.4e-05  0.95627  0.0
H  H82  1  0.53261561  0.45957492  0.83466307  1  0.083396  -0.000262  0.119831  0.119022  -0.000455  0.963536  0.0
H  H83  1  0.61241270  0.57969629  0.86245442  1  0.071033  0.003317  0.111868  0.116421  0.0014  0.965866  0.001
H  H84  1  0.69960759  0.64255016  0.59400592  1  0.141567  0.001923  0.119365  0.09211  0.000453  1.008739  0.001
H  H85  1  0.87538593  0.70777822  0.58515957  1  0.074669  0.000842  0.107141  0.116962  0.000333  1.008316  0.0
H  H86  1  0.90434535  0.99119475  0.55005483  1  0.10463  0.000983  0.112103  0.12559  0.000442  0.984369  0.0
H  H87  1  0.72609641  0.91239995  0.56031392  1  0.128443  0.001861  0.118151  0.092468  0.000456  1.014608  0.001
H  H88  1  0.05076123  0.97950913  0.54884235  1  0.01053  -0.000233  0.104435  0.101294  -0.000201  0.997986  0.0
H  H89  1  0.02415487  0.77795434  0.58103558  1  0.056703  -5.7e-05  0.1052  0.105671  6.3e-05  1.000758  0.0
H  H90  1  0.16461970  0.76076472  0.57052243  1  0.05801  0.000909  0.102889  0.111253  0.000424  1.030697  0.0
H  H91  1  0.34356378  0.83509015  0.55579678  1  0.094621  0.001549  0.116715  0.090046  0.000341  1.007938  0.001
H  H92  1  0.38263778  0.11316507  0.54832130  1  0.117759  0.00132  0.118657  0.097248  0.000238  1.017056  0.001
H  H93  1  0.20591993  0.05186509  0.56176029  1  0.076233  0.000798  0.109829  0.117342  0.000428  0.994871  0.0
H  H94  1  0.46655361  0.69840791  0.48724688  1  0.590448  -0.000501  0.318069  0.396543  -0.000646  0.884097  0.0
H  H95  1  0.52166316  0.80770274  0.51096481  1  0.647194  0.000566  0.288204  0.376988  0.000448  0.968232  0.001
H  H96  1  0.32968225  0.80193449  0.39474175  1  0.103508  0.000614  0.103447  0.110635  0.000243  1.010439  0.0
H  H97  1  0.55315546  0.99924177  0.26902053  1  0.101527  0.000412  0.102649  0.110404  0.000152  1.013599  0.0
H  H98  1  0.32631987  0.72135281  0.20119508  1  0.067969  0.000218  0.101424  0.102591  -0.0  1.020285  0.0
H  H99  1  0.55736600  0.94161006  0.15892261  1  0.018391  0.000447  0.105434  0.084709  -0.000111  1.011133  0.0
H  H100  1  0.46194049  0.82821004  0.13147357  1  0.069316  0.000682  0.109612  0.100277  3.4e-05  0.998568  0.001
H  H101  1  0.29036608  0.89226970  0.16004164  1  0.070183  0.003952  0.109156  0.110213  0.001627  0.970675  0.002
H  H102  1  0.30843354  0.80824690  0.11441821  1  0.069245  0.000221  0.120923  0.126631  -7.9e-05  0.956093  0.0
H  H103  1  0.54042115  0.07299659  0.16860246  1  0.039065  -0.000265  0.119638  0.119276  -0.000453  0.962512  0.0
H  H104  1  0.42001396  0.03233569  0.19584226  1  0.071176  0.003308  0.111691  0.115942  0.001392  0.966201  0.001
H  H105  1  0.35739916  0.05717343  0.92678671  1  0.106545  0.001921  0.119122  0.091472  0.000453  1.009049  0.001
H  H106  1  0.29216750  0.16768111  0.91783485  1  0.076833  0.000826  0.107163  0.116683  0.00033  1.008608  0.0
H  H107  1  0.00865261  0.91285675  0.88353368  1  0.097566  0.000967  0.112465  0.125922  0.000436  0.984475  0.0
H  H108  1  0.08743869  0.81343142  0.89383329  1  0.123629  0.00183  0.11825  0.092407  0.000437  1.01426  0.001
H  H109  1  0.02031885  0.07101337  0.88200494  1  0.061757  -0.000158  0.104445  0.101292  -0.000203  0.99808  0.0
H  H110  1  0.22169641  0.24614453  0.91444068  1  0.05003  -7.2e-05  0.105425  0.106456  6e-05  0.999774  0.0
H  H111  1  0.23892553  0.40375018  0.90371089  1  0.065292  0.000885  0.103165  0.111617  0.000434  1.029928  0.0
H  H112  1  0.16476902  0.50846091  0.88892210  1  0.063659  0.001486  0.116668  0.08955  0.000339  1.008094  0.001
H  H113  1  0.88664019  0.26934164  0.88172446  1  0.161325  0.00131  0.118619  0.097214  0.000235  1.016485  0.001
H  H114  1  0.94780785  0.15382900  0.89530615  1  0.08224  0.000788  0.109934  0.117221  0.000429  0.994788  0.0
H  H115  1  0.30227968  0.76719788  0.82175808  1  0.607926  -0.000482  0.317337  0.395993  -0.00065  0.885434  0.0
H  H116  1  0.19258207  0.71404022  0.84436822  1  0.648478  0.000574  0.288116  0.377302  0.000446  0.967963  0.001
H  H117  1  0.19790322  0.52870121  0.72849736  1  0.076953  0.000539  0.104031  0.111624  0.000203  1.009411  0.0
H  H118  1  0.00119424  0.55414617  0.60196301  1  0.063671  0.000471  0.10277  0.110362  0.000174  1.01328  0.0
H  H119  1  0.27903797  0.60436285  0.53487723  1  0.08845  0.000279  0.101161  0.101757  2.4e-05  1.022341  0.0
H  H120  1  0.05932595  0.61482102  0.49135514  1  0.038119  0.00073  0.105561  0.084526  0.000162  1.010782  0.0
H  H121  1  0.17280041  0.63234787  0.46454119  1  0.092377  0.000927  0.109855  0.099872  0.000264  0.995811  0.001
H  H122  1  0.10829209  0.39630805  0.49379994  1  0.071233  0.003729  0.110075  0.111495  0.00157  0.969698  0.001
H  H123  1  0.19278998  0.49877739  0.44857781  1  0.063113  0.000392  0.121928  0.127405  -2.9e-05  0.955319  0.0
H  H124  1  0.92918370  0.46662757  0.50366788  1  0.063198  -0.000182  0.119949  0.119889  -0.000386  0.961553  0.0
H  H125  1  0.96907347  0.38554298  0.52939953  1  0.083305  0.003441  0.112393  0.117114  0.001432  0.965455  0.001
H  H126  1  0.94260517  0.30021977  0.26001660  1  0.106622  0.001944  0.118489  0.090419  0.000667  1.010012  0.001
H  H127  1  0.83245215  0.12460099  0.25127303  1  0.065959  0.00094  0.107111  0.116336  0.00041  1.008275  0.0
H  H128  1  0.08711608  0.09596198  0.21696912  1  0.098632  0.001037  0.111987  0.125078  0.000512  0.985004  0.0
H  H129  1  0.18657342  0.27419643  0.22726544  1  0.122416  0.001827  0.118417  0.092568  0.000387  1.012474  0.001
H  H130  1  0.92884682  0.94924057  0.21569440  1  0.052227  -0.000156  0.104295  0.101321  -0.000124  0.998892  0.0
H  H131  1  0.75378261  0.97577186  0.24746720  1  0.045186  -9.9e-05  0.104845  0.105871  1.2e-05  1.001317  0.0
H  H132  1  0.59606149  0.83513709  0.23702861  1  0.062174  0.000875  0.102717  0.111139  0.000419  1.031353  0.0
H  H133  1  0.49139570  0.65610779  0.22248582  1  0.090984  0.001509  0.116616  0.090188  0.000328  1.008673  0.001
H  H134  1  0.73043657  0.61726728  0.21514694  1  0.132927  0.00132  0.118459  0.096854  0.000251  1.017876  0.001
H  H135  1  0.84591099  0.79409511  0.22850014  1  0.069861  0.000797  0.109464  0.116931  0.000426  0.995124  0.0
H  H136  1  0.22864240  0.52989619  0.15349944  1  0.611418  -0.000241  0.317936  0.396561  -0.000439  0.884614  0.0
H  H137  1  0.28521999  0.47739873  0.17771955  1  0.651394  0.000655  0.287992  0.376737  0.000581  0.968565  0.001
C  C138  1  0.56736182  0.31881881  0.46576601  1  -0.018987  0.011471  -0.019105  -0.028304  0.006008  3.979163  0.009
C  C139  1  0.54213658  0.36120362  0.51463745  1  -0.062457  -0.001181  -0.079293  -0.112472  -0.001819  3.927113  -0.001
C  C140  1  0.53927778  0.44690291  0.50331579  1  0.010645  0.012043  -0.018913  -0.027786  0.0062  3.980019  0.01
C  C141  1  0.55601349  0.48611285  0.44257841  1  -0.031436  -0.002327  -0.086105  -0.149213  -0.002813  3.947753  -0.002
C  C142  1  0.57598550  0.44143163  0.39268191  1  -0.008431  0.004287  -0.023331  0.079616  0.002174  4.016791  0.003
C  C143  1  0.58436778  0.35976887  0.40547316  1  -0.094031  -0.00306  -0.084515  -0.140106  -0.003622  3.948209  -0.002
C  C144  1  0.58525371  0.47766729  0.32624260  1  0.220129  6e-05  -0.069865  -0.138332  -0.000673  3.94179  -0.001
C  C145  1  0.44265647  0.32770566  0.28569571  1  0.275589  0.005396  -0.070337  -0.223142  0.00314  3.864582  0.003
C  C146  1  0.38188696  0.28865680  0.22536857  1  1.58683  0.007098  0.211483  0.612466  0.005188  4.129184  0.005
C  C147  1  0.42468112  0.46374593  0.32065728  1  0.290446  0.004974  -0.06865  -0.226006  0.002424  3.902071  0.003
C  C148  1  0.34905053  0.45953074  0.27459841  1  1.572847  -0.002357  0.21785  0.614269  -0.003372  4.131683  -0.001
C  C149  1  0.58122847  0.23223355  0.47387341  1  1.57349  -0.002616  0.218237  0.600832  -0.003908  4.160626  -0.003
C  C150  1  0.52219046  0.50134110  0.55493066  1  1.569307  -0.008017  0.213729  0.587733  -0.009823  4.183445  -0.006
C  C151  1  0.25263319  0.28102708  0.08321431  1  0.381743  -0.002722  0.044035  0.099703  -0.003323  3.960665  -0.001
C  C152  1  0.15355355  0.24333667  0.07826606  1  0.057139  -0.001094  -0.084461  -0.175271  -0.001817  3.945037  0.0
C  C153  1  0.09277950  0.14327283  0.06587422  1  -0.02318  -0.006757  0.00091  0.133229  -0.007304  4.05873  -0.003
C  C154  1  0.13807688  0.08693787  0.05949470  1  -0.076539  -0.001866  -0.079417  -0.174148  -0.002839  3.914439  0.0
C  C155  1  0.23850616  0.13073469  0.06495049  1  0.537199  -0.005276  0.054252  0.117009  -0.006011  3.938274  -0.003
C  C156  1  0.98801893  0.09810662  0.06068552  1  0.071694  -0.021454  -0.081949  -0.120914  -0.023274  3.979932  -0.012
C  C157  1  0.93694293  0.14455940  0.06976384  1  -0.075261  -0.004345  -0.085246  -0.128138  -0.005466  3.99072  -0.001
C  C158  1  0.83244431  0.10087631  0.06519758  1  -0.021976  -0.02314  0.000937  0.140917  -0.024692  4.051105  -0.014
C  C159  1  0.79020678  0.16063781  0.06509195  1  -0.065677  0.005399  -0.086952  -0.178467  0.001687  3.938853  0.005
C  C160  1  0.69061250  0.11986636  0.05757008  1  0.500591  -0.015991  0.037715  0.083131  -0.01695  3.964741  -0.009
C  C161  1  0.66924097  0.96446333  0.05325805  1  0.468428  -0.0113  0.039297  0.081653  -0.012218  3.960033  -0.006
C  C162  1  0.76794622  0.99976734  0.06008280  1  -0.027319  0.003872  -0.085206  -0.176143  0.001198  3.947651  0.004
C  C163  1  0.68133970  0.24877356  0.79881765  1  -0.072886  0.011489  -0.019373  -0.028674  0.006006  3.980254  0.009
C  C164  1  0.63896215  0.18137903  0.84782901  1  -0.050165  -0.00141  -0.078889  -0.112531  -0.002029  3.926861  -0.001
C  C165  1  0.55329652  0.09266348  0.83664964  1  -0.030025  0.012083  -0.019213  -0.028158  0.006208  3.979518  0.01
C  C166  1  0.51401228  0.06983747  0.77594149  1  -0.029756  -0.002516  -0.085864  -0.148646  -0.002996  3.948331  -0.002
C  C167  1  0.55862562  0.13432390  0.72595028  1  -0.077903  0.004293  -0.023362  0.079058  0.002177  4.017069  0.003
C  C168  1  0.64033930  0.22446099  0.73857708  1  0.009492  -0.003178  -0.085345  -0.140816  -0.003724  3.951039  -0.002
C  C169  1  0.52223147  0.10715309  0.65954404  1  0.297291  8.6e-05  -0.069495  -0.13882  -0.000649  3.941172  -0.001
C  C170  1  0.67205233  0.11472287  0.61864900  1  0.221737  0.005398  -0.07067  -0.225559  0.003105  3.865405  0.003
C  C171  1  0.71051881  0.09206597  0.55840945  1  1.585739  0.007251  0.211936  0.613964  0.005306  4.126827  0.005
C  C172  1  0.53639510  0.96056191  0.65383459  1  0.277369  0.005158  -0.067909  -0.225441  0.002529  3.898744  0.003
C  C173  1  0.54123537  0.88979292  0.60750252  1  1.58356  -0.002051  0.218258  0.613913  -0.003045  4.130423  -0.001
C  C174  1  0.76809863  0.34924537  0.80674307  1  1.567899  -0.002762  0.218372  0.600198  -0.003966  4.158245  -0.003
C  C175  1  0.49899398  0.02117598  0.88837383  1  1.571745  -0.008151  0.214469  0.589105  -0.009877  4.180313  -0.006
C  C176  1  0.71867636  0.97173228  0.41604034  1  0.434613  -0.00294  0.044871  0.101268  -0.00357  3.96059  -0.002
C  C177  1  0.75627885  0.91028182  0.41123011  1  -0.123046  0.000812  -0.084118  -0.17581  -0.000177  3.946186  0.001
C  C178  1  0.85631880  0.94962355  0.39899595  1  0.027452  -0.006645  0.001997  0.134778  -0.007189  4.057449  -0.003
C  C179  1  0.91282131  0.05127214  0.39265606  1  0.009921  -0.00013  -0.078849  -0.174453  -0.001211  3.913744  0.001
C  C180  1  0.86910655  0.10796471  0.39802702  1  0.472161  -0.005235  0.055373  0.119851  -0.005906  3.935816  -0.003
C  C181  1  0.90132321  0.88987474  0.39383437  1  -0.072094  -0.014358  -0.079862  -0.118823  -0.015579  3.976211  -0.008
C  C182  1  0.85478686  0.79242854  0.40323553  1  -0.033009  -0.004961  -0.084041  -0.126054  -0.005722  3.986544  -0.002
C  C183  1  0.89835931  0.73152181  0.39825788  1  -0.021523  -0.016026  0.002514  0.142229  -0.017189  4.051379  -0.01
C  C184  1  0.83848173  0.62953048  0.39735218  1  -0.106599  0.003773  -0.085914  -0.177659  0.001131  3.93435  0.004
C  C185  1  0.87917968  0.57068134  0.38947485  1  0.433237  -0.011308  0.040994  0.088461  -0.012263  3.957653  -0.006
C  C186  1  0.03459975  0.70488352  0.38610687  1  0.436062  -0.00731  0.039279  0.082608  -0.008054  3.960713  -0.004
C  C187  1  0.99941322  0.76831145  0.39344643  1  0.043778  0.002799  -0.084494  -0.176518  0.000733  3.946684  0.003
C  C188  1  0.75159760  0.43255809  0.13237415  1  -0.025277  0.011246  -0.019405  -0.028439  0.005903  3.976023  0.009
C  C189  1  0.81903267  0.45704174  0.18131928  1  0.004883  -0.000684  -0.078597  -0.112501  -0.001281  3.924113  0.0
C  C190  1  0.90764117  0.46009248  0.16987608  1  -0.063125  0.012537  -0.019297  -0.026106  0.006535  3.972897  0.01
C  C191  1  0.93023426  0.44408293  0.10898720  1  -0.018365  -0.001728  -0.086289  -0.150127  -0.00221  3.948928  -0.001
C  C192  1  0.86562222  0.42440929  0.05912004  1  -0.020635  0.00418  -0.023253  0.079698  0.002132  4.015837  0.003
C  C193  1  0.77565898  0.41609979  0.07198298  1  -0.08933  -0.00216  -0.085419  -0.140552  -0.002666  3.948562  -0.001
C  C194  1  0.89244528  0.41502854  0.99264974  1  0.29043  7.5e-05  -0.069707  -0.138373  -0.000657  3.940818  -0.001
C  C195  1  0.88484893  0.55727380  0.95180154  1  0.24533  0.005417  -0.070416  -0.224845  0.003142  3.864029  0.003
C  C196  1  0.90724509  0.61838963  0.89156738  1  1.595313  0.007126  0.211815  0.613625  0.005235  4.126563  0.005
C  C197  1  0.03899010  0.57583377  0.98694636  1  0.265182  0.005134  -0.067934  -0.22536  0.002514  3.89915  0.003
C  C198  1  0.10979498  0.65159816  0.94070823  1  1.570009  -0.002042  0.218246  0.614109  -0.003071  4.130346  -0.001
C  C199  1  0.65113760  0.41880982  0.14042988  1  1.577397  -0.002713  0.218669  0.600701  -0.003932  4.159105  -0.003
C  C200  1  0.97896466  0.47590636  0.22155911  1  1.564225  -0.005973  0.213891  0.587809  -0.007195  4.181982  -0.005
C  C201  1  0.02852034  0.74798162  0.74955743  1  0.464076  -0.002591  0.044908  0.10083  -0.003218  3.961358  -0.001
C  C202  1  0.09001214  0.84711920  0.74483981  1  -0.005727  -0.001186  -0.084626  -0.17608  -0.001867  3.946583  0.0
C  C203  1  0.05078426  0.90796729  0.73272684  1  -0.029209  -0.006769  0.000538  0.132583  -0.007376  4.061658  -0.003
C  C204  1  0.94912262  0.86269470  0.72646232  1  -0.101847  -0.002059  -0.078975  -0.172898  -0.002964  3.913568  0.0
C  C205  1  0.89238459  0.76220989  0.73171908  1  0.63801  -0.005292  0.054154  0.116848  -0.006064  3.938748  -0.003
C  C206  1  0.11043906  0.01273675  0.72756486  1  -0.065655  -0.021913  -0.082411  -0.122487  -0.02368  3.982863  -0.012
C  C207  1  0.20801512  0.06373996  0.73656046  1  0.069883  -0.004115  -0.085236  -0.127418  -0.005467  3.990587  -0.001
C  C208  1  0.26892289  0.16825488  0.73197451  1  -0.065874  -0.02373  0.000429  0.138455  -0.025089  4.053507  -0.014
C  C209  1  0.37094609  0.21055651  0.73172747  1  0.06766  0.005569  -0.0867  -0.176538  0.001701  3.93902  0.005
C  C210  1  0.42979228  0.31017683  0.72412383  1  0.41087  -0.016367  0.038481  0.082705  -0.017231  3.96399  -0.009
C  C211  1  0.29569997  0.33139602  0.72002777  1  0.436077  -0.011416  0.039237  0.081581  -0.012378  3.961165  -0.006
C  C212  1  0.23227917  0.23268509  0.72694504  1  -0.073014  0.003899  -0.085355  -0.175685  0.001189  3.9484  0.004
C  C213  1  0.43251760  0.68115957  0.96566674  1  -0.020284  0.011433  -0.018806  -0.02857  0.005986  3.978743  0.009
C  C214  1  0.45774836  0.63883207  0.01458517  1  -0.064347  -0.001316  -0.079181  -0.112392  -0.00195  3.926355  -0.001
C  C215  1  0.46076542  0.55318888  0.00333348  1  0.016802  0.011994  -0.018449  -0.027411  0.006172  3.97946  0.01
C  C216  1  0.44425117  0.51400860  0.94259181  1  -0.058591  -0.00243  -0.08604  -0.148244  -0.002921  3.948183  -0.002
C  C217  1  0.42420564  0.55858817  0.89267134  1  0.011386  0.004303  -0.023744  0.07907  0.002182  4.017915  0.003
C  C218  1  0.41564030  0.64016416  0.90539636  1  -0.094413  -0.003098  -0.085105  -0.141079  -0.003663  3.950834  -0.002
C  C219  1  0.41499561  0.52228562  0.82626347  1  0.283175  8e-05  -0.070132  -0.138679  -0.000657  3.941649  -0.001
C  C220  1  0.55745973  0.67243857  0.78572485  1  0.273945  0.005416  -0.070229  -0.223081  0.003158  3.86319  0.003
C  C221  1  0.61815021  0.71161709  0.72536881  1  1.589493  0.007039  0.2115  0.611535  0.00514  4.128161  0.005
C  C222  1  0.57575340  0.53645937  0.82035372  1  0.243781  0.005111  -0.067694  -0.225133  0.002507  3.898417  0.003
C  C223  1  0.65153233  0.54179006  0.77397078  1  1.571483  -0.002083  0.218167  0.614556  -0.003096  4.12896  -0.001
C  C224  1  0.41876588  0.76786315  0.97366542  1  1.576218  -0.002644  0.218369  0.601671  -0.003932  4.158454  -0.003
C  C225  1  0.47793741  0.49883361  0.05500536  1  1.565874  -0.008056  0.21395  0.587801  -0.009878  4.18305  -0.006
C  C226  1  0.74771080  0.71912051  0.58320261  1  0.352524  -0.002543  0.044369  0.099609  -0.003156  3.961419  -0.001
C  C227  1  0.84679501  0.75682149  0.57830835  1  0.058437  -0.001125  -0.084838  -0.176571  -0.001817  3.947271  0.0
C  C228  1  0.90754995  0.85690448  0.56594082  1  -0.02589  -0.006805  0.000721  0.133195  -0.007365  4.06074  -0.003
C  C229  1  0.86225478  0.91323095  0.55953351  1  -0.075756  -0.002016  -0.079143  -0.174246  -0.002983  3.915036  0.0
C  C230  1  0.76183242  0.86942340  0.56495655  1  0.541126  -0.005241  0.054073  0.117078  -0.005986  3.938723  -0.003
C  C231  1  0.01228777  0.90208085  0.56074557  1  -0.035324  -0.021852  -0.082094  -0.12138  -0.023724  3.981142  -0.012
C  C232  1  0.06332158  0.85558702  0.56982011  1  0.021952  -0.004349  -0.085538  -0.128331  -0.005476  3.992262  -0.001
C  C233  1  0.16778955  0.89923015  0.56520762  1  -0.026605  -0.023465  0.000735  0.140981  -0.025021  4.05078  -0.014
C  C234  1  0.20997687  0.83942934  0.56509122  1  -0.06115  0.005445  -0.086945  -0.178079  0.001685  3.939014  0.005
C  C235  1  0.30954591  0.88013652  0.55751511  1  0.499468  -0.016234  0.037569  0.083191  -0.017205  3.964043  -0.009
C  C236  1  0.33098351  0.03557813  0.55320583  1  0.465923  -0.011413  0.039703  0.082851  -0.012345  3.96023  -0.006
C  C237  1  0.23229350  0.00032696  0.56005700  1  -0.025988  0.003858  -0.085294  -0.176539  0.001179  3.947546  0.004
C  C238  1  0.31860783  0.75111056  0.29861266  1  -0.070645  0.012029  -0.018846  -0.027757  0.006235  3.98034  0.01
C  C239  1  0.36095532  0.81855776  0.34763068  1  -0.056522  -0.002219  -0.080033  -0.114136  -0.002847  3.92757  -0.001
C  C240  1  0.44680772  0.90719492  0.33654718  1  -0.027877  0.012457  -0.01927  -0.027875  0.006406  3.979151  0.01
C  C241  1  0.48626467  0.92992143  0.27587311  1  -0.047777  -0.003992  -0.086656  -0.150457  -0.004542  3.949607  -0.003
C  C242  1  0.44175964  0.86540242  0.22589587  1  -0.07118  0.004529  -0.022933  0.080672  0.002269  4.016573  0.003
C  C243  1  0.35996571  0.77526613  0.23845135  1  0.024812  -0.004447  -0.084714  -0.140865  -0.005026  3.94868  -0.003
C  C244  1  0.47812975  0.89274501  0.15950432  1  0.298889  6.2e-05  -0.070253  -0.140197  -0.000674  3.94173  -0.001
C  C245  1  0.32811201  0.88505319  0.11878230  1  0.221504  0.005413  -0.069809  -0.223088  0.003111  3.863068  0.003
C  C246  1  0.28940173  0.90755561  0.05859551  1  1.58269  0.007145  0.211255  0.612818  0.005224  4.12747  0.005
C  C247  1  0.46371952  0.03928401  0.15392239  1  0.281498  0.005112  -0.067458  -0.224205  0.002503  3.899232  0.003
C  C248  1  0.45883437  0.11009045  0.10764190  1  1.586758  -0.002081  0.217503  0.612011  -0.003059  4.132777  -0.001
C  C249  1  0.23101826  0.65109777  0.30611214  1  1.570851  -0.006007  0.217805  0.599734  -0.00776  4.162129  -0.004
C  C250  1  0.50094361  0.97888942  0.38822452  1  1.570189  -0.008042  0.214335  0.589121  -0.009755  4.17921  -0.006
C  C251  1  0.28080606  0.02860308  0.91610795  1  0.479061  -0.002632  0.044364  0.09977  -0.003237  3.962367  -0.001
C  C252  1  0.24310163  0.08997140  0.91114483  1  -0.08258  -0.00109  -0.084381  -0.175691  -0.001784  3.946705  0.0
C  C253  1  0.14298366  0.05053750  0.89900488  1  0.018287  -0.006792  0.00069  0.133477  -0.007332  4.058835  -0.003
C  C254  1  0.08664863  0.94881215  0.89282279  1  0.016407  -0.001856  -0.079269  -0.174158  -0.002857  3.915139  0.0
C  C255  1  0.13046984  0.89222369  0.89827233  1  0.459716  -0.005351  0.053547  0.116478  -0.006014  3.939137  -0.003
C  C256  1  0.09772302  0.11005204  0.89392694  1  0.006679  -0.02158  -0.082097  -0.121433  -0.023324  3.979022  -0.012
C  C257  1  0.14411286  0.20760823  0.90312928  1  -0.059789  -0.004241  -0.084928  -0.127787  -0.005382  3.989856  -0.001
C  C258  1  0.10045186  0.26841564  0.89852693  1  -0.021906  -0.023255  0.00077  0.139918  -0.02483  4.051428  -0.014
C  C259  1  0.16028434  0.37045211  0.89831915  1  -0.000463  0.005495  -0.086458  -0.177331  0.001703  3.93794  0.005
C  C260  1  0.11964674  0.42935314  0.89068360  1  0.458424  -0.016122  0.037689  0.083877  -0.017031  3.964055  -0.009
C  C261  1  0.96420095  0.29527381  0.88655551  1  0.423764  -0.011379  0.039403  0.082096  -0.012304  3.96021  -0.006
C  C262  1  0.99937029  0.23178026  0.89347650  1  -0.032182  0.003923  -0.085107  -0.17529  0.001226  3.946505  0.004
C  C263  1  0.24899288  0.56780817  0.63237746  1  -0.035478  0.011464  -0.019242  -0.028086  0.006015  3.977983  0.009
C  C264  1  0.18142555  0.54294971  0.68124392  1  0.023904  -0.001337  -0.078822  -0.112305  -0.001911  3.923612  -0.001
C  C265  1  0.09290131  0.54006442  0.66981552  1  -0.049245  0.012101  -0.018497  -0.026306  0.006214  3.977287  0.01
C  C266  1  0.07040553  0.55645351  0.60898301  1  -0.019312  -0.002464  -0.08586  -0.149828  -0.003003  3.947785  -0.002
C  C267  1  0.13498019  0.57590737  0.55910376  1  -0.067596  0.005426  -0.023083  0.080333  0.002615  4.016858  0.004
C  C268  1  0.22497894  0.58430870  0.57199418  1  -0.026483  -0.003003  -0.084617  -0.141089  -0.003588  3.950742  -0.002
C  C269  1  0.10803705  0.58431498  0.49249505  1  0.236315  0.001844  -0.070295  -0.139893  0.001732  3.937893  0.0
C  C270  1  0.11595371  0.44163327  0.45265102  1  0.238826  0.004338  -0.069019  -0.223753  0.001713  3.867181  0.002
C  C271  1  0.09368834  0.38114729  0.39223821  1  1.57087  0.008  0.212666  0.614733  0.005553  4.12689  0.005
C  C272  1  0.96169949  0.42300850  0.48803888  1  0.236667  0.005049  -0.067909  -0.224507  0.002627  3.89302  0.003
C  C273  1  0.88937247  0.34857048  0.44179943  1  1.589934  -0.001708  0.217583  0.613483  -0.002762  4.134846  -0.001
C  C274  1  0.34934984  0.58138835  0.64040052  1  1.577536  -0.002767  0.218564  0.600667  -0.003994  4.157259  -0.003
C  C275  1  0.02119053  0.52275103  0.72139478  1  1.561198  -0.008066  0.214264  0.587469  -0.009894  4.183401  -0.006
C  C276  1  0.97144759  0.25237790  0.24947279  1  0.465744  -0.006695  0.041909  0.096208  -0.007141  3.962771  -0.004
C  C277  1  0.91015305  0.15324350  0.24466497  1  0.020383  0.001644  -0.084641  -0.174988  0.000141  3.950615  0.003
C  C278  1  0.94946911  0.09245856  0.23256661  1  0.009778  -0.014692  -0.001139  0.129974  -0.01574  4.063299  -0.008
C  C279  1  0.05116245  0.13797190  0.22631525  1  -0.191796  0.000366  -0.079564  -0.173792  -0.001033  3.918992  0.002
C  C280  1  0.10781274  0.23842844  0.23172234  1  0.595794  -0.011495  0.052453  0.11409  -0.012687  3.938959  -0.006
C  C281  1  0.88987732  0.98770427  0.22746365  1  -0.071205  -0.019493  -0.082553  -0.12124  -0.021124  3.983382  -0.01
C  C282  1  0.79226544  0.93661327  0.23640405  1  0.073854  -0.011368  -0.087533  -0.131627  -0.01289  3.993716  -0.005
C  C283  1  0.73137350  0.83210271  0.23191192  1  -0.141263  -0.022966  0.000615  0.140784  -0.024197  4.052548  -0.014
C  C284  1  0.62935377  0.78979509  0.23174500  1  0.085443  0.003508  -0.087548  -0.178581  0.000523  3.940444  0.004
C  C285  1  0.57047334  0.69015606  0.22423513  1  0.412521  -0.015721  0.037655  0.083134  -0.016548  3.965004  -0.009
C  C286  1  0.70452531  0.66890030  0.22003541  1  0.4291  -0.010757  0.038853  0.081954  -0.011697  3.962914  -0.006
C  C287  1  0.76796865  0.76763282  0.22686556  1  -0.016618  0.002025  -0.085993  -0.177131  7.8e-05  3.948617  0.003
N  N288  1  0.49093102  0.43501412  0.29165167  1  -1.010342  0.065257  -0.329277  -0.090063  0.034514  3.53517  0.056
N  N289  1  0.29545309  0.22637768  0.07625803  1  -1.222989  0.053742  -0.335159  -0.26765  0.028894  3.612941  0.046
N  N290  1  0.62978781  0.02294969  0.05132278  1  -1.21351  0.050456  -0.338869  -0.253501  0.026928  3.602005  0.043
N  N291  1  0.56482523  0.05556540  0.62485393  1  -0.976992  0.065911  -0.328685  -0.089056  0.034936  3.536476  0.057
N  N292  1  0.77347269  0.06924190  0.40917501  1  -1.231745  0.056082  -0.33452  -0.267532  0.030071  3.613231  0.047
N  N293  1  0.97603573  0.60697669  0.38355226  1  -1.240858  0.050255  -0.335915  -0.252672  0.02677  3.590224  0.04
N  N294  1  0.94402412  0.50924184  0.95792758  1  -1.011314  0.065816  -0.328788  -0.089377  0.034891  3.535927  0.057
N  N295  1  0.93100517  0.70515802  0.74270914  1  -1.221447  0.053497  -0.334837  -0.268341  0.028786  3.613274  0.045
N  N296  1  0.39365990  0.37092953  0.71797057  1  -1.203036  0.050365  -0.339383  -0.253036  0.026911  3.603411  0.043
N  N297  1  0.50926977  0.56511482  0.79158385  1  -1.010926  0.066195  -0.328721  -0.089701  0.035019  3.534125  0.057
N  N298  1  0.70490133  0.77377841  0.57624776  1  -1.22027  0.053731  -0.33485  -0.266983  0.028912  3.612612  0.046
N  N299  1  0.37038185  0.97704573  0.55125548  1  -1.214079  0.050343  -0.339311  -0.254213  0.026866  3.602547  0.043
N  N300  1  0.43535343  0.94430480  0.12491918  1  -0.980596  0.065775  -0.328442  -0.089801  0.03488  3.536031  0.057
N  N301  1  0.22615623  0.93103140  0.90939286  1  -1.219603  0.053674  -0.334286  -0.267484  0.028813  3.612287  0.046
N  N302  1  0.02275769  0.39327749  0.88446147  1  -1.217141  0.050386  -0.338565  -0.254688  0.026874  3.601138  0.043
N  N303  1  0.05650073  0.48928604  0.45843119  1  -0.974789  0.066895  -0.329057  -0.089276  0.03528  3.533317  0.057
N  N304  1  0.06908381  0.29542977  0.24274254  1  -1.223115  0.057325  -0.336413  -0.265957  0.03122  3.613217  0.047
N  N305  1  0.60655856  0.62936732  0.21808373  1  -1.196681  0.047952  -0.340082  -0.255221  0.025657  3.604197  0.041
O  O306  1  0.42598800  0.34277580  0.17549927  1  -1.138127  0.132031  -0.332649  -0.619451  0.069855  2.584927  0.113
O  O307  1  0.30332637  0.21231042  0.22552099  1  -1.144571  0.027654  -0.306422  -0.496664  0.013303  2.066727  0.023
O  O308  1  0.37693935  0.48241476  0.21726374  1  -1.165655  0.052507  -0.30051  -0.552261  0.027189  2.304207  0.045
O  O309  1  0.26699564  0.43784051  0.29659086  1  -1.158666  0.06119  -0.301529  -0.537838  0.031986  2.308784  0.052
O  O310  1  0.63928714  0.22857782  0.43438953  1  -1.164787  0.06127  -0.316754  -0.57896  0.03157  2.416523  0.054
O  O311  1  0.53503805  0.17106825  0.51767579  1  -1.169253  0.069799  -0.309276  -0.563091  0.035889  2.337588  0.06
O  O312  1  0.49236968  0.45923049  0.60784684  1  -1.157168  0.069258  -0.315786  -0.548372  0.035913  2.362823  0.06
O  O313  1  0.54000147  0.58674756  0.54103832  1  -1.158281  0.077667  -0.315419  -0.574094  0.040214  2.407504  0.068
O  O314  1  0.46937416  0.24812412  0.99718940  1  -1.225745  0.057407  -0.568743  -0.74809  0.029914  2.064311  0.045
O  O315  1  0.65667796  0.08266356  0.50851030  1  -1.14448  0.132821  -0.33255  -0.620063  0.070265  2.583786  0.114
O  O316  1  0.78604273  0.08839252  0.55858829  1  -1.145492  0.028072  -0.305549  -0.496354  0.013539  2.070074  0.023
O  O317  1  0.51724825  0.89444311  0.55037696  1  -1.169481  0.054317  -0.299918  -0.551119  0.028104  2.306438  0.047
O  O318  1  0.56518662  0.83073310  0.62876072  1  -1.153144  0.063122  -0.298948  -0.53479  0.033083  2.311179  0.054
O  O319  1  0.77225480  0.41089674  0.76697844  1  -1.162072  0.060942  -0.317304  -0.579525  0.031478  2.412836  0.054
O  O320  1  0.82896502  0.36423627  0.85072911  1  -1.163958  0.069859  -0.308863  -0.561709  0.035802  2.336575  0.06
O  O321  1  0.54114003  0.03389738  0.94129859  1  -1.153713  0.069316  -0.316504  -0.548873  0.035887  2.363264  0.06
O  O322  1  0.41376932  0.95316521  0.87451129  1  -1.167467  0.077126  -0.315102  -0.573872  0.039911  2.405519  0.067
O  O323  1  0.75179311  0.22266880  0.33090085  1  -1.192144  0.05794  -0.568672  -0.748855  0.03018  2.062581  0.046
O  O324  1  0.91704320  0.57417996  0.84167552  1  -1.143412  0.133061  -0.332838  -0.620257  0.070503  2.583174  0.114
O  O325  1  0.91034055  0.69733025  0.89176299  1  -1.145007  0.027968  -0.305157  -0.495967  0.013487  2.068696  0.023
O  O326  1  0.10511674  0.62312575  0.88353412  1  -1.162211  0.054447  -0.300154  -0.551617  0.028133  2.306251  0.047
O  O327  1  0.16897164  0.73454379  0.96208841  1  -1.157389  0.062853  -0.299535  -0.535557  0.03292  2.308652  0.054
O  O328  1  0.58946868  0.36133387  0.10065296  1  -1.165667  0.060816  -0.317202  -0.579095  0.031377  2.413532  0.054
O  O329  1  0.63617319  0.46466219  0.18445138  1  -1.173275  0.069335  -0.309582  -0.563186  0.035554  2.33407  0.059
O  O330  1  0.96337887  0.50006416  0.27552959  1  -1.15454  0.068289  -0.314869  -0.549941  0.034784  2.3623  0.06
O  O331  1  0.04795222  0.46081038  0.20652014  1  -1.160101  0.073928  -0.315029  -0.574681  0.037988  2.400842  0.065
O  O332  1  0.77860059  0.53016213  0.66378259  1  -1.232257  0.058009  -0.568966  -0.749011  0.030221  2.064092  0.046
O  O333  1  0.57401999  0.65749462  0.67549264  1  -1.137153  0.133019  -0.332681  -0.61923  0.070417  2.584837  0.114
O  O334  1  0.69668654  0.78798649  0.72548547  1  -1.146997  0.027891  -0.305982  -0.495671  0.013414  2.066123  0.023
O  O335  1  0.62307133  0.51836117  0.71676824  1  -1.167841  0.054467  -0.299991  -0.552103  0.028197  2.308474  0.047
O  O336  1  0.73444410  0.56542296  0.79528335  1  -1.152359  0.06276  -0.299594  -0.535747  0.032955  2.308871  0.054
O  O337  1  0.36098011  0.77180846  0.93405743  1  -1.167583  0.061003  -0.317317  -0.5799  0.031442  2.412761  0.054
O  O338  1  0.46489918  0.82888358  0.01753945  1  -1.168562  0.069308  -0.309239  -0.562902  0.03565  2.33586  0.06
O  O339  1  0.50729041  0.54084707  0.10798579  1  -1.155611  0.068639  -0.315609  -0.547851  0.035558  2.362411  0.06
O  O340  1  0.46066321  0.41362035  0.04106369  1  -1.159036  0.077113  -0.316036  -0.574857  0.039941  2.405166  0.068
O  O341  1  0.53119420  0.75211586  0.49707909  1  -1.210204  0.057602  -0.56871  -0.748923  0.030014  2.064352  0.046
O  O342  1  0.34323280  0.91719370  0.00864993  1  -1.143638  0.132877  -0.332684  -0.619906  0.070306  2.582954  0.114
O  O343  1  0.21364489  0.91077344  0.05882922  1  -1.143433  0.02794  -0.3052  -0.495751  0.013466  2.068936  0.023
O  O344  1  0.48270848  0.10539831  0.05049134  1  -1.168495  0.054454  -0.299607  -0.550339  0.028158  2.307204  0.047
O  O345  1  0.43501623  0.16922010  0.12893466  1  -1.157531  0.062863  -0.299106  -0.534346  0.032918  2.310117  0.054
O  O346  1  0.22646616  0.58884874  0.26672280  1  -1.16116  0.057819  -0.318339  -0.579138  0.029892  2.412979  0.051
O  O347  1  0.16877470  0.63696761  0.34887633  1  -1.167438  0.071421  -0.31084  -0.563747  0.036808  2.351542  0.062
O  O348  1  0.45891594  0.96597756  0.44121896  1  -1.154243  0.06975  -0.316546  -0.54905  0.036108  2.361756  0.061
O  O349  1  0.58592115  0.04740732  0.37431326  1  -1.166404  0.077634  -0.31536  -0.574974  0.040199  2.402566  0.068
O  O350  1  0.24877249  0.77885329  0.83056192  1  -1.230634  0.057897  -0.569146  -0.748836  0.030129  2.063164  0.046
O  O351  1  0.08362278  0.42615569  0.34287619  1  -1.138298  0.135829  -0.331906  -0.620202  0.071559  2.583459  0.117
O  O352  1  0.09039495  0.30215497  0.39177635  1  -1.134834  0.029844  -0.303374  -0.494342  0.014493  2.069297  0.025
O  O353  1  0.89182346  0.37935102  0.38557612  1  -1.173403  0.052852  -0.299575  -0.551122  0.027396  2.305674  0.045
O  O354  1  0.83135501  0.26472727  0.46250921  1  -1.156477  0.061483  -0.30004  -0.536736  0.03219  2.30795  0.052
O  O355  1  0.41095481  0.63857395  0.60050272  1  -1.167057  0.060903  -0.316986  -0.578897  0.031439  2.413341  0.054
O  O356  1  0.36422619  0.53561011  0.68450664  1  -1.173879  0.06973  -0.309188  -0.562381  0.035766  2.336676  0.06
O  O357  1  0.03362051  0.49307674  0.77431164  1  -1.157467  0.069029  -0.315831  -0.547931  0.035791  2.362639  0.06
O  O358  1  0.95332031  0.54004123  0.70740630  1  -1.159231  0.076927  -0.315434  -0.573706  0.039941  2.405598  0.067
O  O359  1  0.21946988  0.46611378  0.16394871  1  -1.235668  0.057098  -0.567791  -0.748212  0.029609  2.069392  0.045
