# generated using pymatgen
data_CoH32C49(N3O2)2
_symmetry_space_group_name_H-M   'P 1'
_cell_length_a   17.48075913
_cell_length_b   18.92905480
_cell_length_c   18.92906880
_cell_angle_alpha   60.19797185
_cell_angle_beta   78.81247315
_cell_angle_gamma   78.81224849
_symmetry_Int_Tables_number   1
_chemical_formula_structural   CoH32C49(N3O2)2
_chemical_formula_sum   'Co4 H128 C196 N24 O16'
_cell_volume   5296.71639737
_cell_formula_units_Z   4
loop_
 _symmetry_equiv_pos_site_id
 _symmetry_equiv_pos_as_xyz
  1  'x, y, z'
loop_
 _atom_site_type_symbol
 _atom_site_label
 _atom_site_symmetry_multiplicity
 _atom_site_fract_x
 _atom_site_fract_y
 _atom_site_fract_z
 _atom_site_occupancy
 _atom_site_pbe_bader_charge
 _atom_site_pbe_bader_spin_density
 _atom_site_pbe_cm5_charge
 _atom_site_pbe_ddec_charge
 _atom_site_pbe_ddec_spin_density
 _atom_site_pbe_ddec_sum_bond_order
 _atom_site_pbe_magmom
Co  Co0  1  0.95779192  0.45323665  0.74437844  1  1.254282  2.589003  0.665552  0.803609  2.808098  2.524044  2.568
Co  Co1  1  0.54221015  0.25562450  0.54675698  1  1.254285  2.588988  0.665578  0.803666  2.808076  2.524098  2.568
Co  Co2  1  0.04221003  0.54676055  0.25562453  1  1.254304  2.588996  0.665552  0.803595  2.808085  2.524053  2.568
Co  Co3  1  0.45779028  0.74437577  0.45323946  1  1.254386  2.588991  0.665589  0.803667  2.808084  2.524029  2.568
H  H4  1  0.15835134  0.47040685  0.74471052  1  0.134067  -3e-06  0.105138  0.117266  -0.000161  1.037005  0.0
H  H5  1  0.26825917  0.50684958  0.78009192  1  0.042615  5.4e-05  0.095153  0.093092  1.4e-05  1.0244  0.0
H  H6  1  0.40710555  0.46242589  0.74142587  1  0.048098  7e-06  0.088734  0.081741  -2.1e-05  1.053081  0.0
H  H7  1  0.06451672  0.33232909  0.61815167  1  0.08067  -0.000133  0.09567  0.09411  -0.00027  1.044939  0.0
H  H8  1  0.89593200  0.59287874  0.82862559  1  0.052972  2e-06  0.096992  0.098705  -0.000101  1.062004  0.0
H  H9  1  0.76625671  0.64304878  0.87481241  1  0.038753  7e-06  0.087475  0.081362  4e-06  1.063145  0.0
H  H10  1  0.73697871  0.62447900  0.01826106  1  0.039984  1.6e-05  0.092877  0.087814  1e-06  1.016012  0.0
H  H11  1  0.16185175  0.44490466  0.88705780  1  0.08511  0.000126  0.0999  0.102895  4.6e-05  1.03557  0.0
H  H12  1  0.77942746  0.53477504  0.76430168  1  0.125623  0.000819  0.116669  0.110143  0.000103  1.032451  0.0
H  H13  1  0.73979935  0.70362147  0.69136613  1  0.137056  0.000571  0.123173  0.121115  0.000238  1.040983  0.0
H  H14  1  0.98584097  0.64820983  0.64624225  1  0.182568  0.000432  0.140666  0.115831  -6.9e-05  1.007148  0.0
H  H15  1  0.76959578  0.81949367  0.67819913  1  0.066079  3.3e-05  0.102414  0.107143  1.2e-05  1.043297  0.0
H  H16  1  0.77436576  0.96862165  0.59111807  1  0.073448  1.1e-05  0.099738  0.099667  -1.3e-05  1.027196  0.0
H  H17  1  0.97691081  0.92406098  0.44251246  1  0.053826  -6e-06  0.099648  0.097589  -7e-06  1.017862  0.0
H  H18  1  0.97124599  0.77498794  0.52726215  1  0.082878  -3e-06  0.10329  0.103206  -1.9e-05  1.048939  0.0
H  H19  1  0.86263860  0.06876522  0.56164230  1  0.075718  1.1e-05  0.095375  0.089446  1e-06  1.048008  0.0
H  H20  1  0.88995584  0.27987144  0.32225706  1  0.115423  3.3e-05  0.106454  0.117166  2.6e-05  1.04477  0.0
H  H21  1  0.89025650  0.04174040  0.34632154  1  0.057105  -1e-06  0.100501  0.098807  -3e-06  1.023535  0.0
H  H22  1  0.82032756  0.10687293  0.24727651  1  0.10616  2.3e-05  0.102912  0.105124  9e-06  1.016595  0.0
H  H23  1  0.80489941  0.16976202  0.10127082  1  0.064869  3.3e-05  0.108399  0.115964  1.3e-05  0.992133  0.0
H  H24  1  0.90851601  0.38016086  0.05518140  1  0.060767  2.5e-05  0.107314  0.111102  -6e-06  1.040998  0.0
H  H25  1  0.92850760  0.31658466  0.19891253  1  0.155863  4.3e-05  0.102734  0.119806  4.9e-05  1.053299  0.0
H  H26  1  0.74492725  0.27272808  0.97977886  1  0.082685  0.000882  0.123448  0.122006  0.000369  1.006114  0.0
H  H27  1  0.78516571  0.36474100  0.81162153  1  0.110417  0.0007  0.113806  0.106829  0.000123  1.022409  0.0
H  H28  1  0.95288434  0.38111215  0.93319858  1  0.213272  0.000471  0.139044  0.112057  -5.3e-05  1.034292  0.0
H  H29  1  0.85364801  0.34933081  0.37460395  1  0.090746  0.000129  0.107838  0.114284  6.4e-05  1.019954  0.0
H  H30  1  0.85752217  0.43533469  0.43335403  1  0.171499  0.00065  0.107388  0.124285  0.000446  1.053858  0.0
H  H31  1  0.89422549  0.22170100  0.66759460  1  0.09396  -2.9e-05  0.106853  0.112569  -4.1e-05  1.000851  0.0
H  H32  1  0.89618977  0.13413329  0.60636517  1  0.045809  7e-06  0.100009  0.098856  6e-06  1.012769  0.0
H  H33  1  0.82201655  0.50201638  0.49514628  1  0.139712  0.000986  0.12144  0.115672  0.000424  1.055766  0.0
H  H34  1  0.85203530  0.56165234  0.59183874  1  0.112196  0.000722  0.116069  0.109996  0.000205  1.035115  0.0
H  H35  1  0.93547421  0.31037378  0.69704826  1  0.131597  0.000345  0.140782  0.109424  -0.000174  0.993826  0.0
H  H36  1  0.34165313  0.25529205  0.52959284  1  0.134038  -3e-06  0.105102  0.117297  -0.000161  1.036874  0.0
H  H37  1  0.23174554  0.21990781  0.49315113  1  0.042575  5.4e-05  0.095179  0.093135  1.4e-05  1.024376  0.0
H  H38  1  0.09289793  0.25857093  0.53757575  1  0.048254  7e-06  0.088676  0.081628  -2.1e-05  1.053136  0.0
H  H39  1  0.43548605  0.38185237  0.66766634  1  0.080603  -0.000133  0.095688  0.094101  -0.00027  1.044984  0.0
H  H40  1  0.60406818  0.17137416  0.40712057  1  0.052941  2e-06  0.097013  0.098734  -0.000102  1.062037  0.0
H  H41  1  0.73374295  0.12518644  0.35695381  1  0.038771  7e-06  0.087471  0.081369  4e-06  1.063205  0.0
H  H42  1  0.76302167  0.98173991  0.37552090  1  0.039788  1.6e-05  0.092891  0.087824  1e-06  1.015967  0.0
H  H43  1  0.33815101  0.11294323  0.55509730  1  0.085067  0.000126  0.099897  0.102926  4.6e-05  1.035549  0.0
H  H44  1  0.72057352  0.23569986  0.46522486  1  0.125633  0.00082  0.116694  0.110191  0.000103  1.03243  0.0
H  H45  1  0.76020114  0.30863518  0.29637839  1  0.137079  0.000571  0.123157  0.121063  0.000238  1.040946  0.0
H  H46  1  0.51415955  0.35375660  0.35178873  1  0.182576  0.000432  0.140673  0.115839  -6.9e-05  1.007139  0.0
H  H47  1  0.73040403  0.32180014  0.18050610  1  0.066054  3.3e-05  0.102419  0.107167  1.2e-05  1.043295  0.0
H  H48  1  0.72563526  0.40888050  0.03137850  1  0.073432  1.1e-05  0.09974  0.099652  -1.3e-05  1.027209  0.0
H  H49  1  0.52309016  0.55748907  0.07593778  1  0.053734  -6e-06  0.099664  0.097593  -7e-06  1.017852  0.0
H  H50  1  0.52875466  0.47273765  0.22501120  1  0.082914  -3e-06  0.103296  0.103236  -1.9e-05  1.048946  0.0
H  H51  1  0.63736011  0.43835894  0.93123413  1  0.075741  1.1e-05  0.095368  0.089475  1e-06  1.048022  0.0
H  H52  1  0.61004156  0.67774513  0.72012791  1  0.115549  3.3e-05  0.106441  0.117203  2.6e-05  1.044766  0.0
H  H53  1  0.60974329  0.65367963  0.95825880  1  0.057021  -1e-06  0.100487  0.098797  -3e-06  1.023515  0.0
H  H54  1  0.67967019  0.75272444  0.89312771  1  0.106217  2.3e-05  0.102916  0.10514  9e-06  1.016568  0.0
H  H55  1  0.69509910  0.89872947  0.83023924  1  0.064856  3.3e-05  0.108384  0.115971  1.3e-05  0.992135  0.0
H  H56  1  0.59148550  0.94482184  0.61983686  1  0.060572  2.5e-05  0.107281  0.111034  -6e-06  1.041069  0.0
H  H57  1  0.57149189  0.80109070  0.68341389  1  0.155437  4.3e-05  0.102706  0.119746  4.9e-05  1.053354  0.0
H  H58  1  0.75507179  0.02022000  0.72727601  1  0.082631  0.000882  0.123473  0.122018  0.000369  1.006148  0.0
H  H59  1  0.71483520  0.18837932  0.63526212  1  0.110358  0.0007  0.113792  0.106827  0.000123  1.02241  0.0
H  H60  1  0.54711804  0.06680361  0.61888547  1  0.213269  0.000471  0.13905  0.1121  -5.3e-05  1.034317  0.0
H  H61  1  0.64635132  0.62539565  0.65066893  1  0.09074  0.000129  0.10785  0.114319  6.4e-05  1.019944  0.0
H  H62  1  0.64247983  0.56664462  0.56466501  1  0.171463  0.00065  0.107389  0.124256  0.000446  1.053902  0.0
H  H63  1  0.60577249  0.33240723  0.77829863  1  0.093983  -2.9e-05  0.10686  0.112629  -4.1e-05  1.000845  0.0
H  H64  1  0.60380564  0.39363637  0.86586653  1  0.045801  7e-06  0.100038  0.098874  6e-06  1.012774  0.0
H  H65  1  0.67798395  0.50485339  0.49798437  1  0.139515  0.000987  0.121455  0.115681  0.000424  1.055783  0.0
H  H66  1  0.64796684  0.40816156  0.43834698  1  0.112154  0.000722  0.116052  0.109978  0.000205  1.035127  0.0
H  H67  1  0.56452736  0.30295084  0.68962415  1  0.131661  0.000345  0.140744  0.109362  -0.000174  0.993802  0.0
H  H68  1  0.84165034  0.52959280  0.25528917  1  0.134013  -3e-06  0.105114  0.117228  -0.000161  1.037016  0.0
H  H69  1  0.73174373  0.49314947  0.21990679  1  0.042583  5.4e-05  0.09518  0.093098  1.4e-05  1.024382  0.0
H  H70  1  0.59289618  0.53757315  0.25857252  1  0.048103  7e-06  0.088694  0.08166  -2.1e-05  1.053176  0.0
H  H71  1  0.93548492  0.66766566  0.38185204  1  0.080615  -0.000133  0.095669  0.094088  -0.00027  1.044943  0.0
H  H72  1  0.10406953  0.40712215  0.17137246  1  0.052738  2e-06  0.096983  0.098716  -0.000102  1.061994  0.0
H  H73  1  0.23374328  0.35695026  0.12518683  1  0.038783  7e-06  0.087487  0.081392  4e-06  1.06311  0.0
H  H74  1  0.26302063  0.37552065  0.98173959  1  0.039975  1.6e-05  0.092887  0.087798  1e-06  1.016024  0.0
H  H75  1  0.83814914  0.55509684  0.11294112  1  0.085162  0.000126  0.099883  0.102863  4.6e-05  1.035584  0.0
H  H76  1  0.22057489  0.46522399  0.23570401  1  0.125684  0.000819  0.116662  0.110143  0.000103  1.032427  0.0
H  H77  1  0.26020072  0.29637696  0.30863658  1  0.137069  0.000571  0.123151  0.121068  0.000238  1.040957  0.0
H  H78  1  0.01415932  0.35179168  0.35375308  1  0.18256  0.000432  0.140679  0.115843  -6.9e-05  1.007168  0.0
H  H79  1  0.23040135  0.18050477  0.32179882  1  0.066099  3.3e-05  0.102426  0.107178  1.2e-05  1.043167  0.0
H  H80  1  0.22563248  0.03137740  0.40887991  1  0.073334  1.1e-05  0.099741  0.099662  -1.3e-05  1.027201  0.0
H  H81  1  0.02308866  0.07593745  0.55748823  1  0.053825  -6e-06  0.099631  0.097561  -7e-06  1.017888  0.0
H  H82  1  0.02875290  0.22501049  0.47273707  1  0.082955  -3e-06  0.103295  0.103239  -1.9e-05  1.048955  0.0
H  H83  1  0.13735862  0.93123259  0.43835911  1  0.075756  1.1e-05  0.095374  0.089496  1e-06  1.047991  0.0
H  H84  1  0.11004008  0.72012760  0.67774557  1  0.115545  3.3e-05  0.106457  0.117221  2.6e-05  1.044799  0.0
H  H85  1  0.10974233  0.95825864  0.65367950  1  0.057061  -1e-06  0.100508  0.098825  -3e-06  1.0235  0.0
H  H86  1  0.17966881  0.89312734  0.75272543  1  0.106239  2.3e-05  0.102888  0.105096  9e-06  1.016564  0.0
H  H87  1  0.19509806  0.83023885  0.89873062  1  0.064863  3.3e-05  0.108389  0.115987  1.3e-05  0.992132  0.0
H  H88  1  0.09148522  0.61983757  0.94482109  1  0.060738  2.5e-05  0.10729  0.111052  -6e-06  1.041057  0.0
H  H89  1  0.07149188  0.68341377  0.80108975  1  0.155371  4.3e-05  0.102716  0.119777  4.9e-05  1.053332  0.0
H  H90  1  0.25507060  0.72727463  0.02022212  1  0.082702  0.000882  0.123464  0.122037  0.000369  1.006092  0.0
H  H91  1  0.21483337  0.63526110  0.18838006  1  0.11043  0.0007  0.11381  0.106839  0.000123  1.022371  0.0
H  H92  1  0.04711559  0.61888750  0.06680301  1  0.213273  0.000471  0.139029  0.112024  -5.3e-05  1.034387  0.0
H  H93  1  0.14634797  0.65066762  0.62539844  1  0.090691  0.000129  0.107839  0.114318  6.4e-05  1.019888  0.0
H  H94  1  0.14247368  0.56466496  0.56664672  1  0.171471  0.00065  0.107366  0.124235  0.000446  1.053894  0.0
H  H95  1  0.10577327  0.77829865  0.33240721  1  0.093991  -2.9e-05  0.106874  0.112645  -4.1e-05  1.000837  0.0
H  H96  1  0.10380732  0.86586575  0.39363777  1  0.045835  7e-06  0.099992  0.098842  6e-06  1.012736  0.0
H  H97  1  0.17798221  0.49798327  0.50485447  1  0.139789  0.000986  0.121445  0.115699  0.000424  1.055788  0.0
H  H98  1  0.14796624  0.43834854  0.40816037  1  0.112154  0.000722  0.116045  0.109958  0.000205  1.03517  0.0
H  H99  1  0.06452520  0.68962526  0.30295162  1  0.131639  0.000345  0.14078  0.109403  -0.000174  0.99386  0.0
H  H100  1  0.65834885  0.74471006  0.47040452  1  0.134106  -3e-06  0.105113  0.117272  -0.000161  1.036932  0.0
H  H101  1  0.76825665  0.78009246  0.50684816  1  0.042599  5.4e-05  0.095162  0.093131  1.4e-05  1.024421  0.0
H  H102  1  0.90710415  0.74142504  0.46242727  1  0.048131  7e-06  0.088665  0.081642  -2.1e-05  1.053141  0.0
H  H103  1  0.56451517  0.61814606  0.33233245  1  0.080633  -0.000133  0.095696  0.094117  -0.00027  1.045015  0.0
H  H104  1  0.39593206  0.82862794  0.59287869  1  0.052769  3e-06  0.096971  0.098691  -0.000101  1.061999  0.0
H  H105  1  0.26625854  0.87481504  0.64304976  1  0.038822  7e-06  0.087489  0.081386  4e-06  1.06314  0.0
H  H106  1  0.23698149  0.01826219  0.62447995  1  0.039994  1.6e-05  0.092899  0.087831  1e-06  1.015965  0.0
H  H107  1  0.66185091  0.88705949  0.44490030  1  0.085144  0.000126  0.099861  0.102887  4.6e-05  1.035594  0.0
H  H108  1  0.27942647  0.76429918  0.53477438  1  0.125628  0.000819  0.116682  0.110156  0.000103  1.032369  0.0
H  H109  1  0.23979957  0.69136264  0.70362133  1  0.13699  0.000571  0.123153  0.121038  0.000238  1.041035  0.0
H  H110  1  0.48584089  0.64624367  0.64820982  1  0.182581  0.000432  0.140675  0.115835  -6.9e-05  1.007143  0.0
H  H111  1  0.26959596  0.67819891  0.81949209  1  0.066087  3.3e-05  0.102398  0.107143  1.2e-05  1.043235  0.0
H  H112  1  0.27436758  0.59111916  0.96862045  1  0.073434  1.1e-05  0.099747  0.099675  -1.3e-05  1.027282  0.0
H  H113  1  0.47691255  0.44251181  0.92406217  1  0.053797  -6e-06  0.099627  0.09756  -7e-06  1.017862  0.0
H  H114  1  0.47124663  0.52726017  0.77498894  1  0.082846  -3e-06  0.103278  0.103222  -1.9e-05  1.048909  0.0
H  H115  1  0.36264085  0.56164194  0.06876509  1  0.075719  1.1e-05  0.095375  0.089479  1e-06  1.047996  0.0
H  H116  1  0.38995823  0.32225575  0.27986993  1  0.115436  3.3e-05  0.106463  0.117254  2.6e-05  1.044703  0.0
H  H117  1  0.39025752  0.34632248  0.04173824  1  0.057096  -1e-06  0.100503  0.098809  -3e-06  1.023515  0.0
H  H118  1  0.32033096  0.24727461  0.10686973  1  0.106045  2.3e-05  0.102922  0.105143  9e-06  1.016525  0.0
H  H119  1  0.30490205  0.10126958  0.16975926  1  0.06484  3.3e-05  0.108379  0.115967  1.3e-05  0.99211  0.0
H  H120  1  0.40851473  0.05518027  0.38016135  1  0.060765  2.5e-05  0.10731  0.111079  -6e-06  1.041039  0.0
H  H121  1  0.42850770  0.19891202  0.31658360  1  0.155918  4.3e-05  0.10274  0.119788  4.9e-05  1.053302  0.0
H  H122  1  0.24492924  0.97978026  0.27272455  1  0.08267  0.000882  0.123452  0.122013  0.000369  1.006182  0.0
H  H123  1  0.28516693  0.81162156  0.36473741  1  0.110453  0.0007  0.113796  0.106817  0.000123  1.022401  0.0
H  H124  1  0.45288350  0.93319727  0.38111310  1  0.213202  0.000471  0.139039  0.112056  -5.3e-05  1.034335  0.0
H  H125  1  0.35364984  0.37460339  0.34933221  1  0.090731  0.000129  0.107822  0.114279  6.4e-05  1.019945  0.0
H  H126  1  0.35752133  0.43335442  0.43533561  1  0.171481  0.00065  0.107397  0.124276  0.000446  1.05387  0.0
H  H127  1  0.39422490  0.66759426  0.22170145  1  0.093978  -2.9e-05  0.106854  0.112591  -4.1e-05  1.000844  0.0
H  H128  1  0.39619066  0.60636450  0.13413459  1  0.045836  7e-06  0.100034  0.098894  6e-06  1.01277  0.0
H  H129  1  0.32201461  0.49514809  0.50201762  1  0.139478  0.000987  0.12146  0.115653  0.000424  1.055816  0.0
H  H130  1  0.35203268  0.59184177  0.56165233  1  0.112131  0.000722  0.116058  0.109955  0.000205  1.035134  0.0
H  H131  1  0.43547322  0.69704820  0.31037605  1  0.131682  0.000345  0.140763  0.109357  -0.000174  0.993806  0.0
C  C132  1  0.08797565  0.40443205  0.69268116  1  1.562736  -0.004544  0.194865  0.564814  -0.006966  4.210565  -0.006
C  C133  1  0.17108403  0.37998216  0.66684994  1  -0.049718  0.007689  -0.009026  -0.112269  0.004095  3.906625  0.004
C  C134  1  0.23300041  0.40290725  0.68647580  1  0.01561  0.003646  -0.005532  0.050158  0.001755  3.973026  0.002
C  C135  1  0.21880789  0.45023258  0.72859696  1  -0.093502  0.000141  -0.089986  -0.121511  -5.9e-05  3.936689  0.0
C  C136  1  0.28012817  0.47092378  0.74774019  1  -0.02001  0.001375  -0.100524  -0.091015  0.000715  4.029073  0.001
C  C137  1  0.35901173  0.44569239  0.72584359  1  -0.049922  0.001098  -0.103846  -0.09299  0.000549  4.049922  0.001
C  C138  1  0.12497883  0.31488129  0.59949460  1  -0.108174  0.000215  -0.094741  -0.126888  -2.4e-05  3.987202  0.0
C  C139  1  0.18672072  0.33593366  0.62256954  1  0.002694  0.003873  -0.007182  0.048644  0.001908  3.991563  0.002
C  C140  1  0.03390146  0.52451831  0.83057728  1  1.609805  0.004681  0.206168  0.589262  0.002795  4.240215  0.004
C  C141  1  0.01698648  0.51200292  0.91785138  1  -0.005265  0.005552  -0.013949  -0.128764  0.002889  3.910885  0.004
C  C142  1  0.94316813  0.54252352  0.94408886  1  -0.072416  0.00139  -0.014167  0.038854  0.000658  4.007671  0.001
C  C143  1  0.88337145  0.58442962  0.89074312  1  0.007536  -0.000225  -0.09841  -0.127758  -0.000355  3.981409  0.0
C  C144  1  0.81108477  0.61269175  0.91668648  1  -0.061491  0.000682  -0.106431  -0.09489  0.000347  4.046164  0.0
C  C145  1  0.79453854  0.60189798  0.99779079  1  -0.120085  -6.8e-05  -0.103101  -0.093258  -0.000105  4.050335  0.0
C  C146  1  0.14941980  0.43744489  0.94893796  1  -0.007402  0.000615  -0.093991  -0.124449  0.000324  3.971644  0.0
C  C147  1  0.07397249  0.46922245  0.97297114  1  -0.019224  0.001162  -0.013006  0.043241  0.000556  4.004732  0.001
C  C148  1  0.81616869  0.58376741  0.72832330  1  0.354288  -0.001019  0.003149  -0.026849  -0.001898  4.004257  -0.001
C  C149  1  0.79577744  0.66672401  0.69375692  1  0.327998  0.003547  0.00247  -0.101402  0.002004  3.909181  0.002
C  C150  1  0.92431335  0.63985633  0.66636756  1  0.941614  0.000847  0.152751  0.116057  0.000337  3.852551  0.001
C  C151  1  0.86996710  0.78763299  0.60783841  1  0.298038  0.000733  0.095931  0.169371  0.000411  4.01134  0.001
C  C152  1  0.81505398  0.84214997  0.62651757  1  0.00982  0.000172  -0.090683  -0.160192  7.6e-05  3.981479  0.0
C  C153  1  0.81845793  0.92603816  0.57808024  1  -0.050557  0.000113  -0.086022  -0.108334  3.9e-05  3.975935  0.0
C  C154  1  0.87621413  0.95696844  0.51094218  1  -0.041081  -0.000204  -0.007216  0.063602  -0.000223  4.00133  0.0
C  C155  1  0.93094438  0.90122181  0.49371074  1  -0.056272  8.2e-05  -0.086273  -0.10794  2.7e-05  3.977732  0.0
C  C156  1  0.92822603  0.81726658  0.54164582  1  0.064953  -0.000174  -0.091389  -0.164483  -0.000219  4.005455  0.0
C  C157  1  0.87897662  0.04605746  0.45925695  1  -0.028102  4.7e-05  -0.006503  0.084811  -2e-06  4.032861  0.0
C  C158  1  0.87176116  0.09661839  0.49504142  1  -0.097541  -0.000804  -0.090341  -0.18212  -0.000879  3.946026  0.0
C  C159  1  0.87749214  0.18094323  0.44686971  1  0.024105  4.1e-05  -0.009906  0.073551  -9e-06  4.021749  0.0
C  C160  1  0.88537284  0.21456247  0.36115611  1  -0.108539  0.000239  -0.085379  -0.176116  0.000133  3.8861  0.0
C  C161  1  0.88572555  0.16621662  0.32386083  1  -0.002098  4.1e-05  -0.008321  0.077351  4e-06  4.01954  0.0
C  C162  1  0.88671881  0.08120108  0.37380622  1  -0.025667  -0.000131  -0.089027  -0.183046  -0.000146  3.946688  0.0
C  C163  1  0.87850902  0.20447077  0.23518173  1  -0.046145  -0.000412  -0.011919  0.048505  -0.000454  3.99813  0.0
C  C164  1  0.84216296  0.16581740  0.20539437  1  -0.00539  0.000123  -0.08976  -0.11888  2.4e-05  3.989221  0.0
C  C165  1  0.83177611  0.20178929  0.12290914  1  -0.109216  -9.3e-05  -0.095378  -0.171651  -0.000177  4.012102  0.0
C  C166  1  0.85691488  0.27855703  0.06823761  1  0.286286  0.000568  0.092765  0.161336  0.000237  4.028838  0.001
C  C167  1  0.89125950  0.31905961  0.09683789  1  0.043777  -0.00039  -0.086387  -0.15282  -0.000428  3.962537  0.0
C  C168  1  0.90240667  0.28223220  0.17908396  1  -0.064061  0.000224  -0.084734  -0.107627  9.8e-05  3.933049  0.0
C  C169  1  0.79364266  0.30813550  0.94510192  1  0.277406  0.004001  -0.008915  -0.128568  0.002018  3.955981  0.002
C  C170  1  0.81422664  0.35412929  0.86228095  1  0.429357  -0.000786  -0.003636  -0.033894  -0.001564  4.02504  0.0
C  C171  1  0.90124249  0.36533559  0.92293537  1  0.957757  -0.00728  0.151605  0.122444  -0.008764  3.856156  -0.004
C  C172  1  0.87452311  0.23339829  0.48514558  1  0.058957  -0.000742  -0.012936  0.043332  -0.000806  4.00604  0.0
C  C173  1  0.86214238  0.31930678  0.43918415  1  -0.094355  0.000138  -0.081618  -0.106887  -4e-06  3.956471  0.0
C  C174  1  0.86214376  0.36941533  0.47326940  1  -0.053283  0.000731  -0.086933  -0.150507  0.000227  3.962109  0.001
C  C175  1  0.87399266  0.33523941  0.55545077  1  0.283858  0.000619  0.094364  0.169733  0.000253  4.017405  0.001
C  C176  1  0.88526125  0.24987650  0.60326035  1  -0.048414  -0.00056  -0.098502  -0.179933  -0.00061  4.01843  0.0
C  C177  1  0.88567903  0.20028619  0.56806559  1  -0.059278  0.00029  -0.092463  -0.124179  0.00013  4.010367  0.0
C  C178  1  0.84843065  0.47112145  0.55171998  1  0.247342  0.003039  0.002597  -0.091988  0.001567  3.904366  0.002
C  C179  1  0.86408529  0.49982807  0.60030755  1  0.472907  0.001142  -0.000146  -0.018923  0.000554  3.984959  0.001
C  C180  1  0.90697669  0.36996126  0.65706158  1  0.947992  -0.004972  0.14011  0.088499  -0.006476  3.896478  -0.002
C  C181  1  0.41202653  0.30732136  0.59556590  1  1.562906  -0.004543  0.194843  0.564747  -0.006966  4.210626  -0.006
C  C182  1  0.32891856  0.33315064  0.62001609  1  -0.049692  0.007688  -0.009013  -0.112293  0.004094  3.906617  0.004
C  C183  1  0.26700354  0.31352555  0.59709308  1  0.015234  0.003648  -0.005476  0.050232  0.001755  3.973076  0.002
C  C184  1  0.28119613  0.27140423  0.54976619  1  -0.093128  0.000141  -0.089941  -0.121528  -5.9e-05  3.936419  0.0
C  C185  1  0.21987686  0.25225872  0.52907647  1  -0.020047  0.001376  -0.100571  -0.091124  0.000716  4.028965  0.001
C  C186  1  0.14099309  0.27415392  0.55431068  1  -0.049898  0.001098  -0.103832  -0.092854  0.000549  4.049936  0.001
C  C187  1  0.37502314  0.40050837  0.68511566  1  -0.108125  0.000215  -0.094794  -0.126815  -2.4e-05  3.987426  0.0
C  C188  1  0.31328255  0.37743232  0.66406565  1  0.003513  0.003872  -0.007126  0.048626  0.001908  3.991569  0.002
C  C189  1  0.46609980  0.16942447  0.47548079  1  1.609613  0.004683  0.206158  0.589203  0.002795  4.240138  0.004
C  C190  1  0.48301432  0.08214978  0.48799707  1  -0.005279  0.005553  -0.01397  -0.128761  0.002889  3.910863  0.004
C  C191  1  0.55683217  0.05591064  0.45747613  1  -0.072465  0.00139  -0.014131  0.038942  0.000658  4.007633  0.001
C  C192  1  0.61662871  0.10925574  0.41557328  1  0.007817  -0.000225  -0.098468  -0.127845  -0.000355  3.981441  0.0
C  C193  1  0.68891527  0.08331367  0.38730999  1  -0.061545  0.000682  -0.106422  -0.094913  0.000347  4.046213  0.0
C  C194  1  0.70546167  0.00220960  0.39810184  1  -0.120162  -6.8e-05  -0.103059  -0.093164  -0.000105  4.050224  0.0
C  C195  1  0.35058110  0.05106329  0.56255687  1  -0.007209  0.000615  -0.094006  -0.124504  0.000324  3.971779  0.0
C  C196  1  0.42602996  0.02702949  0.53077899  1  -0.019212  0.001162  -0.012994  0.043205  0.000556  4.00466  0.001
C  C197  1  0.68383161  0.27167889  0.41623394  1  0.354126  -0.001019  0.003136  -0.026958  -0.001899  4.004183  -0.001
C  C198  1  0.70422248  0.30624506  0.33327749  1  0.32809  0.003548  0.002474  -0.101284  0.002005  3.909064  0.002
C  C199  1  0.57568710  0.33363309  0.36014210  1  0.942145  0.000846  0.152816  0.116159  0.000337  3.852521  0.001
C  C200  1  0.63003593  0.39216051  0.21236576  1  0.298038  0.000733  0.09592  0.16937  0.000411  4.01141  0.001
C  C201  1  0.68494692  0.37348201  0.15784988  1  0.009792  0.000172  -0.090662  -0.160165  7.6e-05  3.981583  0.0
C  C202  1  0.68154191  0.42192053  0.07396153  1  -0.050477  0.000113  -0.086074  -0.108366  3.9e-05  3.975979  0.0
C  C203  1  0.62378677  0.48905915  0.04302903  1  -0.041347  -0.000205  -0.007185  0.063564  -0.000223  4.00144  0.0
C  C204  1  0.56905647  0.50628829  0.09877823  1  -0.056113  8.2e-05  -0.086337  -0.107949  2.7e-05  3.977708  0.0
C  C205  1  0.57177528  0.45835370  0.18273370  1  0.064974  -0.000174  -0.09134  -0.164473  -0.000219  4.005443  0.0
C  C206  1  0.62102424  0.54074572  0.95394194  1  -0.028197  4.7e-05  -0.006449  0.084855  -2e-06  4.032813  0.0
C  C207  1  0.62823809  0.50496051  0.90338145  1  -0.097176  -0.000804  -0.090435  -0.182315  -0.000879  3.946003  0.0
C  C208  1  0.62250396  0.55313173  0.81905624  1  0.023951  4.1e-05  -0.009884  0.073651  -9e-06  4.021749  0.0
C  C209  1  0.61462390  0.63884603  0.78543709  1  -0.108616  0.000239  -0.085366  -0.176232  0.000133  3.88621  0.0
C  C210  1  0.61427260  0.67614078  0.83378396  1  -0.002052  4.1e-05  -0.008333  0.077363  4e-06  4.019542  0.0
C  C211  1  0.61328135  0.62619538  0.91879874  1  -0.025717  -0.000131  -0.08902  -0.183022  -0.000145  3.946574  0.0
C  C212  1  0.62148943  0.76481971  0.79553085  1  -0.045917  -0.000412  -0.011909  0.04853  -0.000453  3.9981  0.0
C  C213  1  0.65783623  0.79460643  0.83418372  1  -0.005493  0.000123  -0.089757  -0.11887  2.4e-05  3.989076  0.0
C  C214  1  0.66822358  0.87709062  0.79821168  1  -0.109262  -9.3e-05  -0.095372  -0.171701  -0.000177  4.011985  0.0
C  C215  1  0.64308685  0.93176415  0.72144273  1  0.286639  0.000568  0.09282  0.161489  0.000237  4.028692  0.001
C  C216  1  0.60874203  0.90316498  0.68093875  1  0.043886  -0.00039  -0.08636  -0.152811  -0.000428  3.962408  0.0
C  C217  1  0.59759375  0.82091780  0.71776827  1  -0.063943  0.000224  -0.08474  -0.107603  9.8e-05  3.933008  0.0
C  C218  1  0.70635801  0.05489783  0.69186658  1  0.278209  0.004  -0.008936  -0.128499  0.002017  3.955911  0.002
C  C219  1  0.68577429  0.13771967  0.64587198  1  0.428928  -0.000785  -0.003671  -0.033962  -0.001564  4.025014  0.0
C  C220  1  0.59875841  0.07706628  0.63466408  1  0.95773  -0.00728  0.151579  0.122393  -0.008765  3.856199  -0.004
C  C221  1  0.62547238  0.51485596  0.76660086  1  0.059046  -0.000741  -0.012908  0.043454  -0.000806  4.005813  0.0
C  C222  1  0.63785543  0.56081767  0.68069259  1  -0.094374  0.000138  -0.081642  -0.107004  -4e-06  3.956367  0.0
C  C223  1  0.63785511  0.52672985  0.63058515  1  -0.053205  0.000731  -0.086934  -0.150447  0.000227  3.962076  0.001
C  C224  1  0.62600645  0.44454886  0.66476084  1  0.283831  0.000619  0.094411  0.169814  0.000253  4.017382  0.001
C  C225  1  0.61473682  0.39674072  0.75012315  1  -0.048136  -0.00056  -0.098513  -0.180049  -0.00061  4.018441  0.0
C  C226  1  0.61431704  0.43193575  0.79971481  1  -0.059561  0.00029  -0.092479  -0.124172  0.00013  4.01015  0.0
C  C227  1  0.65156963  0.44827892  0.52887969  1  0.247367  0.003038  0.00259  -0.091992  0.001567  3.904355  0.002
C  C228  1  0.63591527  0.39969197  0.50017041  1  0.472871  0.001142  -0.000103  -0.018921  0.000553  3.984915  0.001
C  C229  1  0.59302457  0.34293683  0.63003783  1  0.947954  -0.004971  0.140096  0.088489  -0.006475  3.896559  -0.002
C  C230  1  0.91202534  0.59556331  0.30732236  1  1.562915  -0.004543  0.194864  0.564846  -0.006966  4.210449  -0.006
C  C231  1  0.82891668  0.62001566  0.33315030  1  -0.049765  0.007687  -0.009056  -0.112427  0.004094  3.90676  0.004
C  C232  1  0.76700082  0.59709118  0.31352510  1  0.015374  0.003647  -0.005475  0.050257  0.001755  3.972978  0.002
C  C233  1  0.78119443  0.54976646  0.27140238  1  -0.093125  0.000141  -0.089941  -0.12142  -5.9e-05  3.936628  0.0
C  C234  1  0.71987474  0.52907526  0.25225799  1  -0.020053  0.001376  -0.100577  -0.091104  0.000715  4.029042  0.001
C  C235  1  0.64099059  0.55430666  0.27415522  1  -0.049996  0.001098  -0.103818  -0.09288  0.000549  4.049924  0.001
C  C236  1  0.87502239  0.68511714  0.40050577  1  -0.108232  0.000215  -0.09471  -0.126774  -2.4e-05  3.987242  0.0
C  C237  1  0.81328089  0.66406661  0.37742932  1  0.002712  0.003872  -0.007184  0.048583  0.001908  3.991556  0.002
C  C238  1  0.96609832  0.47548258  0.16942108  1  1.609954  0.004681  0.20626  0.589351  0.002795  4.240272  0.004
C  C239  1  0.98301506  0.48799796  0.08214773  1  -0.007944  0.005555  -0.013974  -0.128746  0.002889  3.910814  0.004
C  C240  1  0.05683334  0.45747798  0.05590890  1  -0.069809  0.001388  -0.014102  0.038877  0.000658  4.007593  0.001
C  C241  1  0.11662872  0.41557310  0.10925533  1  0.008188  -0.000225  -0.098475  -0.12782  -0.000355  3.981452  0.0
C  C242  1  0.18891444  0.38730913  0.08331358  1  -0.061869  0.000682  -0.106435  -0.094958  0.000347  4.046088  0.0
C  C243  1  0.20546241  0.39810290  0.00220737  1  -0.120089  -6.7e-05  -0.103094  -0.093137  -0.000105  4.050167  0.0
C  C244  1  0.85058064  0.56255538  0.05106059  1  -0.007503  0.000615  -0.093931  -0.124339  0.000324  3.971581  0.0
C  C245  1  0.92602840  0.53077905  0.02702778  1  -0.019101  0.001162  -0.012973  0.043295  0.000556  4.004603  0.001
C  C246  1  0.18383280  0.41623407  0.27168133  1  0.354058  -0.001019  0.00317  -0.026841  -0.001898  4.00404  -0.001
C  C247  1  0.20422243  0.33327625  0.30624649  1  0.328089  0.003547  0.00248  -0.101313  0.002005  3.909095  0.002
C  C248  1  0.07568644  0.36014456  0.33363028  1  0.941789  0.000848  0.152767  0.116095  0.000338  3.852508  0.001
C  C249  1  0.13003282  0.21236667  0.39215949  1  0.297927  0.000733  0.095935  0.169454  0.000411  4.011238  0.001
C  C250  1  0.18494367  0.15784908  0.37348104  1  0.009807  0.000172  -0.09069  -0.160209  7.6e-05  3.98133  0.0
C  C251  1  0.18154031  0.07396088  0.42191932  1  -0.050474  0.000113  -0.086037  -0.10835  3.9e-05  3.975985  0.0
C  C252  1  0.12378555  0.04302815  0.48905780  1  -0.041285  -0.000204  -0.007165  0.06357  -0.000223  4.001479  0.0
C  C253  1  0.06905510  0.09877662  0.50628943  1  -0.05623  8.2e-05  -0.086267  -0.107874  2.7e-05  3.977689  0.0
C  C254  1  0.07177265  0.18273370  0.45835146  1  0.065068  -0.000174  -0.091397  -0.164569  -0.000219  4.005451  0.0
C  C255  1  0.12102338  0.95394158  0.54074493  1  -0.028177  4.7e-05  -0.006519  0.084801  -2e-06  4.032901  0.0
C  C256  1  0.12823657  0.90338004  0.50496065  1  -0.097229  -0.000804  -0.090391  -0.18226  -0.000879  3.946011  0.0
C  C257  1  0.12250261  0.81905580  0.55313313  1  0.02409  4.1e-05  -0.00989  0.073634  -9e-06  4.021848  0.0
C  C258  1  0.11462256  0.78543595  0.63884745  1  -0.108673  0.000239  -0.085386  -0.176221  0.000134  3.886269  0.0
C  C259  1  0.11427322  0.83378303  0.67614098  1  -0.00208  4.1e-05  -0.008387  0.077309  4e-06  4.01956  0.0
C  C260  1  0.11328112  0.91879857  0.62619484  1  -0.025691  -0.000131  -0.089007  -0.183024  -0.000146  3.946582  0.0
C  C261  1  0.12148813  0.79552765  0.76482150  1  -0.046009  -0.000412  -0.011892  0.048475  -0.000453  3.998185  0.0
C  C262  1  0.15783398  0.83418286  0.79460693  1  -0.005412  0.000123  -0.089689  -0.118674  2.4e-05  3.98887  0.0
C  C263  1  0.16822193  0.79821158  0.87709271  1  -0.10923  -9.3e-05  -0.095372  -0.171797  -0.000177  4.011946  0.0
C  C264  1  0.14308382  0.72144323  0.93176443  1  0.286387  0.000568  0.092799  0.161418  0.000237  4.028767  0.001
C  C265  1  0.10873991  0.68093942  0.90316410  1  0.043753  -0.00039  -0.086366  -0.152788  -0.000428  3.962509  0.0
C  C266  1  0.09759172  0.71776561  0.82091935  1  -0.063724  0.000224  -0.084747  -0.107618  9.8e-05  3.933184  0.0
C  C267  1  0.20635525  0.69186660  0.05489936  1  0.277348  0.004001  -0.00894  -0.128578  0.002018  3.955935  0.002
C  C268  1  0.18577200  0.64587158  0.13772080  1  0.429298  -0.000786  -0.003607  -0.033864  -0.001564  4.024922  0.0
C  C269  1  0.09875549  0.63466590  0.07706567  1  0.95781  -0.007277  0.1516  0.122482  -0.008761  3.856293  -0.004
C  C270  1  0.12546989  0.76660074  0.51485757  1  0.058874  -0.000742  -0.012919  0.043353  -0.000806  4.005903  0.0
C  C271  1  0.13785354  0.68069225  0.56081954  1  -0.09458  0.000138  -0.08169  -0.107019  -4e-06  3.956334  0.0
C  C272  1  0.13785093  0.63058432  0.52673367  1  -0.052955  0.000731  -0.086863  -0.150386  0.000227  3.962006  0.001
C  C273  1  0.12600312  0.66476085  0.44455127  1  0.284003  0.000619  0.094334  0.169708  0.000253  4.017492  0.001
C  C274  1  0.11473635  0.75012315  0.39674114  1  -0.047594  -0.00056  -0.098533  -0.180067  -0.00061  4.018526  0.0
C  C275  1  0.11431513  0.79971284  0.43193683  1  -0.060299  0.00029  -0.092437  -0.124115  0.00013  4.010094  0.0
C  C276  1  0.15156811  0.52887821  0.44828077  1  0.247275  0.003039  0.002639  -0.092005  0.001567  3.904394  0.002
C  C277  1  0.13591535  0.50017036  0.39969346  1  0.472938  0.001142  -0.000113  -0.018869  0.000554  3.984925  0.001
C  C278  1  0.09302316  0.63003901  0.34293655  1  0.947915  -0.004973  0.140094  0.088477  -0.006478  3.896564  -0.002
C  C279  1  0.58797261  0.69268014  0.40443386  1  1.562724  -0.004544  0.194862  0.564761  -0.006966  4.210658  -0.006
C  C280  1  0.67108325  0.66684779  0.37998312  1  -0.049535  0.007687  -0.009135  -0.112438  0.004094  3.906746  0.004
C  C281  1  0.73299676  0.68647595  0.40290595  1  0.015256  0.003647  -0.005467  0.050323  0.001755  3.972906  0.002
C  C282  1  0.71880527  0.72859788  0.45023127  1  -0.093241  0.000141  -0.089931  -0.121503  -5.9e-05  3.936431  0.0
C  C283  1  0.78012474  0.74774155  0.47092187  1  -0.019931  0.001375  -0.100565  -0.091117  0.000715  4.029022  0.001
C  C284  1  0.85900931  0.72584451  0.44568949  1  -0.049747  0.001098  -0.1038  -0.092867  0.000549  4.049908  0.001
C  C285  1  0.62497692  0.59949006  0.31488440  1  -0.108092  0.000215  -0.09476  -0.126805  -2.4e-05  3.987357  0.0
C  C286  1  0.68671679  0.62256734  0.33593500  1  0.003391  0.003871  -0.007112  0.048655  0.001908  3.991621  0.002
C  C287  1  0.53390160  0.83057763  0.52451826  1  1.609785  0.004683  0.206203  0.589254  0.002795  4.240503  0.004
C  C288  1  0.51698527  0.91785294  0.51200096  1  -0.007901  0.005555  -0.013964  -0.128707  0.002889  3.910802  0.004
C  C289  1  0.44316865  0.94409147  0.54252197  1  -0.069858  0.001388  -0.014077  0.03895  0.000658  4.007445  0.001
C  C290  1  0.38337218  0.89074575  0.58442829  1  0.007751  -0.000225  -0.098481  -0.127804  -0.000355  3.981424  0.0
C  C291  1  0.31108795  0.91668783  0.61269010  1  -0.061246  0.000682  -0.106411  -0.094942  0.000348  4.046183  0.0
C  C292  1  0.29454012  0.99779434  0.60189835  1  -0.120429  -6.8e-05  -0.103074  -0.093135  -0.000105  4.050269  0.0
C  C293  1  0.64941901  0.94894004  0.43744234  1  -0.007256  0.000615  -0.093973  -0.124443  0.000324  3.971631  0.0
C  C294  1  0.57397079  0.97297323  0.46921988  1  -0.019275  0.001162  -0.013003  0.043193  0.000556  4.00473  0.001
C  C295  1  0.31616839  0.72832015  0.58376583  1  0.354111  -0.00102  0.00317  -0.026872  -0.001899  4.004078  -0.001
C  C296  1  0.29577655  0.69375214  0.66672336  1  0.328186  0.003548  0.002459  -0.101296  0.002005  3.90917  0.002
C  C297  1  0.42431282  0.66636656  0.63985632  1  0.941478  0.000849  0.152778  0.116108  0.000337  3.852544  0.001
C  C298  1  0.36996639  0.60783854  0.78763200  1  0.298016  0.000733  0.095942  0.169387  0.000411  4.011425  0.001
C  C299  1  0.31505534  0.62651765  0.84214864  1  0.009847  0.000172  -0.090682  -0.160197  7.6e-05  3.981513  0.0
C  C300  1  0.31846028  0.57807974  0.92603776  1  -0.050451  0.000113  -0.085991  -0.108296  3.9e-05  3.97609  0.0
C  C301  1  0.37621645  0.51094235  0.95696894  1  -0.041289  -0.000205  -0.007224  0.063563  -0.000223  4.00147  0.0
C  C302  1  0.43094593  0.49371014  0.90122194  1  -0.056369  8.2e-05  -0.086269  -0.107889  2.7e-05  3.9777  0.0
C  C303  1  0.42822704  0.54164535  0.81726617  1  0.065082  -0.000174  -0.09136  -0.164536  -0.000219  4.005401  0.0
C  C304  1  0.37897782  0.45925577  0.04605730  1  -0.032996  4.7e-05  -0.006457  0.084904  -2e-06  4.032952  0.0
C  C305  1  0.37176280  0.49504098  0.09661747  1  -0.097178  -0.000804  -0.090367  -0.182237  -0.00088  3.945982  0.0
C  C306  1  0.37749531  0.44686853  0.18094253  1  0.023929  4.1e-05  -0.009901  0.073619  -9e-06  4.021691  0.0
C  C307  1  0.38537530  0.36115485  0.21456086  1  -0.10836  0.000239  -0.085386  -0.176281  0.000133  3.886244  0.0
C  C308  1  0.38572718  0.32386010  0.16621388  1  -0.002254  4.1e-05  -0.008313  0.077431  4e-06  4.019591  0.0
C  C309  1  0.38672005  0.37380673  0.08119820  1  -0.020865  -0.000131  -0.08911  -0.183183  -0.000146  3.946773  0.0
C  C310  1  0.37851101  0.23518056  0.20446876  1  -0.045921  -0.000412  -0.011951  0.048432  -0.000454  3.998202  0.0
C  C311  1  0.34216602  0.20539323  0.16581533  1  -0.005039  0.000123  -0.089733  -0.118847  2.4e-05  3.988996  0.0
C  C312  1  0.33177699  0.12290843  0.20178745  1  -0.109532  -9.3e-05  -0.095357  -0.171668  -0.000177  4.011923  0.0
C  C313  1  0.35691528  0.06823673  0.27855627  1  0.286296  0.000568  0.092827  0.161426  0.000237  4.028739  0.001
C  C314  1  0.39125821  0.09683713  0.31905999  1  0.044027  -0.00039  -0.086424  -0.152855  -0.000428  3.962542  0.0
C  C315  1  0.40240669  0.17908247  0.28223081  1  -0.064461  0.000224  -0.084737  -0.107596  9.8e-05  3.933119  0.0
C  C316  1  0.29364483  0.94510183  0.30813237  1  0.277353  0.004001  -0.008916  -0.128533  0.002017  3.95599  0.002
C  C317  1  0.31422789  0.86228060  0.35412679  1  0.429269  -0.000786  -0.003629  -0.033909  -0.001564  4.024985  0.0
C  C318  1  0.40124255  0.92293460  0.36533566  1  0.957986  -0.007279  0.151628  0.122479  -0.008763  3.856258  -0.004
C  C319  1  0.37452631  0.48514430  0.23339959  1  0.059079  -0.000742  -0.012877  0.043453  -0.000806  4.005734  0.0
C  C320  1  0.36214450  0.43918198  0.31930847  1  -0.094606  0.000138  -0.081634  -0.106917  -4e-06  3.956296  0.0
C  C321  1  0.36214379  0.47326858  0.36941671  1  -0.053309  0.000731  -0.086952  -0.150529  0.000227  3.962143  0.001
C  C322  1  0.37399238  0.55545018  0.33524073  1  0.284166  0.000619  0.094442  0.169841  0.000253  4.017345  0.001
C  C323  1  0.38526129  0.60325955  0.24987794  1  -0.047974  -0.00056  -0.098521  -0.179991  -0.00061  4.018348  0.0
C  C324  1  0.38568159  0.56806513  0.20028694  1  -0.059809  0.00029  -0.092511  -0.124268  0.00013  4.010249  0.0
C  C325  1  0.34842725  0.55172195  0.47112291  1  0.247416  0.003039  0.002506  -0.092034  0.001568  3.904346  0.002
C  C326  1  0.36408322  0.60031014  0.49982970  1  0.47284  0.001142  -6.7e-05  -0.018781  0.000553  3.98496  0.001
C  C327  1  0.40697478  0.65706282  0.36996281  1  0.948156  -0.004972  0.140047  0.088541  -0.006477  3.896437  -0.002
N  N328  1  0.89619117  0.56780041  0.71097726  1  -1.205733  0.052282  -0.35156  -0.301774  0.027845  3.631758  0.042
N  N329  1  0.86480039  0.70208146  0.65442940  1  -1.280651  0.003528  -0.223925  0.00827  0.00162  3.788562  0.002
N  N330  1  0.84962763  0.31579550  0.98322283  1  -1.272094  0.000438  -0.226895  0.010139  -0.000333  3.800692  0.001
N  N331  1  0.88145144  0.38932076  0.84940631  1  -1.207343  0.050727  -0.344694  -0.284739  0.027287  3.567699  0.04
N  N332  1  0.87552214  0.38812121  0.58808658  1  -1.248104  0.002209  -0.22134  0.014512  0.000893  3.775852  0.002
N  N333  1  0.90080386  0.43643696  0.66570306  1  -1.204479  0.057604  -0.342159  -0.289806  0.031289  3.577241  0.046
N  N334  1  0.60381018  0.28902467  0.43219807  1  -1.206159  0.052289  -0.351686  -0.301949  0.027847  3.631888  0.042
N  N335  1  0.63519970  0.34557186  0.29791786  1  -1.280657  0.003529  -0.223896  0.008295  0.00162  3.788534  0.002
N  N336  1  0.65037487  0.01677826  0.68420341  1  -1.272413  0.000438  -0.226866  0.010048  -0.000333  3.800629  0.001
N  N337  1  0.61855034  0.15059530  0.61067698  1  -1.207373  0.050726  -0.34466  -0.28471  0.027287  3.567797  0.04
N  N338  1  0.62447881  0.41191310  0.61187651  1  -1.248081  0.00221  -0.22137  0.014514  0.000894  3.775843  0.002
N  N339  1  0.59919774  0.33429749  0.56356213  1  -1.204519  0.057605  -0.342153  -0.28978  0.03129  3.577403  0.046
N  N340  1  0.10381109  0.43219924  0.28902444  1  -1.205796  0.052286  -0.351621  -0.301865  0.027845  3.63178  0.042
N  N341  1  0.13520019  0.29791758  0.34556974  1  -1.28063  0.003529  -0.223881  0.008279  0.00162  3.788482  0.002
N  N342  1  0.15037172  0.68420415  0.01677939  1  -1.272015  0.000439  -0.226933  0.010038  -0.000333  3.800837  0.001
N  N343  1  0.11854784  0.61067950  0.15059404  1  -1.207505  0.050729  -0.34468  -0.284728  0.027288  3.56778  0.04
N  N344  1  0.12447662  0.61187844  0.41191364  1  -1.248026  0.00221  -0.22135  0.014566  0.000894  3.775749  0.002
N  N345  1  0.09919768  0.56356392  0.33429657  1  -1.20446  0.057604  -0.342159  -0.289808  0.031291  3.577331  0.046
N  N346  1  0.39619012  0.71097683  0.56779937  1  -1.205529  0.052282  -0.351646  -0.301895  0.027846  3.631799  0.042
N  N347  1  0.36479964  0.65442780  0.70207961  1  -1.280714  0.003528  -0.223927  0.008286  0.00162  3.788611  0.002
N  N348  1  0.34962848  0.98322202  0.31579514  1  -1.272017  0.000438  -0.226907  0.01009  -0.000333  3.800757  0.001
N  N349  1  0.38145171  0.84940620  0.38931961  1  -1.207546  0.050729  -0.344702  -0.284745  0.027288  3.567675  0.04
N  N350  1  0.37551988  0.58808717  0.38812289  1  -1.248184  0.002209  -0.221305  0.014521  0.000894  3.775664  0.002
N  N351  1  0.40080140  0.66570400  0.43643923  1  -1.204588  0.057607  -0.342141  -0.28988  0.031291  3.577439  0.046
O  O352  1  0.06118945  0.48036927  0.65764844  1  -1.146594  0.069032  -0.310402  -0.533896  0.035377  2.230177  0.059
O  O353  1  0.04602133  0.35105856  0.74959952  1  -1.138326  0.068515  -0.322367  -0.537255  0.034981  2.133644  0.059
O  O354  1  0.01840238  0.46551196  0.82250994  1  -1.164548  0.062826  -0.32117  -0.568103  0.032306  2.350435  0.052
O  O355  1  0.06060321  0.58901272  0.77442258  1  -1.185972  0.010416  -0.327496  -0.559601  0.004872  2.113755  0.009
O  O356  1  0.43881199  0.34235357  0.51962862  1  -1.146646  0.069031  -0.310424  -0.533877  0.035377  2.230186  0.059
O  O357  1  0.45398168  0.25040040  0.64893911  1  -1.138496  0.06851  -0.322335  -0.537214  0.034979  2.1336  0.059
O  O358  1  0.48160157  0.17749326  0.53448457  1  -1.164402  0.062832  -0.321191  -0.568098  0.032307  2.350357  0.052
O  O359  1  0.43939584  0.22557856  0.41098753  1  -1.18601  0.010416  -0.327486  -0.55956  0.004873  2.11373  0.009
O  O360  1  0.93881037  0.51962609  0.34235477  1  -1.14673  0.06903  -0.310404  -0.533871  0.035376  2.230038  0.059
O  O361  1  0.95398076  0.64893742  0.25040351  1  -1.138397  0.068516  -0.322366  -0.537268  0.034982  2.133608  0.059
O  O362  1  0.98159820  0.53448708  0.17749078  1  -1.16461  0.062824  -0.32121  -0.568156  0.032302  2.350409  0.052
O  O363  1  0.93939579  0.41099001  0.22557344  1  -1.186087  0.010417  -0.327532  -0.559631  0.004873  2.113789  0.009
O  O364  1  0.56118839  0.65764731  0.48037123  1  -1.146652  0.069034  -0.310411  -0.533869  0.035378  2.230206  0.059
O  O365  1  0.54601875  0.74959987  0.35105997  1  -1.138296  0.068512  -0.322371  -0.537242  0.034979  2.133656  0.059
O  O366  1  0.51839976  0.82250946  0.46551313  1  -1.164389  0.06283  -0.321225  -0.568146  0.032306  2.350349  0.052
O  O367  1  0.56060580  0.77442662  0.58900838  1  -1.186128  0.010415  -0.327467  -0.559549  0.004872  2.114077  0.009
