# generated using pymatgen
data_ZnH34C36(N2O3)2
_symmetry_space_group_name_H-M   'P 1'
_cell_length_a   11.23301335
_cell_length_b   12.84327417
_cell_length_c   41.75931501
_cell_angle_alpha   93.25896629
_cell_angle_beta   90.00447268
_cell_angle_gamma   115.93142249
_symmetry_Int_Tables_number   1
_chemical_formula_structural   ZnH34C36(N2O3)2
_chemical_formula_sum   'Zn6 H204 C216 N24 O36'
_cell_volume   5407.14766305
_cell_formula_units_Z   6
loop_
 _symmetry_equiv_pos_site_id
 _symmetry_equiv_pos_as_xyz
  1  'x, y, z'
loop_
 _atom_site_type_symbol
 _atom_site_label
 _atom_site_symmetry_multiplicity
 _atom_site_fract_x
 _atom_site_fract_y
 _atom_site_fract_z
 _atom_site_occupancy
 _atom_site_pbe_bader_charge
 _atom_site_pbe_bader_spin_density
 _atom_site_pbe_cm5_charge
 _atom_site_pbe_ddec_charge
 _atom_site_pbe_ddec_spin_density
 _atom_site_pbe_ddec_sum_bond_order
 _atom_site_pbe_magmom
Zn  Zn0  1  0.44629054  0.38836404  0.85189692  1  1.259109  0  0.701561  0.792012  0  2.399414  0
Zn  Zn1  1  0.05786829  0.61139190  0.64814964  1  1.260931  0  0.701444  0.79132  0  2.398807  0
Zn  Zn2  1  0.55370851  0.61163477  0.14810282  1  1.259109  0  0.701571  0.792095  0  2.399334  0
Zn  Zn3  1  0.94213208  0.38860778  0.35184987  1  1.260939  0  0.701457  0.79134  0  2.398772  0
Zn  Zn4  1  0.67368410  0.99980594  0.75005969  1  1.254846  0  0.690114  0.771585  0  2.420444  0
Zn  Zn5  1  0.32631671  0.00019461  0.24994056  1  1.254821  0  0.690083  0.771564  0  2.420569  0
H  H6  1  0.36779044  0.78926667  0.16745598  1  0.081917  0  0.099881  0.097235  0  1.041187  0
H  H7  1  0.57852267  0.21058962  0.33247540  1  0.076442  0  0.099452  0.096367  0  1.041203  0
H  H8  1  0.63221080  0.21073475  0.83254428  1  0.081909  0  0.099896  0.097276  0  1.041137  0
H  H9  1  0.42147418  0.78940659  0.66752381  1  0.07656  0  0.099406  0.096295  0  1.041234  0
H  H10  1  0.40373253  0.72894468  0.11167108  1  0.096283  0  0.103366  0.126097  0  1.037364  0
H  H11  1  0.67458780  0.27089891  0.38827416  1  0.143695  0  0.103328  0.126024  0  1.036474  0
H  H12  1  0.59627184  0.27105587  0.88832940  1  0.096283  0  0.103383  0.126145  0  1.037359  0
H  H13  1  0.32540458  0.72909903  0.61172533  1  0.143694  0  0.103317  0.126026  0  1.036428  0
H  H14  1  0.61365741  0.08996957  0.09118196  1  0.062096  0  0.099165  0.110144  0  1.047318  0
H  H15  1  0.52333298  0.90988677  0.40875885  1  0.064112  0  0.099349  0.109972  0  1.047293  0
H  H16  1  0.38634429  0.91003098  0.90881781  1  0.062067  0  0.099171  0.110149  0  1.047318  0
H  H17  1  0.47666297  0.09011118  0.59124111  1  0.064098  0  0.099349  0.109985  0  1.047257  0
H  H18  1  0.58498942  0.14677502  0.14707353  1  0.089735  0  0.093562  0.081494  0  1.069319  0
H  H19  1  0.43793861  0.85302719  0.35287663  1  0.093714  0  0.093968  0.081797  0  1.069794  0
H  H20  1  0.41501274  0.85322466  0.85292598  1  0.089722  0  0.093563  0.081481  0  1.069337  0
H  H21  1  0.56205733  0.14697075  0.64712333  1  0.09375  0  0.093985  0.081845  0  1.069775  0
H  H22  1  0.65882116  0.01258290  0.04699030  1  0.05476  0  0.099594  0.066959  0  1.025425  0
H  H23  1  0.64641826  0.98749131  0.45295628  1  0.055281  0  0.09963  0.067403  0  1.024763  0
H  H24  1  0.34117830  0.98741851  0.95300972  1  0.054743  0  0.099589  0.066928  0  1.025458  0
H  H25  1  0.35357985  0.01251097  0.54704304  1  0.05523  0  0.099641  0.067394  0  1.024764  0
H  H26  1  0.49409643  0.99424675  0.04504334  1  0.077767  0  0.100827  0.063359  0  1.035316  0
H  H27  1  0.49981873  0.00554621  0.45496360  1  0.047114  0  0.100718  0.063568  0  1.035659  0
H  H28  1  0.50590086  0.00575033  0.95495661  1  0.077764  0  0.100832  0.063333  0  1.035333  0
H  H29  1  0.50017678  0.99445087  0.54503611  1  0.04711  0  0.100725  0.063582  0  1.035577  0
H  H30  1  0.25886057  0.72716278  0.03752138  1  0.040727  0  0.095826  0.137059  0  0.986937  0
H  H31  1  0.53153230  0.27266068  0.46252633  1  0.058875  0  0.095859  0.137018  0  0.985815  0
H  H32  1  0.74113761  0.27283430  0.96247928  1  0.040791  0  0.095824  0.137048  0  0.986875  0
H  H33  1  0.46846538  0.72734074  0.53747345  1  0.058951  0  0.095847  0.136997  0  0.985885  0
H  H34  1  0.19881797  0.78614199  0.00738411  1  0.002638  0  0.089343  0.121745  0  1.024009  0
H  H35  1  0.41257224  0.21364064  0.49267346  1  -0.000279  0  0.089306  0.12179  0  1.023931  0
H  H36  1  0.80118243  0.21385595  0.99261633  1  0.002589  0  0.08934  0.121753  0  1.024028  0
H  H37  1  0.58742412  0.78635991  0.50732678  1  -0.000212  0  0.089325  0.121807  0  1.023908  0
H  H38  1  0.31130760  0.87780030  0.03775852  1  0.052968  0  0.095853  0.135944  0  1.019544  0
H  H39  1  0.43334697  0.12198951  0.46228357  1  0.064151  0  0.095728  0.135764  0  1.019293  0
H  H40  1  0.68869237  0.12219678  0.96224190  1  0.053271  0  0.095796  0.135866  0  1.019564  0
H  H41  1  0.56665073  0.87801017  0.53771642  1  0.064122  0  0.09574  0.135752  0  1.019321  0
H  H42  1  0.44886986  0.61052954  0.91790938  1  0.049832  0  0.096391  0.140197  0  0.982998  0
H  H43  1  0.83836654  0.38911972  0.58214092  1  0.057032  0  0.096339  0.140069  0  0.983155  0
H  H44  1  0.55113581  0.38947362  0.08209139  1  0.049795  0  0.096402  0.140237  0  0.982987  0
H  H45  1  0.16163429  0.61087909  0.41785833  1  0.057105  0  0.096323  0.14004  0  0.983166  0
H  H46  1  0.53071435  0.74715441  0.90121300  1  0.07615  0  0.097183  0.140707  0  1.017103  0
H  H47  1  0.78344658  0.25239399  0.59879514  1  0.076754  0  0.097314  0.141097  0  1.017093  0
H  H48  1  0.46928957  0.25284700  0.09878726  1  0.076417  0  0.097194  0.140703  0  1.017145  0
H  H49  1  0.21655377  0.74760743  0.40120488  1  0.076736  0  0.097288  0.141046  0  1.017126  0
H  H50  1  0.35963632  0.68906327  0.90744948  1  0.01796  0  0.08828  0.123778  0  1.023835  0
H  H51  1  0.67055319  0.31063739  0.59258465  1  0.006689  0  0.088536  0.123866  0  1.023972  0
H  H52  1  0.64036673  0.31093641  0.09255051  1  0.018246  0  0.088294  0.123837  0  1.023718  0
H  H53  1  0.32944762  0.68936315  0.40741559  1  0.006677  0  0.088504  0.12383  0  1.023959  0
H  H54  1  0.78832685  0.97465899  0.03058810  1  0.028472  0  0.0937  0.132491  0  1.020719  0
H  H55  1  0.81365123  0.02520321  0.46939625  1  0.027628  0  0.094024  0.132949  0  1.02053  0
H  H56  1  0.21167613  0.02534589  0.96941222  1  0.028506  0  0.09371  0.132544  0  1.02065  0
H  H57  1  0.18634469  0.97479647  0.53060374  1  0.027655  0  0.094004  0.132939  0  1.020568  0
H  H58  1  0.83099586  0.03477167  0.99277530  1  0.028421  0  0.093615  0.13178  0  1.001673  0
H  H59  1  0.79642443  0.96528891  0.50723613  1  0.073179  0  0.093497  0.131551  0  1.001884  0
H  H60  1  0.16900449  0.96522975  0.00722496  1  0.028461  0  0.093558  0.13171  0  1.001704  0
H  H61  1  0.20357460  0.03471164  0.49276316  1  0.073167  0  0.093485  0.131502  0  1.001851  0
H  H62  1  0.83815895  0.90314213  0.00022113  1  0.034362  0  0.093247  0.127344  0  1.004057  0
H  H63  1  0.93508656  0.09686061  0.49972554  1  0.069436  0  0.093459  0.127792  0  1.004029  0
H  H64  1  0.16184095  0.09686015  0.99978010  1  0.034354  0  0.093238  0.127322  0  1.004073  0
H  H65  1  0.06491157  0.90313993  0.50027423  1  0.069355  0  0.09345  0.127756  0  1.004055  0
H  H66  1  0.81751286  0.87118731  0.95369378  1  0.065547  0  0.100725  0.065675  0  1.038416  0
H  H67  1  0.94640870  0.12873983  0.54628085  1  0.049136  0  0.100686  0.06585  0  1.038435  0
H  H68  1  0.18248930  0.12881237  0.04630717  1  0.065578  0  0.100777  0.065766  0  1.038443  0
H  H69  1  0.05358636  0.87125811  0.45371959  1  0.049089  0  0.100678  0.065831  0  1.038425  0
H  H70  1  0.70721279  0.75809874  0.92693967  1  0.053765  0  0.104171  0.080042  0  0.983983  0
H  H71  1  0.94930532  0.24184012  0.57301871  1  0.057266  0  0.104244  0.080556  0  0.984228  0
H  H72  1  0.29279062  0.24190702  0.07306115  1  0.053632  0  0.104191  0.080117  0  0.983904  0
H  H73  1  0.05069156  0.75815436  0.42698191  1  0.057213  0  0.104239  0.080554  0  0.984167  0
H  H74  1  0.72964144  0.01032223  0.86494980  1  0.084254  0  0.09966  0.115067  0  1.038285  0
H  H75  1  0.71952453  0.98954730  0.63502005  1  0.093697  0  0.099758  0.115634  0  1.037607  0
H  H76  1  0.27036115  0.98967832  0.13505116  1  0.084175  0  0.099638  0.115069  0  1.038257  0
H  H77  1  0.28046922  0.01044804  0.36497891  1  0.093855  0  0.099719  0.115503  0  1.037706  0
H  H78  1  0.92899628  0.13471634  0.83474463  1  0.077345  0  0.099095  0.102565  0  1.019276  0
H  H79  1  0.79430060  0.86499403  0.66519852  1  0.073951  0  0.098904  0.102218  0  1.019853  0
H  H80  1  0.07100499  0.86528334  0.16525536  1  0.077295  0  0.099081  0.102553  0  1.019324  0
H  H81  1  0.20569537  0.13500217  0.33480093  1  0.073738  0  0.098884  0.102179  0  1.019866  0
H  H82  1  0.18162161  0.11011527  0.90801414  1  0.085984  0  0.101881  0.109461  0  1.004118  0
H  H83  1  0.07168967  0.88976997  0.59195563  1  0.089645  0  0.101981  0.109864  0  1.004397  0
H  H84  1  0.81838614  0.88989916  0.09198683  1  0.086123  0  0.101898  0.109519  0  1.004133  0
H  H85  1  0.92829970  0.11022017  0.40804348  1  0.089784  0  0.101995  0.109889  0  1.004393  0
H  H86  1  0.98542420  0.97873299  0.93705885  1  0.04927  0  0.095718  0.102136  0  1.043689  0
H  H87  1  0.00704269  0.02126883  0.56296332  1  0.041674  0  0.095969  0.102618  0  1.044026  0
H  H88  1  0.01458400  0.02128058  0.06294329  1  0.049251  0  0.09568  0.102114  0  1.04366  0
H  H89  1  0.99295196  0.97872651  0.43703563  1  0.041658  0  0.095951  0.102551  0  1.044077  0
H  H90  1  0.22854191  0.59905628  0.94329465  1  0.05477  0  0.103596  0.07249  0  0.990275  0
H  H91  1  0.62942360  0.40060621  0.55677700  1  0.028895  0  0.103612  0.072472  0  0.990325  0
H  H92  1  0.77146075  0.40093906  0.05670574  1  0.054515  0  0.103581  0.072493  0  0.990218  0
H  H93  1  0.37057588  0.59939347  0.44322227  1  0.02891  0  0.103623  0.072459  0  0.990399  0
H  H94  1  0.17184176  0.63250772  0.98042392  1  0.043036  0  0.102239  0.069787  0  0.990827  0
H  H95  1  0.53927058  0.36723781  0.51963708  1  0.034891  0  0.102174  0.070149  0  0.990277  0
H  H96  1  0.82816229  0.36748329  0.01957711  1  0.043057  0  0.102226  0.069716  0  0.990841  0
H  H97  1  0.46072710  0.63276361  0.48036222  1  0.034955  0  0.102166  0.070148  0  0.990278  0
H  H98  1  0.99648351  0.51768398  0.94701304  1  0.053277  0  0.099123  0.108308  0  1.027636  0
H  H99  1  0.47851457  0.48199369  0.55294035  1  0.042603  0  0.099275  0.108408  0  1.028085  0
H  H100  1  0.00351337  0.48231050  0.05298758  1  0.053373  0  0.099164  0.108373  0  1.027581  0
H  H101  1  0.52148975  0.51801033  0.44705947  1  0.042514  0  0.099263  0.108399  0  1.028026  0
H  H102  1  0.78158526  0.43787537  0.91673726  1  0.099896  0  0.104818  0.107975  0  1.006882  0
H  H103  1  0.34377026  0.56203385  0.58326076  1  0.062439  0  0.10484  0.107973  0  1.006232  0
H  H104  1  0.21841162  0.56211911  0.08326264  1  0.086293  0  0.104815  0.107994  0  1.00688  0
H  H105  1  0.65622879  0.43796497  0.41673945  1  0.062652  0  0.104843  0.107969  0  1.006236  0
H  H106  1  0.88931568  0.76583445  0.87627465  1  0.089454  0  0.105243  0.107999  0  1.00573  0
H  H107  1  0.12380765  0.23434791  0.62382055  1  0.085424  0  0.104708  0.107206  0  1.005581  0
H  H108  1  0.11068821  0.23416871  0.12372828  1  0.089018  0  0.105174  0.107965  0  1.005656  0
H  H109  1  0.87619674  0.76565090  0.37617895  1  0.085371  0  0.104741  0.107283  0  1.00549  0
H  H110  1  0.10317112  0.85045945  0.90786025  1  0.095277  0  0.104643  0.119764  0  1.008204  0
H  H111  1  0.25272544  0.14941184  0.59225260  1  0.094927  0  0.104974  0.120372  0  1.007864  0
H  H112  1  0.89683277  0.14954371  0.09214339  1  0.095269  0  0.104596  0.119755  0  1.008305  0
H  H113  1  0.74727626  0.85058871  0.40774693  1  0.094918  0  0.104987  0.120375  0  1.007839  0
H  H114  1  0.18183244  0.41663177  0.86799727  1  0.140069  0  0.141909  0.109004  0  0.992449  0
H  H115  1  0.76529275  0.58326609  0.63200300  1  0.126358  0  0.142008  0.108972  0  0.992137  0
H  H116  1  0.81816750  0.58336704  0.13200271  1  0.140069  0  0.14188  0.108998  0  0.992455  0
H  H117  1  0.23470936  0.41673706  0.36799729  1  0.126321  0  0.141995  0.108918  0  0.992198  0
H  H118  1  0.34233253  0.72509045  0.81778800  1  0.179102  0  0.123482  0.134873  0  1.046909  0
H  H119  1  0.61672860  0.27490116  0.68225496  1  0.179629  0  0.123551  0.134702  0  1.047362  0
H  H120  1  0.65766561  0.27491009  0.18221225  1  0.179257  0  0.123496  0.1349  0  1.04688  0
H  H121  1  0.38327045  0.72509765  0.31774406  1  0.179655  0  0.123556  0.134697  0  1.047329  0
H  H122  1  0.53061821  0.64020397  0.82412709  1  0.114281  0  0.11986  0.120085  0  1.03088  0
H  H123  1  0.88996554  0.35951159  0.67595881  1  0.146319  0  0.120254  0.119942  0  1.03096  0
H  H124  1  0.46938080  0.35979831  0.17587294  1  0.11425  0  0.119845  0.120059  0  1.030856  0
H  H125  1  0.11003486  0.64048636  0.32403995  1  0.146332  0  0.120261  0.119956  0  1.030933  0
H  H126  1  0.11976437  0.66177663  0.86283469  1  0.066538  0  0.107129  0.090027  0  1.029578  0
H  H127  1  0.45794939  0.33840549  0.63710147  1  0.072091  0  0.106957  0.089592  0  1.030503  0
H  H128  1  0.88023558  0.33822218  0.13716577  1  0.066568  0  0.10711  0.089992  0  1.029608  0
H  H129  1  0.54205320  0.66159505  0.36289805  1  0.07207  0  0.10693  0.089524  0  1.030547  0
H  H130  1  0.03813046  0.51040073  0.86281915  1  0.093351  0  0.112786  0.091811  0  1.009647  0
H  H131  1  0.52780648  0.48981536  0.63714788  1  0.086365  0  0.112786  0.091473  0  1.010272  0
H  H132  1  0.96186859  0.48959808  0.13718130  1  0.093401  0  0.112772  0.091792  0  1.009574  0
H  H133  1  0.47219522  0.51018518  0.36285164  1  0.086363  0  0.112807  0.091476  0  1.010233  0
H  H134  1  0.85055606  0.27910396  0.80657567  1  0.075321  0  0.093474  0.134642  0  1.040047  0
H  H135  1  0.57088135  0.72090528  0.69336445  1  0.080457  0  0.093717  0.134653  0  1.040308  0
H  H136  1  0.14944520  0.72089572  0.19342455  1  0.075314  0  0.093468  0.134684  0  1.040056  0
H  H137  1  0.42912213  0.27909526  0.30663532  1  0.080446  0  0.093776  0.134753  0  1.040257  0
H  H138  1  0.90176177  0.36100805  0.84327710  1  0.023217  0  0.093503  0.131671  0  0.998985  0
H  H139  1  0.54008846  0.63898115  0.65666145  1  0.055025  0  0.093492  0.131887  0  0.998924  0
H  H140  1  0.09823774  0.63898989  0.15672333  1  0.023218  0  0.093492  0.131683  0  0.998949  0
H  H141  1  0.45991367  0.36102027  0.34333809  1  0.054919  0  0.093474  0.131851  0  0.998973  0
H  H142  1  0.02053689  0.34724307  0.81783719  1  0.062402  0  0.093413  0.136416  0  1.022685  0
H  H143  1  0.67287506  0.65295320  0.68206499  1  0.046083  0  0.093465  0.136559  0  1.021622  0
H  H144  1  0.97946392  0.65275747  0.18216329  1  0.062421  0  0.093403  0.136413  0  1.022671  0
H  H145  1  0.32712798  0.34704648  0.31793428  1  0.046133  0  0.093459  0.13661  0  1.021572  0
H  H146  1  0.74069217  0.60996379  0.74064660  1  0.038243  0  0.09276  0.133011  0  1.006303  0
H  H147  1  0.13075023  0.39005235  0.75933791  1  0.037925  0  0.09258  0.13312  0  1.006331  0
H  H148  1  0.25930599  0.39003502  0.25935337  1  0.03824  0  0.092764  0.133017  0  1.006315  0
H  H149  1  0.86925012  0.60994906  0.24066019  1  0.037983  0  0.092562  0.133089  0  1.006288  0
H  H150  1  0.72463623  0.47421596  0.72523977  1  0.026183  0  0.086529  0.116528  0  1.065539  0
H  H151  1  0.25042177  0.52577978  0.77474979  1  0.023634  0  0.086763  0.116909  0  1.065602  0
H  H152  1  0.27536547  0.52578459  0.27476024  1  0.026164  0  0.086533  0.116528  0  1.065506  0
H  H153  1  0.74957369  0.47422076  0.22524806  1  0.023407  0  0.086776  0.116929  0  1.065614  0
H  H154  1  0.85453093  0.60315125  0.71245701  1  0.095132  0  0.095633  0.14605  0  1.01991  0
H  H155  1  0.25137096  0.39677704  0.78750666  1  0.092926  0  0.095856  0.146382  0  1.019663  0
H  H156  1  0.14547211  0.39684843  0.28754322  1  0.095134  0  0.095605  0.146012  0  1.01993  0
H  H157  1  0.74862628  0.60322350  0.21249215  1  0.092867  0  0.095856  0.146416  0  1.019689  0
H  H158  1  0.23094051  0.83864085  0.80524203  1  0.095182  0  0.09458  0.139884  0  1.020052  0
H  H159  1  0.39198723  0.16140047  0.69466918  1  0.072303  0  0.094604  0.13924  0  1.020102  0
H  H160  1  0.76906033  0.16135796  0.19475818  1  0.095061  0  0.09453  0.139752  0  1.020058  0
H  H161  1  0.60801534  0.83860181  0.30533061  1  0.072222  0  0.094592  0.139198  0  1.020122  0
H  H162  1  0.16517532  0.79628212  0.84310267  1  0.021968  0  0.089352  0.125158  0  1.041357  0
H  H163  1  0.36862969  0.20371708  0.65680233  1  0.017396  0  0.089699  0.12551  0  1.040784  0
H  H164  1  0.83482462  0.20371669  0.15689754  1  0.021966  0  0.089288  0.12509  0  1.041427  0
H  H165  1  0.63137335  0.79628260  0.34319718  1  0.017362  0  0.089731  0.125533  0  1.040773  0
H  H166  1  0.09009047  0.85694600  0.81814938  1  0.039256  0  0.094278  0.133683  0  0.998287  0
H  H167  1  0.23287878  0.14313137  0.68176361  1  0.050486  0  0.094017  0.133393  0  0.99829  0
H  H168  1  0.90990947  0.14305282  0.18185083  1  0.039175  0  0.094293  0.133671  0  0.998311  0
H  H169  1  0.76712470  0.85686918  0.31823591  1  0.050439  0  0.094027  0.133415  0  0.998377  0
H  H170  1  0.08279689  0.85298531  0.76648803  1  0.06151  0  0.112832  0.099738  0  0.976857  0
H  H171  1  0.22972993  0.14709384  0.73342776  1  0.064449  0  0.112689  0.099245  0  0.977328  0
H  H172  1  0.91720570  0.14701523  0.23351198  1  0.061538  0  0.112797  0.099699  0  0.976788  0
H  H173  1  0.77027488  0.85290758  0.26657226  1  0.064891  0  0.112678  0.099222  0  0.977359  0
H  H174  1  0.98454997  0.76636344  0.73317393  1  0.083281  0  0.118544  0.111223  0  1.024747  0
H  H175  1  0.21835694  0.23372485  0.76676814  1  0.079975  0  0.118702  0.111684  0  1.02404  0
H  H176  1  0.01544952  0.23363624  0.26682702  1  0.083243  0  0.118535  0.111201  0  1.024735  0
H  H177  1  0.78164565  0.76627570  0.23323163  1  0.079931  0  0.118709  0.111657  0  1.024068  0
H  H178  1  0.82809387  0.74178932  0.81557861  1  0.174317  0  0.12338  0.13486  0  1.038835  0
H  H179  1  0.08577199  0.25841076  0.68449095  1  0.163585  0  0.12322  0.134996  0  1.039607  0
H  H180  1  0.17190520  0.25820776  0.18442157  1  0.174336  0  0.123356  0.134833  0  1.038941  0
H  H181  1  0.91423151  0.74158805  0.31550831  1  0.163634  0  0.123178  0.134917  0  1.039673  0
H  H182  1  0.65327602  0.84055162  0.81070895  1  0.139523  0  0.121952  0.121595  0  1.010287  0
H  H183  1  0.81226420  0.15922030  0.68944042  1  0.140556  0  0.121473  0.120654  0  1.01094  0
H  H184  1  0.34672306  0.15944546  0.18929195  1  0.139557  0  0.121967  0.121565  0  1.010334  0
H  H185  1  0.18773976  0.84077764  0.31055882  1  0.140503  0  0.121421  0.120537  0  1.011062  0
H  H186  1  0.86494098  0.88489957  0.72495096  1  0.15815  0  0.141236  0.116199  0  0.990622  0
H  H187  1  0.98025218  0.11481659  0.77508601  1  0.149838  0  0.14087  0.115914  0  0.990844  0
H  H188  1  0.13506024  0.11510359  0.27505029  1  0.158109  0  0.141196  0.116192  0  0.990583  0
H  H189  1  0.01975175  0.88518309  0.22491350  1  0.149838  0  0.140916  0.115987  0  0.99091  0
H  H190  1  0.75403443  0.34502871  0.73456002  1  0.067172  0  0.111742  0.099405  0  1.009966  0
H  H191  1  0.40919956  0.65491420  0.76544737  1  0.099109  0  0.111695  0.099148  0  1.010024  0
H  H192  1  0.24596862  0.65497097  0.26543973  1  0.067182  0  0.111774  0.099465  0  1.009965  0
H  H193  1  0.59079904  0.34508548  0.23455191  1  0.099053  0  0.111675  0.099139  0  1.010027  0
H  H194  1  0.79069903  0.27347815  0.76475560  1  0.090666  0  0.112082  0.101185  0  1.021456  0
H  H195  1  0.51732244  0.72654128  0.73523643  1  0.099278  0  0.112372  0.101025  0  1.02203  0
H  H196  1  0.20929822  0.72652240  0.23524513  1  0.090645  0  0.112097  0.101215  0  1.021421  0
H  H197  1  0.48267835  0.27346100  0.26476312  1  0.099285  0  0.112364  0.101044  0  1.02201  0
H  H198  1  0.69922144  0.47130257  0.80999683  1  0.189916  0  0.132927  0.106505  0  1.047774  0
H  H199  1  0.22778672  0.52867452  0.69007596  1  0.189737  0  0.133119  0.106685  0  1.048351  0
H  H200  1  0.30077576  0.52870144  0.19000060  1  0.189784  0  0.132961  0.106579  0  1.047758  0
H  H201  1  0.77221231  0.47132602  0.30992285  1  0.189796  0  0.133106  0.106668  0  1.048372  0
H  H202  1  0.51346617  0.15951351  0.75143093  1  0.190657  0  0.121325  0.135246  0  1.039598  0
H  H203  1  0.35398547  0.84050112  0.74863373  1  0.194107  0  0.121353  0.135174  0  1.039783  0
H  H204  1  0.48653332  0.84048616  0.24856906  1  0.190652  0  0.121322  0.135206  0  1.039649  0
H  H205  1  0.64601310  0.15950030  0.25136605  1  0.194055  0  0.12136  0.135188  0  1.039769  0
H  H206  1  0.33420121  0.17587111  0.79680260  1  0.144437  0  0.118485  0.117685  0  1.015923  0
H  H207  1  0.15818913  0.82406365  0.70326704  1  0.130663  0  0.118875  0.118568  0  1.014666  0
H  H208  1  0.66579780  0.82413117  0.20319719  1  0.144321  0  0.118465  0.11767  0  1.015914  0
H  H209  1  0.84180903  0.17593516  0.29673246  1  0.13066  0  0.118863  0.118584  0  1.014641  0
C  C210  1  0.45749376  0.00893761  0.19436298  1  1.520806  0  0.196556  0.559915  0  4.234707  0
C  C211  1  0.44850929  0.99101421  0.30554281  1  1.526713  0  0.195306  0.558385  0  4.236694  0
C  C212  1  0.54250527  0.99106294  0.80563655  1  1.520985  0  0.196563  0.559816  0  4.234728  0
C  C213  1  0.55148845  0.00898200  0.69445712  1  1.526644  0  0.195195  0.558256  0  4.236708  0
C  C214  1  0.47640593  0.97210139  0.16112852  1  0.008038  0  -0.038307  -0.080801  0  4.02769  0
C  C215  1  0.50410007  0.02772090  0.33879928  1  -0.081267  0  -0.037682  -0.080519  0  4.028228  0
C  C216  1  0.52359176  0.02790002  0.83887150  1  0.007881  0  -0.038352  -0.080799  0  4.027739  0
C  C217  1  0.49589676  0.97227704  0.66120068  1  -0.081212  0  -0.037628  -0.080387  0  4.028137  0
C  C218  1  0.42324122  0.85412099  0.15071529  1  -0.051016  0  -0.086019  -0.068489  0  4.000008  0
C  C219  1  0.56898964  0.14569694  0.34922333  1  -0.044925  0  -0.086016  -0.068208  0  3.999157  0
C  C220  1  0.57675913  0.14588042  0.84928449  1  -0.050987  0  -0.085951  -0.06842  0  3.999974  0
C  C221  1  0.43100898  0.85430101  0.65077615  1  -0.045208  0  -0.08597  -0.068162  0  3.999089  0
C  C222  1  0.44118502  0.82030088  0.11970673  1  0.030561  0  -0.104566  -0.201939  0  3.970676  0
C  C223  1  0.62063092  0.17954020  0.38024523  1  0.050114  0  -0.105088  -0.202672  0  3.970107  0
C  C224  1  0.55881579  0.17969967  0.88029375  1  0.030571  0  -0.104613  -0.202067  0  3.97076  0
C  C225  1  0.37936592  0.82045774  0.61975401  1  0.050126  0  -0.105111  -0.202717  0  3.970048  0
C  C226  1  0.50953754  0.90510994  0.09809216  1  0.377181  0  0.088281  0.273951  0  4.051054  0
C  C227  1  0.60403439  0.09471792  0.40186802  1  0.379356  0  0.087831  0.273838  0  4.051  0
C  C228  1  0.49046151  0.09488887  0.90190757  1  0.377114  0  0.088241  0.273937  0  4.051164  0
C  C229  1  0.39596332  0.90528176  0.59813149  1  0.379424  0  0.087917  0.273901  0  4.050968  0
C  C230  1  0.56172829  0.02338086  0.10782350  1  -0.002098  0  -0.116029  -0.230134  0  4.002827  0
C  C231  1  0.53798735  0.97646698  0.39212132  1  0.00678  0  -0.115469  -0.228777  0  4.001742  0
C  C232  1  0.43827208  0.97661882  0.89217649  1  -0.002045  0  -0.116025  -0.230136  0  4.00292  0
C  C233  1  0.46200768  0.02353270  0.60787867  1  0.006776  0  -0.115453  -0.228764  0  4.001689  0
C  C234  1  0.54589088  0.05532078  0.13935490  1  -0.066684  0  -0.090002  -0.069007  0  4.016376  0
C  C235  1  0.49029515  0.94449696  0.36058418  1  -0.064864  0  -0.090813  -0.070021  0  4.017293  0
C  C236  1  0.45410815  0.94467977  0.86064534  1  -0.066667  0  -0.089982  -0.068971  0  4.016434  0
C  C237  1  0.50970169  0.05550098  0.63941578  1  -0.06484  0  -0.090905  -0.07021  0  4.017397  0
C  C238  1  0.55589895  0.94712591  0.04323613  1  0.403854  0  -0.067772  -0.016298  0  3.932521  0
C  C239  1  0.60873686  0.05278764  0.45673780  1  0.415649  0  -0.067465  -0.016822  0  3.931852  0
C  C240  1  0.44410053  0.05287377  0.95676434  1  0.403865  0  -0.067753  -0.016223  0  3.932486  0
C  C241  1  0.39125774  0.94721117  0.54326217  1  0.415681  0  -0.0675  -0.016928  0  3.93168  0
C  C242  1  0.53245507  0.87950696  0.01155667  1  -0.00685  0  -0.019776  -0.041094  0  3.928169  0
C  C243  1  0.65291563  0.12036838  0.48843334  1  -0.009482  0  -0.02036  -0.0429  0  3.930608  0
C  C244  1  0.46754398  0.12049186  0.98844426  1  -0.006876  0  -0.019735  -0.041067  0  3.928077  0
C  C245  1  0.34707896  0.87963043  0.51156592  1  -0.008855  0  -0.02037  -0.042914  0  3.930704  0
C  C246  1  0.40036555  0.80928267  0.00107445  1  0.000385  0  0.000201  0.102116  0  3.921604  0
C  C247  1  0.59099982  0.19049212  0.49895274  1  -0.003287  0  0.000356  0.103161  0  3.92078  0
C  C248  1  0.59963353  0.19071441  0.99892645  1  0.000649  0  0.000181  0.102129  0  3.921607  0
C  C249  1  0.40899832  0.80950842  0.50104703  1  -0.003758  0  0.000493  0.103426  0  3.920824  0
C  C250  1  0.37558289  0.74681656  0.97110133  1  -0.016745  0  -0.0265  -0.060139  0  3.948154  0
C  C251  1  0.62865531  0.25289812  0.52893852  1  0.006404  0  -0.026759  -0.06115  0  3.949701  0
C  C252  1  0.62441575  0.25317965  0.02889956  1  -0.016852  0  -0.02658  -0.060379  0  3.948369  0
C  C253  1  0.37134458  0.74710416  0.47106080  1  0.006385  0  -0.026856  -0.061409  0  3.949731  0
C  C254  1  0.48051563  0.75760173  0.95099303  1  0.048448  0  -0.001754  0.098764  0  3.942768  0
C  C255  1  0.72286291  0.24217101  0.54902979  1  -0.050843  0  -0.001914  0.099478  0  3.94339  0
C  C256  1  0.51948520  0.24239709  0.04900790  1  0.048426  0  -0.001733  0.098903  0  3.942726  0
C  C257  1  0.27713436  0.75782780  0.45096994  1  -0.050868  0  -0.001883  0.099574  0  3.943325  0
C  C258  1  0.61171578  0.82537041  0.96222017  1  -0.131855  0  -0.023953  -0.054877  0  3.943223  0
C  C259  1  0.78636886  0.17452631  0.53777500  1  -0.008527  0  -0.024348  -0.056013  0  3.945203  0
C  C260  1  0.38828457  0.17463100  0.03778033  1  -0.131831  0  -0.023957  -0.054859  0  3.943143  0
C  C261  1  0.21362665  0.82547077  0.46222495  1  -0.008881  0  -0.024433  -0.056144  0  3.945327  0
C  C262  1  0.63888299  0.88472533  0.99278912  1  0.033228  0  -0.001519  0.09442  0  3.928123  0
C  C263  1  0.75418161  0.11520696  0.50719679  1  0.013156  0  -0.001199  0.095727  0  3.929737  0
C  C264  1  0.36111647  0.11527609  0.00721138  1  0.03331  0  -0.001535  0.094415  0  3.928217  0
C  C265  1  0.24581523  0.88479098  0.49280269  1  0.013196  0  -0.001163  0.095782  0  3.929856  0
C  C266  1  0.28645823  0.79987516  0.02184992  1  -0.032684  0  -0.239533  -0.41228  0  3.963653  0
C  C267  1  0.48645586  0.19991280  0.47819651  1  -0.061644  0  -0.239134  -0.411882  0  3.961601  0
C  C268  1  0.71354084  0.20012192  0.97815075  1  -0.033226  0  -0.239429  -0.412138  0  3.963568  0
C  C269  1  0.51354050  0.80008774  0.52180349  1  -0.061717  0  -0.239189  -0.411939  0  3.961795  0
C  C270  1  0.45361813  0.69801071  0.91776550  1  -0.068854  0  -0.243553  -0.421391  0  3.962338  0
C  C271  1  0.75556774  0.30166834  0.58226654  1  -0.069523  0  -0.243748  -0.421891  0  3.963026  0
C  C272  1  0.54638578  0.30199071  0.08223500  1  -0.069431  0  -0.243581  -0.421521  0  3.962327  0
C  C273  1  0.24442953  0.69833047  0.41773320  1  -0.069601  0  -0.243695  -0.421802  0  3.962932  0
C  C274  1  0.78092448  0.95299579  0.00473324  1  -0.042441  0  -0.23743  -0.406861  0  3.962682  0
C  C275  1  0.82798959  0.04698607  0.49524367  1  -0.121999  0  -0.23795  -0.407819  0  3.964453  0
C  C276  1  0.21907674  0.04700736  0.99526729  1  -0.042544  0  -0.237335  -0.40679  0  3.962722  0
C  C277  1  0.17200813  0.95301187  0.50475581  1  -0.121926  0  -0.237918  -0.407728  0  3.964454  0
C  C278  1  0.72331831  0.83973524  0.94032537  1  0.397  0  -0.063977  -0.00135  0  3.895209  0
C  C279  1  0.88369646  0.16019261  0.55965385  1  0.418715  0  -0.064055  -0.001655  0  3.897639  0
C  C280  1  0.27668024  0.16026791  0.05967588  1  0.397224  0  -0.064143  -0.001681  0  3.895371  0
C  C281  1  0.11629817  0.83980447  0.44034609  1  0.419019  0  -0.064032  -0.001584  0  3.897516  0
C  C282  1  0.84408678  0.98604570  0.90258119  1  0.495664  0  0.082323  0.263165  0  4.063711  0
C  C283  1  0.85828638  0.01388609  0.59740700  1  0.460505  0  0.082626  0.265206  0  4.063292  0
C  C284  1  0.15591885  0.01396092  0.09741988  1  0.495335  0  0.082279  0.263235  0  4.06354  0
C  C285  1  0.14170913  0.98611099  0.40259390  1  0.460331  0  0.0827  0.265382  0  4.06333  0
C  C286  1  0.82921672  0.03085611  0.87376236  1  -0.033838  0  -0.109051  -0.201649  0  3.993799  0
C  C287  1  0.79854105  0.96898920  0.62620463  1  0.031198  0  -0.109352  -0.202596  0  3.99408  0
C  C288  1  0.17078719  0.96914531  0.12623862  1  -0.033518  0  -0.109019  -0.201672  0  3.993814  0
C  C289  1  0.20144785  0.03100353  0.37379476  1  0.031708  0  -0.109389  -0.202602  0  3.994126  0
C  C290  1  0.94020126  0.10060523  0.85727713  1  -0.039214  0  -0.091533  -0.08207  0  4.016508  0
C  C291  1  0.83970108  0.89916566  0.64268060  1  -0.069183  0  -0.090882  -0.081085  0  4.016223  0
C  C292  1  0.05980492  0.89939359  0.14272309  1  -0.039061  0  -0.091539  -0.082108  0  4.016661  0
C  C293  1  0.16029046  0.10082882  0.35731858  1  -0.069473  0  -0.090896  -0.081068  0  4.016228  0
C  C294  1  0.06813457  0.12992009  0.86947103  1  -0.01574  0  -0.040599  -0.075188  0  4.026542  0
C  C295  1  0.93837225  0.86986643  0.63051572  1  -0.015642  0  -0.041048  -0.076079  0  4.027839  0
C  C296  1  0.93186843  0.87008306  0.13052950  1  -0.015955  0  -0.040595  -0.075123  0  4.026541  0
C  C297  1  0.06161927  0.13012977  0.36948301  1  -0.015952  0  -0.041101  -0.076129  0  4.027926  0
C  C298  1  0.08195003  0.08567132  0.89843139  1  -0.067673  0  -0.090255  -0.073124  0  4.004871  0
C  C299  1  0.99649262  0.91419820  0.60156594  1  -0.04398  0  -0.090445  -0.073437  0  4.005905  0
C  C300  1  0.91805240  0.91434138  0.10157098  1  -0.06762  0  -0.090261  -0.07311  0  4.004929  0
C  C301  1  0.00350113  0.08579714  0.39843278  1  -0.044319  0  -0.090416  -0.073526  0  4.005962  0
C  C302  1  0.97130673  0.01263835  0.91479278  1  -0.064192  0  -0.118978  -0.237672  0  4.041144  0
C  C303  1  0.95892397  0.98727860  0.58521479  1  -0.065776  0  -0.119365  -0.239138  0  4.042645  0
C  C304  1  0.02869924  0.98737608  0.08520986  1  -0.064115  0  -0.118929  -0.237764  0  4.041259  0
C  C305  1  0.04107068  0.01271674  0.41478488  1  -0.065473  0  -0.119325  -0.238971  0  4.042736  0
C  C306  1  0.18664026  0.21040324  0.85226049  1  1.549919  0  0.190094  0.557303  0  4.254449  0
C  C307  1  0.97625421  0.78929151  0.64772560  1  1.510758  0  0.19041  0.557613  0  4.255689  0
C  C308  1  0.81336543  0.78959818  0.14774097  1  1.550427  0  0.190041  0.557218  0  4.254514  0
C  C309  1  0.02373996  0.21070644  0.35227460  1  1.511018  0  0.190545  0.557879  0  4.255606  0
C  C310  1  0.23516283  0.67071018  0.96007480  1  0.38141  0  -0.063258  -0.000454  0  3.914101  0
C  C311  1  0.56438382  0.32899330  0.53998090  1  0.418522  0  -0.062701  -5.6e-05  0  3.914183  0
C  C312  1  0.76483674  0.32928257  0.03992579  1  0.381954  0  -0.063204  -0.000314  0  3.913949  0
C  C313  1  0.43561698  0.67100724  0.46001815  1  0.418482  0  -0.062641  5.6e-05  0  3.914184  0
C  C314  1  0.06465181  0.68952621  0.92897677  1  0.39386  0  0.078364  0.252522  0  4.081364  0
C  C315  1  0.37508575  0.31023952  0.57105180  1  0.404124  0  0.078139  0.252265  0  4.082937  0
C  C316  1  0.93534864  0.31046827  0.07102433  1  0.394212  0  0.078316  0.252455  0  4.081281  0
C  C317  1  0.62491992  0.68976363  0.42894777  1  0.404079  0  0.078113  0.252181  0  4.082819  0
C  C318  1  0.97407614  0.57313118  0.93173011  1  -0.055046  0  -0.119671  -0.243463  0  4.03795  0
C  C319  1  0.40080042  0.42661122  0.56826167  1  -0.034703  0  -0.119984  -0.243881  0  4.038837  0
C  C320  1  0.02592207  0.42686416  0.06827100  1  -0.055339  0  -0.119641  -0.243419  0  4.037852  0
C  C321  1  0.59920703  0.57339193  0.43173815  1  -0.034397  0  -0.11993  -0.243798  0  4.038659  0
C  C322  1  0.85325621  0.52787178  0.91457766  1  -0.033695  0  -0.08646  -0.06993  0  3.996428  0
C  C323  1  0.32542292  0.47203114  0.58542895  1  0.00484  0  -0.086268  -0.069014  0  3.997161  0
C  C324  1  0.14674287  0.47212530  0.08542348  1  -0.019894  0  -0.086481  -0.070019  0  3.996438  0
C  C325  1  0.67458234  0.52796940  0.41457105  1  0.004577  0  -0.086255  -0.069013  0  3.997141  0
C  C326  1  0.82263725  0.59585510  0.89410178  1  -0.010791  0  -0.032669  -0.064681  0  4.000239  0
C  C327  1  0.22692928  0.40416648  0.60594361  1  -0.03476  0  -0.032692  -0.066598  0  4.001033  0
C  C328  1  0.17736356  0.40414545  0.10589990  1  -0.010822  0  -0.032651  -0.064635  0  4.000108  0
C  C329  1  0.77307331  0.59583406  0.39405664  1  -0.0348  0  -0.03275  -0.066583  0  4.001063  0
C  C330  1  0.91362007  0.71261616  0.89201831  1  -0.065335  0  -0.083425  -0.074003  0  4.004063  0
C  C331  1  0.20123172  0.28742859  0.60804038  1  -0.050516  0  -0.082525  -0.071653  0  4.001881  0
C  C332  1  0.08637985  0.28738439  0.10798409  1  -0.065187  0  -0.0834  -0.074021  0  4.004006  0
C  C333  1  0.79877176  0.71257196  0.39195915  1  -0.050517  0  -0.082532  -0.071704  0  4.001736  0
C  C334  1  0.03246156  0.75986656  0.90950355  1  -0.011525  0  -0.10865  -0.215382  0  4.009399  0
C  C335  1  0.27269657  0.24001266  0.59057010  1  -0.013771  0  -0.109401  -0.216659  0  4.009528  0
C  C336  1  0.96753971  0.24013313  0.09049883  1  -0.011778  0  -0.10854  -0.215306  0  4.009547  0
C  C337  1  0.72730823  0.75998876  0.40942920  1  -0.013829  0  -0.109458  -0.21669  0  4.009363  0
C  C338  1  0.69843287  0.54662306  0.87352952  1  1.568878  0  0.195087  0.558044  0  4.247436  0
C  C339  1  0.15198779  0.45342021  0.62651200  1  1.554507  0  0.195627  0.559147  0  4.247951  0
C  C340  1  0.30157328  0.45337749  0.12646953  1  1.568884  0  0.194989  0.557884  0  4.247376  0
C  C341  1  0.84801215  0.54657860  0.37348822  1  1.554489  0  0.19553  0.558964  0  4.248185  0
C  C342  1  0.25246571  0.48889092  0.85549951  1  0.991325  0  0.147673  0.088852  0  3.932199  0
C  C343  1  0.76355538  0.51100669  0.64452111  1  0.994011  0  0.147727  0.089085  0  3.929915  0
C  C344  1  0.74753420  0.51110963  0.14450049  1  0.991295  0  0.147729  0.088867  0  3.932237  0
C  C345  1  0.23644540  0.48899559  0.35547916  1  0.993752  0  0.147698  0.089107  0  3.930018  0
C  C346  1  0.33732075  0.64982200  0.82941784  1  0.251871  0  0.000173  -0.117621  0  3.902241  0
C  C347  1  0.68711640  0.35009123  0.67061583  1  0.212386  0  0.000729  -0.116455  0  3.902296  0
C  C348  1  0.66267695  0.35017768  0.17058191  1  0.251738  0  0.000172  -0.117661  0  3.902217  0
C  C349  1  0.31288308  0.64990845  0.32938416  1  0.212366  0  0.000742  -0.116444  0  3.902325  0
C  C350  1  0.42973367  0.60741586  0.83218607  1  0.428821  0  0.006444  -0.018722  0  3.968452  0
C  C351  1  0.82196008  0.39238629  0.66788830  1  0.4384  0  0.006497  -0.018675  0  3.969931  0
C  C352  1  0.57026536  0.39258468  0.16781370  1  0.428819  0  0.006449  -0.018686  0  3.968428  0
C  C353  1  0.17804032  0.60761165  0.33211094  1  0.438395  0  0.006437  -0.018708  0  3.969956  0
C  C354  1  0.10027207  0.58197192  0.84834099  1  0.270758  0  -0.050698  -0.09841  0  3.907546  0
C  C355  1  0.51826780  0.41816929  0.65160806  1  0.27244  0  -0.050497  -0.097609  0  3.907642  0
C  C356  1  0.89972609  0.41802689  0.15166018  1  0.27068  0  -0.050644  -0.098313  0  3.907386  0
C  C357  1  0.48173433  0.58183213  0.34839148  1  0.272507  0  -0.050566  -0.09765  0  3.90778  0
C  C358  1  0.03109508  0.57653163  0.81687189  1  0.011492  0  -0.021643  -0.040982  0  3.91176  0
C  C359  1  0.45443525  0.42354943  0.68306850  1  -0.006026  0  -0.022269  -0.041869  0  3.910674  0
C  C360  1  0.96890441  0.42346806  0.18312929  1  0.011025  0  -0.02167  -0.041005  0  3.911759  0
C  C361  1  0.54556688  0.57645199  0.31693057  1  -0.006027  0  -0.022289  -0.041862  0  3.910912  0
C  C362  1  0.94557614  0.46670320  0.80228688  1  -0.034635  0  -0.003782  0.090708  0  3.930469  0
C  C363  1  0.47868451  0.53335117  0.69766698  1  -0.047405  0  -0.003477  0.091134  0  3.930413  0
C  C364  1  0.05442378  0.53329734  0.19771360  1  -0.034616  0  -0.003785  0.090714  0  3.930359  0
C  C365  1  0.52131673  0.46665024  0.30233208  1  -0.047407  0  -0.003426  0.091226  0  3.930413  0
C  C366  1  0.87269126  0.46073654  0.77414180  1  0.02854  0  -0.020087  -0.046315  0  3.93834  0
C  C367  1  0.41193001  0.53931765  0.72583646  1  -0.016736  0  -0.020076  -0.047001  0  3.939618  0
C  C368  1  0.12730820  0.53926487  0.22585894  1  0.028471  0  -0.020095  -0.046333  0  3.938281  0
C  C369  1  0.58806945  0.46068376  0.27416260  1  -0.016567  0  -0.020014  -0.046958  0  3.939615  0
C  C370  1  0.88500464  0.56297111  0.76069102  1  -0.067764  0  -0.001577  0.098262  0  3.933523  0
C  C371  1  0.32201203  0.43705041  0.73926430  1  -0.015199  0  -0.001977  0.0985  0  3.933195  0
C  C372  1  0.11499528  0.43702944  0.23930994  1  -0.067951  0  -0.001477  0.098405  0  3.933277  0
C  C373  1  0.67798789  0.56295014  0.26073450  1  -0.015738  0  -0.002031  0.098495  0  3.933184  0
C  C374  1  0.97617160  0.67090129  0.77459980  1  -0.021929  0  -0.020849  -0.039872  0  3.947789  0
C  C375  1  0.30510617  0.32913020  0.72531481  1  0.00809  0  -0.021048  -0.040916  0  3.9496  0
C  C376  1  0.02382832  0.32909926  0.22540092  1  -0.02191  0  -0.020904  -0.039966  0  3.947966  0
C  C377  1  0.69489377  0.67086861  0.27468421  1  0.008121  0  -0.021031  -0.04089  0  3.949483  0
C  C378  1  0.04789383  0.67957718  0.80306281  1  0.022063  0  -0.005087  0.086245  0  3.948065  0
C  C379  1  0.36811733  0.32047721  0.69684909  1  -0.019897  0  -0.004793  0.08721  0  3.94793  0
C  C380  1  0.95210566  0.32042250  0.19693790  1  0.022648  0  -0.005127  0.08611  0  3.948122  0
C  C381  1  0.63188394  0.67952247  0.30314994  1  -0.019934  0  -0.00481  0.087137  0  3.947837  0
C  C382  1  0.92869827  0.35827307  0.81801273  1  -0.094462  0  -0.243242  -0.424164  0  3.948876  0
C  C383  1  0.56995915  0.64179912  0.68191348  1  -0.104393  0  -0.243463  -0.424304  0  3.948073  0
C  C384  1  0.07130299  0.64172661  0.18198773  1  -0.094432  0  -0.243246  -0.42424  0  3.948775  0
C  C385  1  0.43004476  0.35820229  0.31808606  1  -0.104255  0  -0.243542  -0.424481  0  3.948046  0
C  C386  1  0.79703264  0.56142456  0.73327497  1  -0.071527  0  -0.248097  -0.420933  0  3.941378  0
C  C387  1  0.23565206  0.43858389  0.76669793  1  -0.07336  0  -0.248144  -0.422061  0  3.941634  0
C  C388  1  0.20296906  0.43857599  0.26672527  1  -0.071369  0  -0.24811  -0.420944  0  3.941365  0
C  C389  1  0.76434430  0.56141665  0.23330040  1  -0.072809  0  -0.248084  -0.422081  0  3.941746  0
C  C390  1  0.13757260  0.79816747  0.81811396  1  -0.104604  0  -0.242896  -0.419061  0  3.958019  0
C  C391  1  0.33912590  0.20189790  0.68178679  1  -0.06526  0  -0.242787  -0.418355  0  3.957181  0
C  C392  1  0.86243090  0.20183134  0.18188530  1  -0.104441  0  -0.242779  -0.418761  0  3.957895  0
C  C393  1  0.66087802  0.79810352  0.31821275  1  -0.065157  0  -0.242802  -0.418322  0  3.957197  0
C  C394  1  0.98866561  0.77847236  0.75942371  1  0.282054  0  -0.05122  -0.115307  0  3.909192  0
C  C395  1  0.21016372  0.22160641  0.74051958  1  0.28702  0  -0.050564  -0.11435  0  3.908715  0
C  C396  1  0.01133474  0.22152906  0.24057678  1  0.282008  0  -0.051101  -0.115156  0  3.909033  0
C  C397  1  0.78983976  0.77839414  0.25947994  1  0.286645  0  -0.050577  -0.114316  0  3.908699  0
C  C398  1  0.81278785  0.78962938  0.79666755  1  0.273153  0  0.003296  -0.103541  0  3.889366  0
C  C399  1  0.02280980  0.21046958  0.70341404  1  0.246432  0  0.003615  -0.104068  0  3.891576  0
C  C400  1  0.18721253  0.21037030  0.20333292  1  0.273187  0  0.003268  -0.103599  0  3.88955  0
C  C401  1  0.97719240  0.78952663  0.29658493  1  0.246472  0  0.003655  -0.103989  0  3.891537  0
C  C402  1  0.72441021  0.83634407  0.79381508  1  0.397863  0  -0.000507  -0.02786  0  3.982099  0
C  C403  1  0.88771206  0.16344533  0.70630548  1  0.439892  0  -0.000608  -0.027201  0  3.983155  0
C  C404  1  0.27559147  0.16365821  0.20618591  1  0.397911  0  -0.000438  -0.027692  0  3.982065  0
C  C405  1  0.11229103  0.83655087  0.29369349  1  0.439874  0  -0.000545  -0.027106  0  3.983214  0
C  C406  1  0.83087749  0.86262278  0.74906856  1  0.96285  0  0.140442  0.080156  0  3.914686  0
C  C407  1  0.96831866  0.13713698  0.75098042  1  0.979908  0  0.140983  0.080226  0  3.915307  0
C  C408  1  0.16912327  0.13738124  0.25093246  1  0.962894  0  0.140472  0.080127  0  3.914635  0
C  C409  1  0.03168484  0.86286183  0.24901884  1  0.979781  0  0.140884  0.080028  0  3.915305  0
C  C410  1  0.76744854  0.34601663  0.76056426  1  0.28668  0  -0.049684  -0.100229  0  3.879481  0
C  C411  1  0.42156835  0.65402593  0.73944536  1  0.249049  0  -0.049481  -0.098993  0  3.878853  0
C  C412  1  0.23255138  0.65398392  0.23943574  1  0.286719  0  -0.049742  -0.100351  0  3.879733  0
C  C413  1  0.57843200  0.34597548  0.26055371  1  0.249066  0  -0.049498  -0.099072  0  3.878783  0
C  C414  1  0.62405415  0.38858571  0.80029376  1  0.954716  0  0.137226  0.083353  0  3.908003  0
C  C415  1  0.23536968  0.61140817  0.69978531  1  0.945039  0  0.137601  0.083238  0  3.90885  0
C  C416  1  0.37594035  0.61142003  0.19970370  1  0.954978  0  0.137262  0.083383  0  3.908013  0
C  C417  1  0.76463245  0.38859324  0.30021399  1  0.944887  0  0.137628  0.083341  0  3.908868  0
C  C418  1  0.52192926  0.22478607  0.77012501  1  0.322205  0  0.002631  -0.091899  0  3.880376  0
C  C419  1  0.29721303  0.77529984  0.72991691  1  0.26073  0  0.003335  -0.091495  0  3.880242  0
C  C420  1  0.47806797  0.77521621  0.22987407  1  0.322216  0  0.002581  -0.091848  0  3.88054  0
C  C421  1  0.70278689  0.22470070  0.27008237  1  0.260735  0  0.003343  -0.091508  0  3.880168  0
C  C422  1  0.43601892  0.23424627  0.79221281  1  0.325482  0  -0.00158  -0.032194  0  3.99871  0
C  C423  1  0.20173769  0.76575460  0.70784178  1  0.398522  0  -0.002904  -0.033915  0  3.998479  0
C  C424  1  0.56397696  0.76575687  0.20778556  1  0.325654  0  -0.001486  -0.032098  0  3.998655  0
C  C425  1  0.79826268  0.23424507  0.29215725  1  0.398548  0  -0.002941  -0.033948  0  3.998364  0
N  N426  1  0.37523394  0.50695750  0.84834172  1  -1.233056  0  -0.357914  -0.288023  0  3.622478  0
N  N427  1  0.86814108  0.49284033  0.65172411  1  -1.239023  0  -0.358241  -0.287486  0  3.622432  0
N  N428  1  0.62476773  0.49304478  0.15165856  1  -1.233041  0  -0.357965  -0.288064  0  3.622562  0
N  N429  1  0.13185841  0.50715935  0.34827564  1  -1.2387  0  -0.358196  -0.287446  0  3.622389  0
N  N430  1  0.22589432  0.57383371  0.84452029  1  -1.226796  0  -0.241792  0.047464  0  3.761079  0
N  N431  1  0.65192304  0.42614859  0.65547591  1  -1.215472  0  -0.242326  0.046197  0  3.762511  0
N  N432  1  0.77410471  0.42616684  0.15548019  1  -1.226771  0  -0.241787  0.047472  0  3.761023  0
N  N433  1  0.34807820  0.57385282  0.34452411  1  -1.215473  0  -0.242267  0.04625  0  3.762536  0
N  N434  1  0.50071661  0.33710433  0.81065680  1  -1.243636  0  -0.366256  -0.295915  0  3.635596  0
N  N435  1  0.16347544  0.66286265  0.68941856  1  -1.24409  0  -0.365777  -0.295231  0  3.63567  0
N  N436  1  0.49927878  0.66290142  0.18934138  1  -1.243811  0  -0.366402  -0.296105  0  3.635695  0
N  N437  1  0.83652712  0.33713963  0.31058076  1  -1.24392  0  -0.365812  -0.295342  0  3.635699  0
N  N438  1  0.64060180  0.32263396  0.77580099  1  -1.220543  0  -0.237209  0.057045  0  3.723249  0
N  N439  1  0.31800570  0.67743142  0.72425234  1  -1.213436  0  -0.238335  0.056566  0  3.722876  0
N  N440  1  0.35939586  0.67736919  0.22419762  1  -1.220534  0  -0.237122  0.057038  0  3.723303  0
N  N441  1  0.68199554  0.32256999  0.27574696  1  -1.213436  0  -0.23828  0.056616  0  3.722848  0
N  N442  1  0.87966599  0.80795249  0.76816698  1  -1.211113  0  -0.240627  0.049892  0  3.768435  0
N  N443  1  0.07161382  0.19209118  0.73186578  1  -1.218372  0  -0.241492  0.049762  0  3.770064  0
N  N444  1  0.12033436  0.19204893  0.23183375  1  -1.21115  0  -0.24061  0.049927  0  3.76841  0
N  N445  1  0.92838924  0.80790676  0.26813370  1  -1.218385  0  -0.241448  0.049899  0  3.770064  0
N  N446  1  0.73661499  0.88158047  0.76408111  1  -1.258692  0  -0.361521  -0.299266  0  3.609336  0
N  N447  1  0.85493238  0.11802767  0.73601790  1  -1.264381  0  -0.361252  -0.299149  0  3.60929  0
N  N448  1  0.26338669  0.11842181  0.23592036  1  -1.258762  0  -0.361581  -0.299359  0  3.609247  0
N  N449  1  0.14507068  0.88197028  0.26398158  1  -1.264343  0  -0.361219  -0.299074  0  3.609297  0
O  O450  1  0.36008182  0.93287519  0.20966149  1  -1.171684  0  -0.33616  -0.558063  0  2.35098  0
O  O451  1  0.42714982  0.06714056  0.29027217  1  -1.176253  0  -0.336115  -0.557867  0  2.351049  0
O  O452  1  0.63991363  0.06712709  0.79033807  1  -1.171714  0  -0.336217  -0.558031  0  2.350933  0
O  O453  1  0.57285279  0.93285825  0.70972708  1  -1.17627  0  -0.336075  -0.557832  0  2.350935  0
O  O454  1  0.53121560  0.10932946  0.20633424  1  -1.198837  0  -0.327639  -0.572508  0  2.169469  0
O  O455  1  0.42197373  0.89068540  0.29354391  1  -1.199997  0  -0.326715  -0.570929  0  2.1696  0
O  O456  1  0.46878656  0.89067022  0.79366623  1  -1.19883  0  -0.327645  -0.572513  0  2.169534  0
O  O457  1  0.57802534  0.10931167  0.70645651  1  -1.199903  0  -0.326678  -0.57091  0  2.169669  0
O  O458  1  0.51944257  0.86475703  0.06781065  1  -1.068658  0  -0.179719  -0.197203  0  2.515117  0
O  O459  1  0.65436517  0.13512955  0.43214663  1  -1.066508  0  -0.179599  -0.196805  0  2.51423  0
O  O460  1  0.48055961  0.13524091  0.93218955  1  -1.068601  0  -0.179697  -0.197187  0  2.515109  0
O  O461  1  0.34562673  0.86487100  0.56785361  1  -1.066617  0  -0.179597  -0.196709  0  2.514199  0
O  O462  1  0.72834417  0.92212688  0.91740180  1  -1.066123  0  -0.183926  -0.211801  0  2.532616  0
O  O463  1  0.80642500  0.07782131  0.58260000  1  -1.071627  0  -0.183586  -0.21285  0  2.532923  0
O  O464  1  0.27165836  0.07787888  0.08259997  1  -1.06639  0  -0.183857  -0.211693  0  2.532577  0
O  O465  1  0.19356743  0.92217317  0.41739918  1  -1.071578  0  -0.183571  -0.21293  0  2.533021  0
O  O466  1  0.29548585  0.25835506  0.86962315  1  -1.175171  0  -0.342566  -0.553991  0  2.294367  0
O  O467  1  0.03714692  0.74135203  0.63035946  1  -1.163405  0  -0.342622  -0.553684  0  2.294036  0
O  O468  1  0.70451943  0.74164375  0.13037803  1  -1.175533  0  -0.342619  -0.554055  0  2.294371  0
O  O469  1  0.96284772  0.25864332  0.36964069  1  -1.163472  0  -0.342668  -0.553778  0  2.294015  0
O  O470  1  0.17517421  0.22976776  0.82346651  1  -1.204688  0  -0.342362  -0.595021  0  2.15919  0
O  O471  1  0.94536276  0.76981438  0.67651048  1  -1.201212  0  -0.34243  -0.595054  0  2.15959  0
O  O472  1  0.82483320  0.77023886  0.17653480  1  -1.204846  0  -0.342259  -0.59491  0  2.159195  0
O  O473  1  0.05463575  0.23019224  0.32349059  1  -1.201186  0  -0.342495  -0.595185  0  2.159602  0
O  O474  1  0.18691673  0.74245340  0.94388458  1  -1.060621  0  -0.183244  -0.214137  0  2.536549  0
O  O475  1  0.44434487  0.25726465  0.55614853  1  -1.062232  0  -0.183067  -0.213982  0  2.538503  0
O  O476  1  0.81308196  0.25753935  0.05611696  1  -1.060905  0  -0.183279  -0.214171  0  2.536538  0
O  O477  1  0.55565771  0.74273590  0.44385076  1  -1.06214  0  -0.183045  -0.213957  0  2.538553  0
O  O478  1  0.69264173  0.59954450  0.84961891  1  -1.184627  0  -0.327068  -0.564856  0  2.154202  0
O  O479  1  0.09310458  0.40049383  0.65041083  1  -1.189617  0  -0.327154  -0.565209  0  2.154121  0
O  O480  1  0.30736843  0.40045518  0.15037989  1  -1.184842  0  -0.32698  -0.564726  0  2.154178  0
O  O481  1  0.90689269  0.59950498  0.34958843  1  -1.189624  0  -0.327093  -0.565109  0  2.154102  0
O  O482  1  0.60442392  0.44947738  0.88171722  1  -1.18481  0  -0.335241  -0.553769  0  2.295477  0
O  O483  1  0.15523048  0.55060709  0.61833315  1  -1.17091  0  -0.335459  -0.553678  0  2.295954  0
O  O484  1  0.39558090  0.55052230  0.11828062  1  -1.184268  0  -0.335248  -0.553789  0  2.2954  0
O  O485  1  0.84476679  0.44939172  0.38166682  1  -1.170923  0  -0.335426  -0.553635  0  2.296083  0
