# generated using pymatgen
data_CdH21C27N7Cl2
_symmetry_space_group_name_H-M   'P 1'
_cell_length_a   15.03542789
_cell_length_b   17.91173348
_cell_length_c   25.71766012
_cell_angle_alpha   89.99987090
_cell_angle_beta   89.99988113
_cell_angle_gamma   89.99989254
_symmetry_Int_Tables_number   1
_chemical_formula_structural   CdH21C27N7Cl2
_chemical_formula_sum   'Cd8 H168 C216 N56 Cl16'
_cell_volume   6926.03789182
_cell_formula_units_Z   8
loop_
 _symmetry_equiv_pos_site_id
 _symmetry_equiv_pos_as_xyz
  1  'x, y, z'
loop_
 _atom_site_type_symbol
 _atom_site_label
 _atom_site_symmetry_multiplicity
 _atom_site_fract_x
 _atom_site_fract_y
 _atom_site_fract_z
 _atom_site_occupancy
 _atom_site_pbe_bader_charge
 _atom_site_pbe_bader_spin_density
 _atom_site_pbe_cm5_charge
 _atom_site_pbe_ddec_charge
 _atom_site_pbe_ddec_spin_density
 _atom_site_pbe_ddec_sum_bond_order
 _atom_site_pbe_magmom
Cd  Cd0  1  0.42178163  0.45624777  0.19206818  1  1.184932  0  0.638479  0.760932  0  2.445067  0
Cd  Cd1  1  0.57821727  0.45624467  0.30793127  1  1.18493  0  0.63847  0.760921  0  2.445116  0
Cd  Cd2  1  0.07821421  0.04375251  0.19207105  1  1.184938  0  0.638501  0.760986  0  2.445145  0
Cd  Cd3  1  0.92177763  0.04375389  0.30792828  1  1.184895  0  0.638423  0.760863  0  2.445194  0
Cd  Cd4  1  0.57821696  0.54375354  0.80792964  1  1.184976  0  0.638468  0.76095  0  2.44504  0
Cd  Cd5  1  0.42177798  0.54375273  0.69206694  1  1.185056  0  0.638489  0.760987  0  2.445055  0
Cd  Cd6  1  0.92178237  0.95624545  0.80793106  1  1.185015  0  0.638484  0.76094  0  2.445134  0
Cd  Cd7  1  0.07822029  0.95624407  0.69206994  1  1.184966  0  0.638467  0.760967  0  2.445133  0
H  H8  1  0.80819445  0.96225817  0.91926668  1  0.195693  0  0.118985  0.096103  0  1.050956  0
H  H9  1  0.19180754  0.96225697  0.58073198  1  0.195664  0  0.118991  0.096076  0  1.050925  0
H  H10  1  0.69180515  0.53774268  0.91926747  1  0.195681  0  0.118968  0.096058  0  1.050972  0
H  H11  1  0.30819445  0.53774130  0.58073302  1  0.195655  0  0.11898  0.096085  0  1.051013  0
H  H12  1  0.19180613  0.03773867  0.08073193  1  0.195651  0  0.118963  0.096026  0  1.051061  0
H  H13  1  0.80819437  0.03773875  0.41926779  1  0.19568  0  0.118968  0.096019  0  1.051062  0
H  H14  1  0.30819409  0.46225863  0.08073308  1  0.195673  0  0.118976  0.096078  0  1.051007  0
H  H15  1  0.69180546  0.46225889  0.41926675  1  0.195663  0  0.118961  0.096049  0  1.051046  0
H  H16  1  0.34139448  0.15773009  0.20001592  1  0.164345  0  0.10813  0.120597  0  1.076338  0
H  H17  1  0.65860576  0.15772912  0.29998439  1  0.164309  0  0.108145  0.120659  0  1.076359  0
H  H18  1  0.15860266  0.34226849  0.20001589  1  0.164413  0  0.108119  0.120554  0  1.076356  0
H  H19  1  0.84139716  0.34226947  0.29998452  1  0.164389  0  0.108112  0.120569  0  1.076395  0
H  H20  1  0.65860344  0.84226898  0.79998463  1  0.164363  0  0.108145  0.120639  0  1.076365  0
H  H21  1  0.34139615  0.84227051  0.70001538  1  0.16434  0  0.108141  0.120615  0  1.076336  0
H  H22  1  0.84139658  0.65773114  0.79998466  1  0.164373  0  0.108123  0.120588  0  1.076417  0
H  H23  1  0.15860608  0.65772905  0.70001603  1  0.164309  0  0.108124  0.1206  0  1.076364  0
H  H24  1  0.50181341  0.95435028  0.17533333  1  0.079991  0  0.102668  0.111606  0  1.003049  0
H  H25  1  0.49818638  0.95434837  0.32466729  1  0.079937  0  0.10265  0.111582  0  1.003025  0
H  H26  1  0.99818550  0.54564908  0.17533374  1  0.080003  0  0.102681  0.111622  0  1.003063  0
H  H27  1  0.00181453  0.54564962  0.32466713  1  0.07998  0  0.102677  0.111625  0  1.003072  0
H  H28  1  0.49818584  0.04564991  0.82466644  1  0.079983  0  0.102671  0.111613  0  1.003062  0
H  H29  1  0.50181287  0.04564904  0.67533287  1  0.080044  0  0.102678  0.111633  0  1.003027  0
H  H30  1  0.00181308  0.45435112  0.82466642  1  0.080042  0  0.102682  0.111625  0  1.003061  0
H  H31  1  0.99818738  0.45435057  0.67533303  1  0.080029  0  0.102664  0.111606  0  1.003058  0
H  H32  1  0.41168126  0.06657640  0.18761202  1  0.136542  0  0.093486  0.120932  0  1.057536  0
H  H33  1  0.58831984  0.06657439  0.31238687  1  0.136487  0  0.093451  0.120869  0  1.057556  0
H  H34  1  0.08831726  0.43342278  0.18761232  1  0.136503  0  0.09346  0.120867  0  1.057626  0
H  H35  1  0.91168103  0.43342416  0.31238639  1  0.136509  0  0.093457  0.120912  0  1.057516  0
H  H36  1  0.58831865  0.93342323  0.81238814  1  0.136483  0  0.09348  0.120924  0  1.057532  0
H  H37  1  0.41168073  0.93342301  0.68761173  1  0.13653  0  0.093467  0.120895  0  1.057559  0
H  H38  1  0.91168066  0.56657685  0.81238823  1  0.136469  0  0.093473  0.120915  0  1.057545  0
H  H39  1  0.08831955  0.56657603  0.68761182  1  0.136522  0  0.093466  0.120893  0  1.057549  0
H  H40  1  0.56665632  0.29901052  0.18005740  1  0.121577  0  0.129541  0.096691  0  1.015505  0
H  H41  1  0.43334294  0.29900873  0.31994307  1  0.121352  0  0.129555  0.096751  0  1.015469  0
H  H42  1  0.93334037  0.20098901  0.18005765  1  0.121516  0  0.129544  0.096758  0  1.01552  0
H  H43  1  0.06666043  0.20099003  0.31994259  1  0.12149  0  0.129526  0.096693  0  1.015502  0
H  H44  1  0.43334093  0.70098967  0.81994314  1  0.121506  0  0.129516  0.096687  0  1.015471  0
H  H45  1  0.56665897  0.70098979  0.68005670  1  0.121533  0  0.129524  0.096719  0  1.015478  0
H  H46  1  0.06666087  0.79901006  0.81994290  1  0.121485  0  0.129538  0.096733  0  1.015467  0
H  H47  1  0.93334347  0.79900961  0.68005795  1  0.121595  0  0.129527  0.096735  0  1.01549  0
H  H48  1  0.56368527  0.61157791  0.39601577  1  0.085164  0  0.11187  0.101616  0  1.031175  0
H  H49  1  0.43631595  0.61157849  0.10398383  1  0.085405  0  0.11187  0.101609  0  1.031191  0
H  H50  1  0.93631353  0.88842185  0.39601454  1  0.085206  0  0.111894  0.101635  0  1.031154  0
H  H51  1  0.06368374  0.88842077  0.10398540  1  0.085224  0  0.111887  0.101626  0  1.03121  0
H  H52  1  0.43631331  0.38842172  0.60398400  1  0.085167  0  0.111878  0.101604  0  1.03116  0
H  H53  1  0.56368529  0.38842003  0.89601555  1  0.08519  0  0.111883  0.101594  0  1.031288  0
H  H54  1  0.06368638  0.11157890  0.60398367  1  0.08517  0  0.111875  0.101611  0  1.031162  0
H  H55  1  0.93631550  0.11157830  0.89601632  1  0.085158  0  0.111873  0.101612  0  1.0312  0
H  H56  1  0.61283879  0.61084007  0.23554741  1  0.162171  0  0.127665  0.103602  0  1.029363  0
H  H57  1  0.38716242  0.61084076  0.26445219  1  0.162199  0  0.127671  0.103638  0  1.029347  0
H  H58  1  0.88715991  0.88915909  0.23554624  1  0.162144  0  0.127689  0.10354  0  1.029351  0
H  H59  1  0.11283803  0.88915910  0.26445370  1  0.162152  0  0.127694  0.103644  0  1.029251  0
H  H60  1  0.38715912  0.38915901  0.76445237  1  0.162185  0  0.12768  0.10355  0  1.02942  0
H  H61  1  0.61283948  0.38915776  0.73554719  1  0.16217  0  0.127688  0.103601  0  1.029389  0
H  H62  1  0.11283868  0.11084166  0.76445158  1  0.162193  0  0.12767  0.103566  0  1.029402  0
H  H63  1  0.88716122  0.11084054  0.73554802  1  0.162184  0  0.127668  0.103582  0  1.029384  0
H  H64  1  0.67317522  0.83995786  0.31804731  1  0.074773  0  0.106496  0.112363  0  0.99967  0
H  H65  1  0.32682615  0.83995779  0.18195349  1  0.074572  0  0.106518  0.112399  0  0.999659  0
H  H66  1  0.82682651  0.66004271  0.31804697  1  0.074564  0  0.106532  0.112412  0  0.999648  0
H  H67  1  0.17317193  0.66004233  0.18195411  1  0.074627  0  0.106526  0.112384  0  0.999657  0
H  H68  1  0.32682536  0.16004178  0.68195324  1  0.074781  0  0.106503  0.112344  0  0.999677  0
H  H69  1  0.67317309  0.16004240  0.81804628  1  0.074586  0  0.106524  0.112367  0  0.999698  0
H  H70  1  0.17317539  0.33995860  0.68195319  1  0.074551  0  0.106505  0.112381  0  0.999641  0
H  H71  1  0.82682599  0.33995842  0.81804566  1  0.074602  0  0.106517  0.112412  0  0.999644  0
H  H72  1  0.61900619  0.81230203  0.12823460  1  0.09775  0  0.107693  0.117181  0  0.986251  0
H  H73  1  0.38099391  0.81230127  0.37176585  1  0.097728  0  0.107719  0.117218  0  0.986234  0
H  H74  1  0.88099488  0.68769971  0.12823415  1  0.097732  0  0.107752  0.117286  0  0.986257  0
H  H75  1  0.11900550  0.68770047  0.37176649  1  0.097695  0  0.107754  0.117322  0  0.98626  0
H  H76  1  0.38099372  0.18769927  0.87176517  1  0.097768  0  0.107711  0.117245  0  0.986153  0
H  H77  1  0.61900534  0.18770116  0.62823392  1  0.097696  0  0.107746  0.117315  0  0.986274  0
H  H78  1  0.11900636  0.31229937  0.87176562  1  0.09773  0  0.107723  0.117242  0  0.986196  0
H  H79  1  0.88099508  0.31230084  0.62823289  1  0.097691  0  0.107733  0.117239  0  0.986284  0
H  H80  1  0.59533574  0.75837333  0.36480867  1  0.119516  0  0.124184  0.125018  0  1.005835  0
H  H81  1  0.40466581  0.75837386  0.13519147  1  0.119513  0  0.124217  0.12502  0  1.00587  0
H  H82  1  0.90466450  0.74162708  0.36480733  1  0.119522  0  0.124194  0.125003  0  1.005999  0
H  H83  1  0.09533310  0.74162642  0.13519245  1  0.119546  0  0.124196  0.125007  0  1.005837  0
H  H84  1  0.40466351  0.24162518  0.63519149  1  0.119468  0  0.124223  0.125033  0  1.005894  0
H  H85  1  0.59533543  0.24162410  0.86480830  1  0.119452  0  0.124225  0.12506  0  1.005918  0
H  H86  1  0.09533608  0.25837422  0.63519089  1  0.119474  0  0.124209  0.125021  0  1.005943  0
H  H87  1  0.90466548  0.25837322  0.86480810  1  0.119533  0  0.1242  0.125008  0  1.005961  0
H  H88  1  0.69976507  0.94618997  0.25965698  1  0.149238  0  0.095679  0.126644  0  1.044505  0
H  H89  1  0.30023540  0.94618976  0.24034365  1  0.149292  0  0.095689  0.126662  0  1.04449  0
H  H90  1  0.80023754  0.55380967  0.25965645  1  0.149316  0  0.095705  0.126678  0  1.044434  0
H  H91  1  0.19976248  0.55381073  0.24034479  1  0.149344  0  0.095723  0.126686  0  1.044454  0
H  H92  1  0.30023751  0.05380966  0.74034357  1  0.1493  0  0.095689  0.126643  0  1.044485  0
H  H93  1  0.69976119  0.05381155  0.75965535  1  0.149341  0  0.09572  0.126691  0  1.044476  0
H  H94  1  0.19976503  0.44618941  0.74034449  1  0.149243  0  0.0957  0.126693  0  1.044504  0
H  H95  1  0.80023744  0.44619058  0.75965537  1  0.149326  0  0.095713  0.126704  0  1.044408  0
H  H96  1  0.90592527  0.84178314  0.06596630  1  0.04164  0  0.102162  0.104934  0  1.006608  0
H  H97  1  0.09407343  0.84178319  0.43403410  1  0.041624  0  0.102171  0.104952  0  1.006559  0
H  H98  1  0.59407403  0.65821880  0.06596624  1  0.041589  0  0.102171  0.104936  0  1.006641  0
H  H99  1  0.40592376  0.65821724  0.43403367  1  0.041664  0  0.10216  0.104948  0  1.006632  0
H  H100  1  0.09407464  0.15821705  0.93403425  1  0.041614  0  0.102153  0.104917  0  1.006683  0
H  H101  1  0.90592515  0.15821756  0.56596567  1  0.041623  0  0.102153  0.10492  0  1.006637  0
H  H102  1  0.40592455  0.34178363  0.93403314  1  0.041658  0  0.102167  0.104956  0  1.006597  0
H  H103  1  0.59407416  0.34178519  0.56596649  1  0.041678  0  0.102172  0.104967  0  1.006611  0
H  H104  1  0.80886570  0.85131037  0.14305735  1  0.084654  0  0.097132  0.101086  0  1.046444  0
H  H105  1  0.19113431  0.85130939  0.35694265  1  0.084627  0  0.097147  0.101135  0  1.046447  0
H  H106  1  0.69113399  0.64869244  0.14305758  1  0.084618  0  0.097119  0.101077  0  1.046462  0
H  H107  1  0.30886514  0.64868960  0.35694391  1  0.08468  0  0.09715  0.101154  0  1.046424  0
H  H108  1  0.19113488  0.14869150  0.85694320  1  0.08464  0  0.097125  0.101093  0  1.04645  0
H  H109  1  0.80886560  0.14869192  0.64305595  1  0.084665  0  0.097123  0.101122  0  1.046441  0
H  H110  1  0.30886459  0.35130998  0.85694297  1  0.084658  0  0.097135  0.101104  0  1.046453  0
H  H111  1  0.69113543  0.35131059  0.64305664  1  0.084684  0  0.097144  0.101137  0  1.046452  0
H  H112  1  0.29268467  0.30780549  0.20901626  1  0.120497  0  0.109329  0.109538  0  1.049617  0
H  H113  1  0.70731456  0.30780447  0.29098420  1  0.119983  0  0.109357  0.109618  0  1.049553  0
H  H114  1  0.20731177  0.19219419  0.20901641  1  0.120343  0  0.109367  0.1096  0  1.049569  0
H  H115  1  0.79268838  0.19219527  0.29098424  1  0.120358  0  0.109358  0.109605  0  1.049571  0
H  H116  1  0.70731192  0.69219471  0.79098390  1  0.12  0  0.109358  0.109577  0  1.049592  0
H  H117  1  0.29268735  0.69219572  0.70901596  1  0.120341  0  0.109371  0.10961  0  1.049551  0
H  H118  1  0.79268947  0.80780489  0.79098453  1  0.120369  0  0.109374  0.109607  0  1.049549  0
H  H119  1  0.20731485  0.80780548  0.70901670  1  0.120511  0  0.109329  0.109559  0  1.04963  0
H  H120  1  0.64957792  0.20219181  0.17625382  1  0.024489  0  0.10356  0.108366  0  1.009974  0
H  H121  1  0.35042288  0.20218957  0.32374642  1  0.024556  0  0.10356  0.10832  0  1.010052  0
H  H122  1  0.85042078  0.29780830  0.17625401  1  0.024465  0  0.103552  0.108358  0  1.00998  0
H  H123  1  0.14957914  0.29780861  0.32374686  1  0.024474  0  0.103535  0.10833  0  1.010052  0
H  H124  1  0.35042133  0.79780839  0.82374634  1  0.024489  0  0.103573  0.108405  0  1.009937  0
H  H125  1  0.64957769  0.79780839  0.67625335  1  0.024487  0  0.10354  0.108371  0  1.009996  0
H  H126  1  0.14957780  0.70219245  0.82374654  1  0.0245  0  0.103528  0.108374  0  1.009991  0
H  H127  1  0.85042343  0.70219158  0.67625447  1  0.024513  0  0.103566  0.108398  0  1.009956  0
H  H128  1  0.58440260  0.70735400  0.18745432  1  0.057325  0  0.103875  0.107279  0  1.035114  0
H  H129  1  0.41559840  0.70735393  0.31254590  1  0.057294  0  0.10387  0.107309  0  1.035161  0
H  H130  1  0.91559694  0.79264755  0.18745445  1  0.057283  0  0.103857  0.107257  0  1.035154  0
H  H131  1  0.08440188  0.79264744  0.31254642  1  0.057263  0  0.103871  0.107323  0  1.035118  0
H  H132  1  0.41559598  0.29264619  0.81254545  1  0.057338  0  0.103878  0.107271  0  1.035119  0
H  H133  1  0.58440218  0.29264849  0.68745504  1  0.057273  0  0.103864  0.107242  0  1.035149  0
H  H134  1  0.08440364  0.20735320  0.81254494  1  0.057337  0  0.10387  0.10728  0  1.035096  0
H  H135  1  0.91559737  0.20735386  0.68745335  1  0.057287  0  0.10386  0.107276  0  1.035135  0
H  H136  1  0.73929616  0.08748371  0.16384798  1  0.065572  0  0.098316  0.118747  0  1.019381  0
H  H137  1  0.26070489  0.08748213  0.33615166  1  0.065578  0  0.09829  0.118733  0  1.019388  0
H  H138  1  0.76070390  0.41251700  0.16384849  1  0.065577  0  0.098309  0.118723  0  1.019374  0
H  H139  1  0.23929642  0.41251769  0.33615259  1  0.065557  0  0.098273  0.118704  0  1.019393  0
H  H140  1  0.26070375  0.91251649  0.83615179  1  0.06558  0  0.098323  0.118754  0  1.019353  0
H  H141  1  0.73929502  0.91251639  0.66384850  1  0.065584  0  0.098309  0.118749  0  1.019374  0
H  H142  1  0.23929601  0.58748264  0.83615206  1  0.065587  0  0.098312  0.118742  0  1.019353  0
H  H143  1  0.76070615  0.58748362  0.66384757  1  0.065613  0  0.09832  0.118794  0  1.019356  0
H  H144  1  0.08223047  0.91745014  0.91285016  1  0.117927  0  0.111807  0.110987  0  1.013528  0
H  H145  1  0.91777162  0.91745057  0.58714934  1  0.117965  0  0.111801  0.110943  0  1.013579  0
H  H146  1  0.41776901  0.58254929  0.91285100  1  0.117952  0  0.111816  0.110933  0  1.013539  0
H  H147  1  0.58222983  0.58255025  0.58714942  1  0.117943  0  0.111799  0.110922  0  1.013561  0
H  H148  1  0.91777077  0.08254949  0.08715077  1  0.117938  0  0.111796  0.110947  0  1.013531  0
H  H149  1  0.08223029  0.08254851  0.41284849  1  0.11792  0  0.111775  0.110902  0  1.013509  0
H  H150  1  0.58222957  0.41745034  0.08714955  1  0.117957  0  0.111789  0.11092  0  1.013511  0
H  H151  1  0.41776942  0.41745050  0.41285035  1  0.117941  0  0.111778  0.110888  0  1.013514  0
H  H152  1  0.76429039  0.02409373  0.99454606  1  0.057428  0  0.107083  0.111708  0  0.995138  0
H  H153  1  0.23570969  0.02409326  0.50545406  1  0.057475  0  0.107039  0.111737  0  0.995148  0
H  H154  1  0.73571205  0.47590764  0.99454611  1  0.056859  0  0.10705  0.111765  0  0.995126  0
H  H155  1  0.26428902  0.47590824  0.50545525  1  0.05683  0  0.107036  0.111728  0  0.995188  0
H  H156  1  0.23571085  0.97590591  0.00545410  1  0.057415  0  0.107086  0.11173  0  0.995178  0
H  H157  1  0.76428822  0.97590693  0.49454571  1  0.056821  0  0.107043  0.111739  0  0.995211  0
H  H158  1  0.26428985  0.52409423  0.00545327  1  0.057428  0  0.107084  0.111739  0  0.995181  0
H  H159  1  0.73571022  0.52409474  0.49454569  1  0.057402  0  0.107096  0.111721  0  0.995156  0
H  H160  1  0.66437136  0.03087912  0.07027035  1  0.067636  0  0.104982  0.115451  0  1.006317  0
H  H161  1  0.33562849  0.03087824  0.42973016  1  0.067647  0  0.104983  0.115461  0  1.006379  0
H  H162  1  0.83562905  0.46912244  0.07027107  1  0.07031  0  0.104986  0.115477  0  1.00633  0
H  H163  1  0.16436783  0.46912351  0.42973147  1  0.070114  0  0.104974  0.115451  0  1.006253  0
H  H164  1  0.33562989  0.96912107  0.92972942  1  0.070275  0  0.10498  0.115442  0  1.00632  0
H  H165  1  0.66437009  0.96912251  0.57027078  1  0.070294  0  0.104968  0.115442  0  1.006356  0
H  H166  1  0.16437087  0.53087942  0.92972948  1  0.067777  0  0.104979  0.115442  0  1.006347  0
H  H167  1  0.83562942  0.53088003  0.57026985  1  0.067612  0  0.104985  0.11544  0  1.006319  0
H  H168  1  0.02503783  0.89808444  0.01517018  1  0.074123  0  0.117397  0.114686  0  1.023723  0
H  H169  1  0.97496141  0.89808405  0.48482858  1  0.074092  0  0.117379  0.11468  0  1.023709  0
H  H170  1  0.47496151  0.60191678  0.01517092  1  0.074093  0  0.117388  0.114681  0  1.023705  0
H  H171  1  0.52503840  0.60191709  0.48482948  1  0.074092  0  0.117384  0.114655  0  1.023717  0
H  H172  1  0.97496075  0.10191686  0.98482998  1  0.074111  0  0.117396  0.114739  0  1.023688  0
H  H173  1  0.02503916  0.10191670  0.51516769  1  0.074141  0  0.117382  0.114605  0  1.023767  0
H  H174  1  0.52503774  0.39808453  0.98482963  1  0.074121  0  0.117382  0.11466  0  1.023791  0
H  H175  1  0.47496218  0.39808533  0.51516913  1  0.074196  0  0.117374  0.114582  0  1.023785  0
C  C176  1  0.87556266  0.94972051  0.93173473  1  0.912335  0  0.133089  0.089557  0  3.907755  0
C  C177  1  0.12443869  0.94971722  0.56826550  1  0.912232  0  0.133109  0.089661  0  3.907709  0
C  C178  1  0.62443889  0.55028254  0.93173442  1  0.912323  0  0.13314  0.089697  0  3.907705  0
C  C179  1  0.37556135  0.55027774  0.56826605  1  0.912231  0  0.133081  0.089554  0  3.907665  0
C  C180  1  0.12443858  0.05027689  0.06826465  1  0.91225  0  0.133131  0.089615  0  3.907658  0
C  C181  1  0.87556255  0.05027571  0.43173505  1  0.912189  0  0.133093  0.089521  0  3.907795  0
C  C182  1  0.37556102  0.44972156  0.06826457  1  0.912235  0  0.13311  0.089586  0  3.907706  0
C  C183  1  0.62443789  0.44972189  0.43173411  1  0.912249  0  0.133112  0.089632  0  3.907783  0
C  C184  1  0.62601446  0.01387394  0.16665824  1  0.291355  0  0.088881  0.17252  0  4.03295  0
C  C185  1  0.37398409  0.01387052  0.33334035  1  0.291649  0  0.088856  0.172381  0  4.033058  0
C  C186  1  0.87398626  0.48612731  0.16665850  1  0.291627  0  0.088893  0.172484  0  4.03313  0
C  C187  1  0.12601324  0.48612763  0.33334208  1  0.291326  0  0.088943  0.172571  0  4.03298  0
C  C188  1  0.37398611  0.98612681  0.83334114  1  0.291635  0  0.088857  0.172425  0  4.033028  0
C  C189  1  0.62601449  0.98612911  0.66665864  1  0.291594  0  0.088915  0.172549  0  4.033082  0
C  C190  1  0.12601299  0.51387232  0.83334166  1  0.291659  0  0.088902  0.172505  0  4.033065  0
C  C191  1  0.87398667  0.51387312  0.66665808  1  0.291565  0  0.088981  0.172638  0  4.033038  0
C  C192  1  0.38032514  0.20872290  0.19818521  1  0.303418  0  -0.004833  -0.107284  0  3.908636  0
C  C193  1  0.61967631  0.20872142  0.30181619  1  0.303078  0  -0.004871  -0.107416  0  3.908744  0
C  C194  1  0.11967334  0.29127569  0.19818686  1  0.303236  0  -0.004771  -0.107172  0  3.908544  0
C  C195  1  0.88032660  0.29127716  0.30181480  1  0.303188  0  -0.004788  -0.107257  0  3.908595  0
C  C196  1  0.61967544  0.79127674  0.80181573  1  0.303405  0  -0.004833  -0.10738  0  3.908709  0
C  C197  1  0.38032427  0.79127709  0.69818475  1  0.303239  0  -0.004845  -0.107327  0  3.908642  0
C  C198  1  0.88032524  0.70872394  0.80181602  1  0.303236  0  -0.004824  -0.107317  0  3.908747  0
C  C199  1  0.11967531  0.70872247  0.69818653  1  0.303426  0  -0.004802  -0.107253  0  3.908567  0
C  C200  1  0.53422458  0.00881196  0.17498332  1  0.044329  0  -0.091595  -0.150642  0  3.986137  0
C  C201  1  0.46577532  0.00880953  0.32501645  1  0.044018  0  -0.09155  -0.150574  0  3.986015  0
C  C202  1  0.96577478  0.49118871  0.17498384  1  0.04423  0  -0.091582  -0.150662  0  3.986258  0
C  C203  1  0.03422404  0.49118865  0.32501672  1  0.044323  0  -0.091592  -0.150718  0  3.986322  0
C  C204  1  0.46577466  0.99118879  0.82501606  1  0.044262  0  -0.091566  -0.15065  0  3.986236  0
C  C205  1  0.53422526  0.99118898  0.67498216  1  0.043952  0  -0.091605  -0.150703  0  3.986193  0
C  C206  1  0.03422380  0.50881148  0.82501632  1  0.044177  0  -0.091609  -0.150703  0  3.986255  0
C  C207  1  0.96577521  0.50881099  0.67498305  1  0.044282  0  -0.091587  -0.150681  0  3.986207  0
C  C208  1  0.48334134  0.07268631  0.18245754  1  -0.085683  0  -0.09239  -0.146657  0  3.968403  0
C  C209  1  0.51666041  0.07268384  0.31754368  1  -0.084564  0  -0.092365  -0.146575  0  3.968287  0
C  C210  1  0.01665719  0.42731512  0.18245871  1  -0.085633  0  -0.092392  -0.146611  0  3.968483  0
C  C211  1  0.98334111  0.42731469  0.31754312  1  -0.084604  0  -0.09239  -0.146636  0  3.968372  0
C  C212  1  0.51665790  0.92731499  0.81754145  1  -0.085626  0  -0.092396  -0.146648  0  3.96842  0
C  C213  1  0.48334083  0.92731524  0.68245764  1  -0.084625  0  -0.092375  -0.14662  0  3.968417  0
C  C214  1  0.98334139  0.57268508  0.81754184  1  -0.085692  0  -0.092388  -0.146626  0  3.968452  0
C  C215  1  0.01665947  0.57268550  0.68245782  1  -0.084615  0  -0.092377  -0.146588  0  3.968436  0
C  C216  1  0.49870814  0.28111448  0.18627420  1  0.979573  0  0.137689  0.098634  0  3.90583  0
C  C217  1  0.50129248  0.28111259  0.31372669  1  0.980674  0  0.137663  0.09851  0  3.90584  0
C  C218  1  0.00128905  0.21888527  0.18627611  1  0.979553  0  0.137667  0.098504  0  3.906081  0
C  C219  1  0.99871038  0.21888595  0.31372605  1  0.980104  0  0.137667  0.098549  0  3.905939  0
C  C220  1  0.50129044  0.71888572  0.81372596  1  0.979603  0  0.137693  0.098594  0  3.90585  0
C  C221  1  0.49870876  0.71888481  0.68627230  1  0.980095  0  0.13769  0.098551  0  3.905824  0
C  C222  1  0.99871020  0.78111492  0.81372678  1  0.980106  0  0.1377  0.098563  0  3.9059  0
C  C223  1  0.00129152  0.78111368  0.68627644  1  0.979336  0  0.13768  0.098512  0  3.905827  0
C  C224  1  0.57866792  0.63405597  0.35791196  1  0.412642  0  -0.005496  -0.03346  0  4.037675  0
C  C225  1  0.42133723  0.63405811  0.14208799  1  0.412376  0  -0.005456  -0.033453  0  4.037789  0
C  C226  1  0.92132968  0.86594280  0.35791196  1  0.412612  0  -0.005481  -0.033465  0  4.037704  0
C  C227  1  0.07866232  0.86594158  0.14208840  1  0.412575  0  -0.005443  -0.033375  0  4.037581  0
C  C228  1  0.42132800  0.36594311  0.64208742  1  0.412635  0  -0.005492  -0.033413  0  4.037664  0
C  C229  1  0.57866867  0.36594208  0.85791217  1  0.412643  0  -0.005556  -0.033577  0  4.037956  0
C  C230  1  0.07867090  0.13405739  0.64208742  1  0.412638  0  -0.005516  -0.033479  0  4.03767  0
C  C231  1  0.92133293  0.13405694  0.85791214  1  0.412626  0  -0.005534  -0.033535  0  4.037812  0
C  C232  1  0.52404979  0.14291623  0.18157713  1  0.264668  0  0.09012  0.158675  0  4.011681  0
C  C233  1  0.47594981  0.14291381  0.31842242  1  0.264771  0  0.090108  0.158566  0  4.011593  0
C  C234  1  0.97594889  0.35708498  0.18157941  1  0.264762  0  0.090119  0.15874  0  4.011556  0
C  C235  1  0.02405156  0.35708495  0.31842098  1  0.264302  0  0.090084  0.158649  0  4.011574  0
C  C236  1  0.47594880  0.85708564  0.81842186  1  0.264729  0  0.09012  0.158697  0  4.01157  0
C  C237  1  0.52405076  0.85708582  0.68157773  1  0.264788  0  0.090125  0.158724  0  4.011565  0
C  C238  1  0.02405102  0.64291410  0.81842269  1  0.264788  0  0.090129  0.158728  0  4.011596  0
C  C239  1  0.97594968  0.64291524  0.68157763  1  0.264679  0  0.090115  0.158648  0  4.011739  0
C  C240  1  0.66150496  0.88600443  0.18992404  1  0.302906  0  0.09201  0.172625  0  4.037723  0
C  C241  1  0.33849764  0.88600337  0.31007669  1  0.302924  0  0.092085  0.172688  0  4.037695  0
C  C242  1  0.83849922  0.61399600  0.18992375  1  0.302869  0  0.092059  0.172711  0  4.037776  0
C  C243  1  0.16150065  0.61399634  0.31007701  1  0.302845  0  0.092038  0.172589  0  4.037857  0
C  C244  1  0.33849828  0.11399576  0.81007573  1  0.302874  0  0.092059  0.17266  0  4.037657  0
C  C245  1  0.66149961  0.11399626  0.68992347  1  0.302918  0  0.092071  0.172669  0  4.037784  0
C  C246  1  0.16150601  0.38600308  0.81007602  1  0.302864  0  0.092015  0.172657  0  4.03759  0
C  C247  1  0.83849992  0.38600386  0.68992315  1  0.30289  0  0.092056  0.172636  0  4.037795  0
C  C248  1  0.60245988  0.63132268  0.27476986  1  0.963252  0  0.141747  0.099833  0  3.900945  0
C  C249  1  0.39754661  0.63132404  0.22523010  1  0.962754  0  0.141866  0.099909  0  3.901141  0
C  C250  1  0.89753801  0.86867747  0.27476988  1  0.963266  0  0.141892  0.10017  0  3.900802  0
C  C251  1  0.10245331  0.86867595  0.22523126  1  0.962745  0  0.141807  0.099922  0  3.900954  0
C  C252  1  0.39753671  0.36867696  0.72522952  1  0.963273  0  0.141949  0.100291  0  3.900896  0
C  C253  1  0.60245995  0.36867671  0.77477045  1  0.962974  0  0.141801  0.099973  0  3.900945  0
C  C254  1  0.10246057  0.13132328  0.72522911  1  0.963286  0  0.141901  0.10012  0  3.900867  0
C  C255  1  0.89754194  0.13132313  0.77477046  1  0.962959  0  0.141905  0.100024  0  3.900901  0
C  C256  1  0.65886243  0.83364029  0.27670919  1  -0.039997  0  -0.091471  -0.151964  0  3.982212  0
C  C257  1  0.34114028  0.83364174  0.22329123  1  -0.039977  0  -0.091568  -0.152064  0  3.982382  0
C  C258  1  0.84114077  0.66635874  0.27670882  1  -0.039969  0  -0.091557  -0.152086  0  3.98225  0
C  C259  1  0.15885699  0.66635825  0.22329263  1  -0.040231  0  -0.091585  -0.152077  0  3.98241  0
C  C260  1  0.34113947  0.16635823  0.72329058  1  -0.040234  0  -0.091518  -0.151955  0  3.98222  0
C  C261  1  0.65885830  0.16635789  0.77670854  1  -0.039993  0  -0.09152  -0.151938  0  3.982286  0
C  C262  1  0.15886512  0.33364034  0.72329134  1  -0.039768  0  -0.091456  -0.151917  0  3.982235  0
C  C263  1  0.84114159  0.33364083  0.77670830  1  -0.039901  0  -0.091532  -0.152027  0  3.982356  0
C  C264  1  0.63067189  0.81789606  0.16990751  1  0.005239  0  -0.091307  -0.156485  0  4.001879  0
C  C265  1  0.36933086  0.81789433  0.33009293  1  0.005107  0  -0.091307  -0.15646  0  4.001958  0
C  C266  1  0.86933236  0.68210387  0.16990747  1  0.005221  0  -0.091365  -0.156598  0  4.001949  0
C  C267  1  0.13066670  0.68210420  0.33009357  1  0.005207  0  -0.091341  -0.15659  0  4.002033  0
C  C268  1  0.36933068  0.18210358  0.83009187  1  0.005208  0  -0.091297  -0.156551  0  4.001928  0
C  C269  1  0.63066839  0.18210642  0.66990606  1  0.005243  0  -0.091344  -0.156646  0  4.002018  0
C  C270  1  0.13067154  0.31789576  0.83009346  1  0.005124  0  -0.09133  -0.156552  0  4.00181  0
C  C271  1  0.86933188  0.31789544  0.66990659  1  0.005121  0  -0.091328  -0.156541  0  4.002017  0
C  C272  1  0.59508908  0.70652858  0.34321343  1  0.283222  0  -0.008581  -0.128364  0  3.956312  0
C  C273  1  0.40491724  0.70653015  0.15678640  1  0.283153  0  -0.008601  -0.128277  0  3.956069  0
C  C274  1  0.90491056  0.79347135  0.34321357  1  0.283186  0  -0.008541  -0.128256  0  3.956337  0
C  C275  1  0.09508093  0.79347061  0.15678730  1  0.283186  0  -0.00863  -0.128356  0  3.956057  0
C  C276  1  0.40491016  0.29346993  0.65678517  1  0.283167  0  -0.008586  -0.1283  0  3.956154  0
C  C277  1  0.59508866  0.29346948  0.84321414  1  0.283183  0  -0.008622  -0.12832  0  3.956239  0
C  C278  1  0.09509001  0.20652996  0.65678581  1  0.283168  0  -0.008586  -0.128311  0  3.956305  0
C  C279  1  0.90491432  0.20652958  0.84321325  1  0.283181  0  -0.008584  -0.128309  0  3.956383  0
C  C280  1  0.67500630  0.89358930  0.24358131  1  -0.002112  0  -0.085607  -0.139944  0  3.941445  0
C  C281  1  0.32499562  0.89359012  0.25641862  1  -0.001957  0  -0.085589  -0.139936  0  3.9415  0
C  C282  1  0.82499836  0.60641039  0.24358106  1  -0.001948  0  -0.085604  -0.139953  0  3.941444  0
C  C283  1  0.17500154  0.60641032  0.25642010  1  -0.001877  0  -0.0856  -0.139883  0  3.941529  0
C  C284  1  0.32499760  0.10640977  0.75641846  1  -0.00197  0  -0.085579  -0.139947  0  3.941408  0
C  C285  1  0.67500097  0.10640952  0.74358076  1  -0.00198  0  -0.085657  -0.140043  0  3.941546  0
C  C286  1  0.17500754  0.39358924  0.75641910  1  -0.00214  0  -0.085602  -0.140007  0  3.941432  0
C  C287  1  0.82499837  0.39358987  0.74358006  1  -0.002001  0  -0.085612  -0.139984  0  3.941505  0
C  C288  1  0.62759440  0.76593389  0.25663240  1  0.275107  0  0.087913  0.1562  0  4.027911  0
C  C289  1  0.37241113  0.76593523  0.24336735  1  0.274986  0  0.088033  0.156295  0  4.027981  0
C  C290  1  0.87240755  0.73406632  0.25663266  1  0.27544  0  0.087978  0.156299  0  4.027852  0
C  C291  1  0.12758807  0.73406469  0.24336830  1  0.275509  0  0.088052  0.1563  0  4.028013  0
C  C292  1  0.37240551  0.23406518  0.74336776  1  0.275445  0  0.087934  0.156273  0  4.027833  0
C  C293  1  0.62759211  0.23406440  0.75663242  1  0.274982  0  0.088004  0.156299  0  4.027832  0
C  C294  1  0.12759568  0.26593443  0.74336711  1  0.275123  0  0.087915  0.156173  0  4.027954  0
C  C295  1  0.87241051  0.26593494  0.75663264  1  0.275281  0  0.088031  0.156316  0  4.027954  0
C  C296  1  0.73002653  0.94222295  0.11274547  1  0.370184  0  0.098997  0.191948  0  4.038561  0
C  C297  1  0.26997528  0.94222064  0.38725594  1  0.370503  0  0.099057  0.192072  0  4.038422  0
C  C298  1  0.76997593  0.55778051  0.11274419  1  0.370077  0  0.098985  0.191996  0  4.038403  0
C  C299  1  0.23002141  0.55777993  0.38725627  1  0.370554  0  0.099017  0.192039  0  4.038295  0
C  C300  1  0.26997538  0.05777891  0.88725508  1  0.370184  0  0.099008  0.191968  0  4.038546  0
C  C301  1  0.73002264  0.05777955  0.61274383  1  0.370351  0  0.098994  0.192025  0  4.038289  0
C  C302  1  0.23002597  0.44222247  0.88725519  1  0.370502  0  0.099036  0.192006  0  4.038454  0
C  C303  1  0.76997584  0.44222193  0.61274389  1  0.370458  0  0.099011  0.191954  0  4.038392  0
C  C304  1  0.85365534  0.88394828  0.06707021  1  0.010026  0  -0.094719  -0.14957  0  4.018178  0
C  C305  1  0.14634526  0.88394657  0.43292974  1  0.010024  0  -0.094748  -0.149636  0  4.018199  0
C  C306  1  0.64634462  0.61605477  0.06707054  1  0.010034  0  -0.094768  -0.149615  0  4.018167  0
C  C307  1  0.35365393  0.61605218  0.43292982  1  0.009746  0  -0.094761  -0.149647  0  4.018292  0
C  C308  1  0.14634390  0.11605414  0.93292917  1  0.01002  0  -0.094712  -0.149543  0  4.018177  0
C  C309  1  0.85365465  0.11605418  0.56707003  1  0.01005  0  -0.094738  -0.149614  0  4.018116  0
C  C310  1  0.35365463  0.38394765  0.93292961  1  0.01002  0  -0.094713  -0.149562  0  4.018202  0
C  C311  1  0.64634532  0.38394913  0.56707034  1  0.010038  0  -0.094723  -0.149591  0  4.018369  0
C  C312  1  0.79879350  0.88896340  0.11040350  1  0.001775  0  -0.100845  -0.165771  0  3.997814  0
C  C313  1  0.20120776  0.88896119  0.38959644  1  0.001761  0  -0.10084  -0.165823  0  3.997758  0
C  C314  1  0.70120963  0.61103840  0.11040377  1  0.001776  0  -0.100755  -0.165695  0  3.997765  0
C  C315  1  0.29878760  0.61103882  0.38959738  1  0.002068  0  -0.100785  -0.165799  0  3.997761  0
C  C316  1  0.20120907  0.11103791  0.88959666  1  0.001773  0  -0.100833  -0.165809  0  3.997856  0
C  C317  1  0.79879016  0.11103677  0.61040333  1  0.00179  0  -0.100768  -0.165756  0  3.997698  0
C  C318  1  0.29879294  0.38896291  0.88959677  1  0.001759  0  -0.10089  -0.165869  0  3.997902  0
C  C319  1  0.70120832  0.38896305  0.61040317  1  0.001774  0  -0.100854  -0.165857  0  3.997887  0
C  C320  1  0.84225296  0.93282582  0.02520517  1  0.254198  0  0.079464  0.140265  0  4.049163  0
C  C321  1  0.15774753  0.93282563  0.47479431  1  0.254215  0  0.079465  0.140318  0  4.049168  0
C  C322  1  0.65774781  0.56717738  0.02520479  1  0.254239  0  0.079439  0.140262  0  4.049142  0
C  C323  1  0.34225284  0.56717522  0.47479487  1  0.254183  0  0.079459  0.140299  0  4.049271  0
C  C324  1  0.15774628  0.06717326  0.97479382  1  0.25427  0  0.079446  0.140237  0  4.049045  0
C  C325  1  0.84225371  0.06717512  0.52520468  1  0.254238  0  0.07948  0.140263  0  4.049105  0
C  C326  1  0.34225276  0.43282784  0.97479420  1  0.25417  0  0.079471  0.140276  0  4.049193  0
C  C327  1  0.65774774  0.43282720  0.52520567  1  0.254185  0  0.079473  0.140277  0  4.049316  0
C  C328  1  0.35682456  0.28241092  0.20210893  1  0.355818  0  -0.009493  -0.041148  0  4.019111  0
C  C329  1  0.64317473  0.28240942  0.29789235  1  0.356508  0  -0.009501  -0.041197  0  4.019179  0
C  C330  1  0.14317191  0.21758877  0.20211028  1  0.356356  0  -0.009583  -0.041239  0  4.019135  0
C  C331  1  0.85682752  0.21758973  0.29789150  1  0.356375  0  -0.009551  -0.041232  0  4.019204  0
C  C332  1  0.64317403  0.71758983  0.79789084  1  0.356143  0  -0.009543  -0.041152  0  4.019214  0
C  C333  1  0.35682651  0.71758910  0.70210781  1  0.356348  0  -0.00956  -0.041226  0  4.019307  0
C  C334  1  0.85682733  0.78241086  0.79789183  1  0.356339  0  -0.009561  -0.041184  0  4.019218  0
C  C335  1  0.14317439  0.78241046  0.70211061  1  0.355809  0  -0.009512  -0.041251  0  4.019275  0
C  C336  1  0.61642561  0.14820041  0.17483929  1  0.038768  0  -0.096055  -0.164771  0  4.014539  0
C  C337  1  0.38357464  0.14819756  0.32515948  1  0.038753  0  -0.096125  -0.164779  0  4.0146  0
C  C338  1  0.88357309  0.35180082  0.17484013  1  0.038742  0  -0.096093  -0.164862  0  4.014507  0
C  C339  1  0.11642804  0.35180174  0.32515987  1  0.039255  0  -0.096103  -0.164817  0  4.014556  0
C  C340  1  0.38357430  0.85180146  0.82516009  1  0.038771  0  -0.096086  -0.164882  0  4.014614  0
C  C341  1  0.61642594  0.85180096  0.67483951  1  0.038795  0  -0.096066  -0.164835  0  4.014611  0
C  C342  1  0.11642616  0.64819882  0.82516119  1  0.038782  0  -0.096076  -0.164885  0  4.014637  0
C  C343  1  0.88357453  0.64819957  0.67483951  1  0.038909  0  -0.096056  -0.164799  0  4.014521  0
C  C344  1  0.61284001  0.75854330  0.20308516  1  -0.002466  0  -0.09741  -0.16649  0  4.016453  0
C  C345  1  0.38716353  0.75854277  0.29691498  1  -0.00239  0  -0.097518  -0.166694  0  4.016641  0
C  C346  1  0.88716146  0.74145764  0.20308462  1  -0.002464  0  -0.097489  -0.166609  0  4.016452  0
C  C347  1  0.11283614  0.74145698  0.29691594  1  -0.002474  0  -0.097544  -0.166727  0  4.016577  0
C  C348  1  0.38715990  0.24145633  0.79691500  1  -0.002477  0  -0.09745  -0.16654  0  4.016511  0
C  C349  1  0.61283838  0.24145742  0.70308362  1  -0.002552  0  -0.097482  -0.166524  0  4.016438  0
C  C350  1  0.11284111  0.25854367  0.79691554  1  -0.002352  0  -0.09744  -0.166519  0  4.016392  0
C  C351  1  0.88716244  0.25854265  0.70308422  1  -0.002372  0  -0.097509  -0.166622  0  4.01648  0
C  C352  1  0.66715654  0.08409268  0.16767186  1  0.053494  0  -0.091036  -0.147977  0  3.98426  0
C  C353  1  0.33284319  0.08409101  0.33232701  1  0.053539  0  -0.091007  -0.147935  0  3.984272  0
C  C354  1  0.83284351  0.41590801  0.16767228  1  0.053253  0  -0.091046  -0.147914  0  3.984297  0
C  C355  1  0.16715747  0.41590882  0.33232918  1  0.053525  0  -0.091006  -0.147922  0  3.984241  0
C  C356  1  0.33284403  0.91590807  0.83232752  1  0.05323  0  -0.091051  -0.147956  0  3.984355  0
C  C357  1  0.66715606  0.91590919  0.66767198  1  0.053513  0  -0.091059  -0.148007  0  3.984358  0
C  C358  1  0.16715574  0.58409107  0.83232788  1  0.053258  0  -0.091059  -0.147956  0  3.984343  0
C  C359  1  0.83284510  0.58409248  0.66767175  1  0.05308  0  -0.091151  -0.148191  0  3.984418  0
C  C360  1  0.01648571  0.92340995  0.92967404  1  0.387297  0  -0.007978  -0.034977  0  4.033673  0
C  C361  1  0.98351503  0.92340865  0.57032584  1  0.38722  0  -0.007971  -0.034847  0  4.0338  0
C  C362  1  0.48351504  0.57659167  0.92967442  1  0.387231  0  -0.007984  -0.034866  0  4.033756  0
C  C363  1  0.51648581  0.57658999  0.57032523  1  0.387229  0  -0.007951  -0.034875  0  4.033598  0
C  C364  1  0.98351487  0.07658801  0.07032650  1  0.387343  0  -0.007925  -0.034834  0  4.033689  0
C  C365  1  0.01648621  0.07658708  0.42967355  1  0.387242  0  -0.007922  -0.034855  0  4.03352  0
C  C366  1  0.51648420  0.42341020  0.07032574  1  0.387246  0  -0.007931  -0.034884  0  4.033627  0
C  C367  1  0.48351477  0.42340965  0.42967454  1  0.387287  0  -0.007935  -0.034841  0  4.033589  0
C  C368  1  0.77371278  0.98565102  0.02693667  1  0.005943  0  -0.09348  -0.151614  0  4.024524  0
C  C369  1  0.22628893  0.98565017  0.47306390  1  0.005897  0  -0.093384  -0.151604  0  4.024544  0
C  C370  1  0.72629065  0.51435217  0.02693590  1  0.006881  0  -0.093445  -0.151743  0  4.024665  0
C  C371  1  0.27370945  0.51435236  0.47306502  1  0.006856  0  -0.09341  -0.151706  0  4.024718  0
C  C372  1  0.22628912  0.01434862  0.97306349  1  0.005945  0  -0.093504  -0.151734  0  4.024696  0
C  C373  1  0.77370965  0.01435170  0.52693470  1  0.006855  0  -0.093452  -0.151732  0  4.024669  0
C  C374  1  0.27371192  0.48565137  0.97306309  1  0.005933  0  -0.093516  -0.151741  0  4.024726  0
C  C375  1  0.72628780  0.48565174  0.52693670  1  0.005928  0  -0.093502  -0.151693  0  4.02465  0
C  C376  1  0.71766774  0.98977008  0.06972792  1  -0.016551  0  -0.100605  -0.172481  0  4.00083  0
C  C377  1  0.28233396  0.98976872  0.43027303  1  -0.01657  0  -0.100648  -0.172564  0  4.000896  0
C  C378  1  0.78233487  0.51023353  0.06972631  1  -0.019533  0  -0.100643  -0.17249  0  4.000939  0
C  C379  1  0.21766391  0.51023283  0.43027461  1  -0.019343  0  -0.100677  -0.172491  0  4.000729  0
C  C380  1  0.28233417  0.01023179  0.93027341  1  -0.019209  0  -0.100621  -0.172445  0  4.00088  0
C  C381  1  0.71766462  0.01023315  0.56972557  1  -0.019498  0  -0.100672  -0.172539  0  4.00082  0
C  C382  1  0.21766637  0.48977002  0.93027230  1  -0.016737  0  -0.100596  -0.172427  0  4.000817  0
C  C383  1  0.78233401  0.48976960  0.56972671  1  -0.01658  0  -0.100628  -0.172433  0  4.000757  0
C  C384  1  0.98919290  0.91297180  0.98019050  1  0.319706  0  -0.010611  -0.120318  0  3.95457  0
C  C385  1  0.01080720  0.91297109  0.51980901  1  0.31977  0  -0.010632  -0.120377  0  3.954643  0
C  C386  1  0.51080781  0.58702941  0.98019105  1  0.319741  0  -0.010627  -0.120348  0  3.95464  0
C  C387  1  0.48919301  0.58702850  0.51980859  1  0.319886  0  -0.010585  -0.120279  0  3.954633  0
C  C388  1  0.01080701  0.08702783  0.01980927  1  0.319846  0  -0.010676  -0.120578  0  3.954632  0
C  C389  1  0.98919272  0.08702631  0.48018960  1  0.319751  0  -0.010597  -0.120318  0  3.954496  0
C  C390  1  0.48919210  0.41297245  0.01980911  1  0.319777  0  -0.010626  -0.120338  0  3.954703  0
C  C391  1  0.51080823  0.41297113  0.48019002  1  0.319683  0  -0.010569  -0.12016  0  3.954629  0
N  N392  1  0.60987293  0.70444846  0.28987498  1  -1.264063  0  -0.22666  0.008273  0  3.802051  0
N  N393  1  0.39013273  0.70444987  0.21012447  1  -1.264063  0  -0.22673  0.008188  0  3.802164  0
N  N394  1  0.89012624  0.79555165  0.28987552  1  -1.264078  0  -0.226743  0.008115  0  3.802023  0
N  N395  1  0.10986725  0.79555016  0.21012573  1  -1.264101  0  -0.226699  0.008256  0  3.802029  0
N  N396  1  0.39012499  0.29555118  0.71012401  1  -1.264031  0  -0.226742  0.008046  0  3.80194  0
N  N397  1  0.60987250  0.29555032  0.78987530  1  -1.264033  0  -0.22669  0.008153  0  3.801969  0
N  N398  1  0.10987367  0.20444966  0.71012386  1  -1.264062  0  -0.226723  0.008131  0  3.802116  0
N  N399  1  0.89013001  0.20444892  0.78987520  1  -1.26407  0  -0.226714  0.008157  0  3.802176  0
N  N400  1  0.67609382  0.94809561  0.15679499  1  -1.216322  0  -0.255952  -0.158273  0  3.69001  0
N  N401  1  0.32390731  0.94809335  0.34320602  1  -1.216647  0  -0.255977  -0.158218  0  3.690025  0
N  N402  1  0.82390915  0.55190604  0.15679560  1  -1.216142  0  -0.255911  -0.158268  0  3.689955  0
N  N403  1  0.17609154  0.55190625  0.34320564  1  -1.216697  0  -0.255935  -0.158227  0  3.689881  0
N  N404  1  0.32390675  0.05190570  0.84320517  1  -1.216292  0  -0.255952  -0.15816  0  3.689881  0
N  N405  1  0.67608995  0.05190684  0.65679453  1  -1.216496  0  -0.255938  -0.158243  0  3.689953  0
N  N406  1  0.17609210  0.44809416  0.84320572  1  -1.216598  0  -0.255924  -0.15819  0  3.689861  0
N  N407  1  0.82390971  0.44809506  0.65679374  1  -1.21655  0  -0.255966  -0.158185  0  3.689829  0
N  N408  1  0.43078583  0.32658583  0.19461633  1  -1.21997  0  -0.354523  -0.274372  0  3.55504  0
N  N409  1  0.56921402  0.32658386  0.30538449  1  -1.220228  0  -0.354531  -0.274386  0  3.555168  0
N  N410  1  0.06921133  0.17341389  0.19461823  1  -1.219986  0  -0.35447  -0.274315  0  3.555162  0
N  N411  1  0.93078821  0.17341471  0.30538400  1  -1.219919  0  -0.35446  -0.274311  0  3.555228  0
N  N412  1  0.56921208  0.67341492  0.80538344  1  -1.219956  0  -0.354505  -0.274405  0  3.555152  0
N  N413  1  0.43078589  0.67341410  0.69461450  1  -1.219976  0  -0.354528  -0.274365  0  3.555232  0
N  N414  1  0.93078792  0.82658574  0.80538426  1  -1.219998  0  -0.354524  -0.27433  0  3.555235  0
N  N415  1  0.06921437  0.82658493  0.69461849  1  -1.219698  0  -0.354521  -0.274302  0  3.555207  0
N  N416  1  0.94504661  0.94631436  0.90006268  1  -1.185959  0  -0.351493  -0.275288  0  3.493958  0
N  N417  1  0.05495408  0.94631108  0.59993833  1  -1.185797  0  -0.351468  -0.275413  0  3.494061  0
N  N418  1  0.55495439  0.55368712  0.90006206  1  -1.185915  0  -0.351456  -0.275332  0  3.493967  0
N  N419  1  0.44504585  0.55368434  0.59993685  1  -1.185864  0  -0.351511  -0.275331  0  3.493867  0
N  N420  1  0.05495330  0.05368472  0.09993864  1  -1.185902  0  -0.351462  -0.275288  0  3.493879  0
N  N421  1  0.94504650  0.05368297  0.40006183  1  -1.185805  0  -0.351481  -0.275272  0  3.49388  0
N  N422  1  0.44504486  0.44631475  0.09993732  1  -1.185858  0  -0.351481  -0.275249  0  3.493919  0
N  N423  1  0.55495473  0.44631473  0.40006254  1  -1.185896  0  -0.351525  -0.27538  0  3.493949  0
N  N424  1  0.47123910  0.20808806  0.18817919  1  -1.233649  0  -0.223382  0.013805  0  3.770453  0
N  N425  1  0.52876036  0.20808558  0.31182143  1  -1.233348  0  -0.223327  0.014026  0  3.770164  0
N  N426  1  0.02875808  0.29191223  0.18818056  1  -1.233579  0  -0.223388  0.01379  0  3.770514  0
N  N427  1  0.97124118  0.29191241  0.31182032  1  -1.233358  0  -0.223356  0.013916  0  3.770322  0
N  N428  1  0.52875948  0.79191269  0.81182136  1  -1.233525  0  -0.223351  0.013955  0  3.770162  0
N  N429  1  0.47124022  0.79191293  0.68817834  1  -1.233289  0  -0.223323  0.013907  0  3.770083  0
N  N430  1  0.97123983  0.70808796  0.81182193  1  -1.233309  0  -0.22337  0.013802  0  3.770294  0
N  N431  1  0.02876072  0.70808722  0.68818023  1  -1.233652  0  -0.223354  0.013916  0  3.770267  0
N  N432  1  0.89916418  0.93016340  0.98119063  1  -1.260278  0  -0.229025  0.008588  0  3.822615  0
N  N433  1  0.10083654  0.93016143  0.51880924  1  -1.260264  0  -0.229072  0.008534  0  3.822699  0
N  N434  1  0.60083786  0.56983949  0.98118993  1  -1.260242  0  -0.229067  0.008506  0  3.822642  0
N  N435  1  0.39916500  0.56983649  0.51880934  1  -1.260353  0  -0.229022  0.008614  0  3.822557  0
N  N436  1  0.10083573  0.06983512  0.01880992  1  -1.260379  0  -0.229041  0.008747  0  3.822442  0
N  N437  1  0.89916403  0.06983486  0.48118937  1  -1.260288  0  -0.229022  0.008834  0  3.822333  0
N  N438  1  0.39916405  0.43016405  0.01880906  1  -1.260243  0  -0.229041  0.008586  0  3.822604  0
N  N439  1  0.60083690  0.43016482  0.48119082  1  -1.260247  0  -0.229057  0.008545  0  3.822503  0
N  N440  1  0.58341018  0.58820731  0.31498585  1  -1.196841  0  -0.346836  -0.26589  0  3.519825  0
N  N441  1  0.41659441  0.58820877  0.18501417  1  -1.19655  0  -0.346954  -0.266016  0  3.52005  0
N  N442  1  0.91658757  0.91179215  0.31498578  1  -1.196795  0  -0.347001  -0.266128  0  3.519947  0
N  N443  1  0.08340499  0.91179190  0.18501490  1  -1.196565  0  -0.346931  -0.266092  0  3.519862  0
N  N444  1  0.41658574  0.41179232  0.68501353  1  -1.19679  0  -0.347024  -0.266258  0  3.519985  0
N  N445  1  0.58341082  0.41179254  0.81498599  1  -1.196787  0  -0.346873  -0.265932  0  3.51991  0
N  N446  1  0.08341168  0.08820749  0.68501360  1  -1.196806  0  -0.34695  -0.266078  0  3.5198  0
N  N447  1  0.91658960  0.08820829  0.81498643  1  -1.196809  0  -0.346953  -0.265982  0  3.519845  0
Cl  Cl448  1  0.24950588  0.45753927  0.17518417  1  -0.718608  0  -0.374263  -0.58248  0  1.03523  0
Cl  Cl449  1  0.75049368  0.45753472  0.32481334  1  -0.718572  0  -0.374261  -0.582496  0  1.035252  0
Cl  Cl450  1  0.25049201  0.04245716  0.17518760  1  -0.718565  0  -0.374286  -0.582514  0  1.035233  0
Cl  Cl451  1  0.74950714  0.04245541  0.32481483  1  -0.718615  0  -0.374245  -0.582454  0  1.035296  0
Cl  Cl452  1  0.75049270  0.54246595  0.82481560  1  -0.718576  0  -0.374255  -0.582479  0  1.035227  0
Cl  Cl453  1  0.24950623  0.54245430  0.67518604  1  -0.7186  0  -0.374255  -0.58248  0  1.035268  0
Cl  Cl454  1  0.74950657  0.95753912  0.82481567  1  -0.718615  0  -0.37426  -0.582483  0  1.03522  0
Cl  Cl455  1  0.25049210  0.95754143  0.67518416  1  -0.718611  0  -0.374262  -0.582483  0  1.035255  0
Cl  Cl456  1  0.40049571  0.46519204  0.29581013  1  -0.676513  0  -0.334795  -0.520761  0  1.153594  0
Cl  Cl457  1  0.59950317  0.46519314  0.20419164  1  -0.677028  0  -0.334766  -0.520726  0  1.153614  0
Cl  Cl458  1  0.09950043  0.03480903  0.29580598  1  -0.677015  0  -0.334757  -0.520708  0  1.153703  0
Cl  Cl459  1  0.90049077  0.03480910  0.20419102  1  -0.676548  0  -0.334769  -0.52072  0  1.153659  0
Cl  Cl460  1  0.59950021  0.53481430  0.70418964  1  -0.677066  0  -0.334795  -0.52077  0  1.153585  0
Cl  Cl461  1  0.40049208  0.53480816  0.79580735  1  -0.676578  0  -0.334781  -0.520747  0  1.153561  0
Cl  Cl462  1  0.90049483  0.96518446  0.70419184  1  -0.676517  0  -0.334777  -0.520741  0  1.153587  0
Cl  Cl463  1  0.09950316  0.96518327  0.79580720  1  -0.677048  0  -0.334767  -0.520742  0  1.153684  0
